MODEL        1
REMARK 921   NORMALIZED FREE ENERGY PREDICTED BY IDOCK:   -4.64 KCAL/MOL
REMARK 922        TOTAL FREE ENERGY PREDICTED BY IDOCK:  -19.88 KCAL/MOL
REMARK 923 INTER-LIGAND FREE ENERGY PREDICTED BY IDOCK:  -14.41 KCAL/MOL
REMARK 924 INTRA-LIGAND FREE ENERGY PREDICTED BY IDOCK:   -5.47 KCAL/MOL
REMARK 927      BINDING AFFINITY PREDICTED BY RF-SCORE:    0.00 PKD
ROOT
HETATM    1  C   UNL     1     -10.096   4.577  65.659  1.00  0.00    -0.261 C  
HETATM    2  C   UNL     1      -8.758   4.827  66.334  1.00  0.00    -0.112 C  
ENDROOT
BRANCH   2   3
HETATM    3  C   UNL     1      -8.661   6.256  66.864  1.00  0.00    -0.113 C  
BRANCH   3   4
HETATM    4  C   UNL     1      -7.638   7.075  66.077  1.00  0.00    -0.096 C  
BRANCH   4   5
HETATM    5  C   UNL     1      -8.058   8.542  65.996  1.00  0.00    -0.110 C  
BRANCH   5   6
HETATM    6  C   UNL     1      -9.557   8.705  66.244  1.00  0.00    -0.322 C  
BRANCH   6   7
HETATM    7  C   UNL     1     -10.118   9.886  65.452  1.00  0.00    -0.270 C  
BRANCH   7   8
HETATM    8  C   UNL     1      -9.215  10.237  64.273  1.00  0.00    -0.300 C  
BRANCH   8   9
HETATM    9  C   UNL     1      -9.912  11.192  63.308  1.00  0.00    -0.419 C  
BRANCH   9  10
HETATM   10  C   UNL     1     -11.345  11.468  63.761  1.00  0.00    -0.420 C  
BRANCH  10  11
HETATM   11  C   UNL     1     -11.739  12.928  63.551  1.00  0.00    -0.576 C  
BRANCH  11  12
HETATM   12  C   UNL     1     -12.210  13.544  64.868  1.00  0.00    -0.447 C  
BRANCH  12  13
HETATM   13  C   UNL     1     -11.173  13.384  65.974  1.00  0.00    -0.310 C  
BRANCH  13  14
HETATM   14  C   UNL     1     -11.818  12.826  67.221  1.00  0.00    -0.350 C  
HETATM   15  O   UNL     1     -12.061  11.642  67.417  1.00  0.00    -0.605 OA 
BRANCH  14  16
HETATM   16  O   UNL     1     -12.036  13.826  68.121  1.00  0.00    -0.362 OA 
BRANCH  16  17
HETATM   17  C   UNL     1     -10.900  14.158  68.938  1.00  0.00    -0.258 C  
BRANCH  17  18
HETATM   18  C   UNL     1     -10.975  15.608  69.436  1.00  0.00    -0.283 C  
BRANCH  18  19
HETATM   19  O   UNL     1     -12.254  15.805  70.084  1.00  0.00    -0.374 OA 
BRANCH  19  20
HETATM   20  C   UNL     1     -12.365  15.325  71.351  1.00  0.00    -0.359 C  
HETATM   21  O   UNL     1     -11.580  15.517  72.267  1.00  0.00    -0.430 OA 
BRANCH  20  22
HETATM   22  C   UNL     1     -13.633  14.518  71.488  1.00  0.00    -0.465 C  
BRANCH  22  23
HETATM   23  C   UNL     1     -13.409  13.253  72.307  1.00  0.00    -0.630 C  
BRANCH  23  24
HETATM   24  C   UNL     1     -12.841  12.105  71.469  1.00  0.00    -0.394 C  
BRANCH  24  25
HETATM   25  C   UNL     1     -13.388  10.759  71.939  1.00  0.00    -0.445 C  
BRANCH  25  26
HETATM   26  C   UNL     1     -12.679   9.606  71.234  1.00  0.00    -0.443 C  
BRANCH  26  27
HETATM   27  C   UNL     1     -11.300  10.024  70.735  1.00  0.00    -0.439 C  
BRANCH  27  28
HETATM   28  C   UNL     1     -10.762   9.020  69.718  1.00  0.00    -0.233 C  
BRANCH  28  29
HETATM   29  C   UNL     1      -9.689   8.129  70.339  1.00  0.00    -0.179 C  
BRANCH  29  30
HETATM   30  C   UNL     1      -8.314   8.442  69.756  1.00  0.00    -0.125 C  
BRANCH  30  31
HETATM   31  C   UNL     1      -7.867   9.856  70.125  1.00  0.00    -0.186 C  
BRANCH  31  32
HETATM   32  C   UNL     1      -7.322  10.594  68.903  1.00  0.00    -0.099 C  
BRANCH  32  33
HETATM   33  C   UNL     1      -8.356  11.561  68.333  1.00  0.00    -0.154 C  
HETATM   34  C   UNL     1      -7.812  12.298  67.121  1.00  0.00    -0.149 C  
ENDBRANCH  32  33
ENDBRANCH  31  32
ENDBRANCH  30  31
ENDBRANCH  29  30
ENDBRANCH  28  29
ENDBRANCH  27  28
ENDBRANCH  26  27
ENDBRANCH  25  26
ENDBRANCH  24  25
ENDBRANCH  23  24
ENDBRANCH  22  23
ENDBRANCH  20  22
ENDBRANCH  19  20
ENDBRANCH  18  19
BRANCH  18  35
HETATM   35  C   UNL     1     -10.907  16.560  68.243  1.00  0.00    -0.352 C  
BRANCH  35  36
HETATM   36  O   UNL     1     -10.659  17.907  68.671  1.00  0.00    -0.302 OA 
BRANCH  36  37
HETATM   37  P   UNL     1      -9.850  18.871  67.485  1.00  0.00    -0.364 P  
HETATM   38  O   UNL     1      -8.514  18.849  68.421  1.00  0.00    -0.325 OA 
HETATM   39  O   UNL     1      -9.907  17.670  66.563  1.00  0.00    -0.292 OA 
BRANCH  37  40
HETATM   40  O   UNL     1      -9.039  19.836  66.298  1.00  0.00    -0.365 OA 
BRANCH  40  41
HETATM   41  C   UNL     1      -7.649  20.182  66.566  1.00  0.00    -0.282 C  
BRANCH  41  42
HETATM   42  C   UNL     1      -6.562  19.615  65.613  1.00  0.00    -0.254 C  
HETATM   43  H   UNL     1      -6.215  17.928  64.638  1.00  0.00     0.000 HD 
HETATM   44  O   UNL     1      -6.880  18.275  65.221  1.00  0.00    -0.505 OA 
BRANCH  42  45
HETATM   45  C   UNL     1      -6.333  20.479  64.364  1.00  0.00    -0.291 C  
HETATM   46  O   UNL     1      -6.030  19.664  63.225  1.00  0.00    -0.362 OA 
HETATM   47  H   UNL     1      -5.888  20.199  62.453  1.00  0.00     0.000 HD 
ENDBRANCH  42  45
ENDBRANCH  41  42
ENDBRANCH  40  41
ENDBRANCH  37  40
ENDBRANCH  36  37
ENDBRANCH  35  36
ENDBRANCH  18  35
ENDBRANCH  17  18
ENDBRANCH  16  17
ENDBRANCH  14  16
ENDBRANCH  13  14
ENDBRANCH  12  13
ENDBRANCH  11  12
ENDBRANCH  10  11
ENDBRANCH   9  10
ENDBRANCH   8   9
ENDBRANCH   7   8
ENDBRANCH   6   7
ENDBRANCH   5   6
ENDBRANCH   4   5
ENDBRANCH   3   4
ENDBRANCH   2   3
TORSDOF 36
ENDMDL
MODEL        2
REMARK 921   NORMALIZED FREE ENERGY PREDICTED BY IDOCK:   -4.47 KCAL/MOL
REMARK 922        TOTAL FREE ENERGY PREDICTED BY IDOCK:  -19.36 KCAL/MOL
REMARK 923 INTER-LIGAND FREE ENERGY PREDICTED BY IDOCK:  -12.63 KCAL/MOL
REMARK 924 INTRA-LIGAND FREE ENERGY PREDICTED BY IDOCK:   -6.72 KCAL/MOL
REMARK 927      BINDING AFFINITY PREDICTED BY RF-SCORE:    0.00 PKD
ROOT
HETATM    1  C   UNL     1      -6.608   5.644  69.164  1.00  0.00    -0.054 C  
HETATM    2  C   UNL     1      -7.421   6.486  68.194  1.00  0.00    -0.095 C  
ENDROOT
BRANCH   2   3
HETATM    3  C   UNL     1      -8.166   5.610  67.188  1.00  0.00    -0.101 C  
BRANCH   3   4
HETATM    4  C   UNL     1      -8.024   6.150  65.766  1.00  0.00    -0.115 C  
BRANCH   4   5
HETATM    5  C   UNL     1      -6.622   6.709  65.531  1.00  0.00    -0.050 C  
BRANCH   5   6
HETATM    6  C   UNL     1      -6.524   7.415  64.179  1.00  0.00    -0.048 C  
BRANCH   6   7
HETATM    7  C   UNL     1      -7.890   7.935  63.732  1.00  0.00    -0.141 C  
BRANCH   7   8
HETATM    8  C   UNL     1      -7.783   9.348  63.167  1.00  0.00    -0.121 C  
BRANCH   8   9
HETATM    9  C   UNL     1      -9.093   9.783  62.514  1.00  0.00    -0.301 C  
BRANCH   9  10
HETATM   10  C   UNL     1      -9.415  11.236  62.863  1.00  0.00    -0.385 C  
BRANCH  10  11
HETATM   11  C   UNL     1     -10.754  11.365  63.586  1.00  0.00    -0.470 C  
BRANCH  11  12
HETATM   12  C   UNL     1     -10.773  12.630  64.443  1.00  0.00    -0.384 C  
BRANCH  12  13
HETATM   13  C   UNL     1     -11.636  12.461  65.688  1.00  0.00    -0.441 C  
BRANCH  13  14
HETATM   14  C   UNL     1     -12.465  13.702  65.925  1.00  0.00    -0.452 C  
HETATM   15  O   UNL     1     -13.387  14.077  65.214  1.00  0.00    -0.741 OA 
BRANCH  14  16
HETATM   16  O   UNL     1     -12.072  14.312  67.079  1.00  0.00    -0.425 OA 
BRANCH  16  17
HETATM   17  C   UNL     1     -11.117  15.373  66.904  1.00  0.00    -0.256 C  
BRANCH  17  18
HETATM   18  C   UNL     1     -10.456  15.755  68.236  1.00  0.00    -0.259 C  
BRANCH  18  19
HETATM   19  O   UNL     1      -9.828  14.575  68.791  1.00  0.00    -0.224 OA 
BRANCH  19  20
HETATM   20  C   UNL     1      -8.484  14.471  68.616  1.00  0.00    -0.161 C  
HETATM   21  O   UNL     1      -7.623  14.991  69.310  1.00  0.00    -0.163 OA 
BRANCH  20  22
HETATM   22  C   UNL     1      -8.184  13.586  67.432  1.00  0.00    -0.187 C  
BRANCH  22  23
HETATM   23  C   UNL     1      -8.464  12.120  67.739  1.00  0.00    -0.160 C  
BRANCH  23  24
HETATM   24  C   UNL     1      -8.200  11.209  66.538  1.00  0.00    -0.167 C  
BRANCH  24  25
HETATM   25  C   UNL     1      -8.472   9.747  66.888  1.00  0.00    -0.120 C  
BRANCH  25  26
HETATM   26  C   UNL     1      -9.873   9.332  66.449  1.00  0.00    -0.347 C  
BRANCH  26  27
HETATM   27  C   UNL     1     -10.597   8.566  67.552  1.00  0.00    -0.284 C  
BRANCH  27  28
HETATM   28  C   UNL     1      -9.967   8.847  68.913  1.00  0.00    -0.199 C  
BRANCH  28  29
HETATM   29  C   UNL     1     -10.854   8.336  70.046  1.00  0.00    -0.232 C  
BRANCH  29  30
HETATM   30  C   UNL     1     -10.332   8.802  71.402  1.00  0.00    -0.348 C  
BRANCH  30  31
HETATM   31  C   UNL     1     -10.903   7.950  72.535  1.00  0.00    -0.403 C  
BRANCH  31  32
HETATM   32  C   UNL     1     -11.506   6.654  71.995  1.00  0.00    -0.329 C  
BRANCH  32  33
HETATM   33  C   UNL     1     -10.618   5.454  72.316  1.00  0.00    -0.280 C  
HETATM   34  C   UNL     1     -11.310   4.496  73.271  1.00  0.00    -0.364 C  
ENDBRANCH  32  33
ENDBRANCH  31  32
ENDBRANCH  30  31
ENDBRANCH  29  30
ENDBRANCH  28  29
ENDBRANCH  27  28
ENDBRANCH  26  27
ENDBRANCH  25  26
ENDBRANCH  24  25
ENDBRANCH  23  24
ENDBRANCH  22  23
ENDBRANCH  20  22
ENDBRANCH  19  20
ENDBRANCH  18  19
BRANCH  18  35
HETATM   35  C   UNL     1     -11.527  16.219  69.221  1.00  0.00    -0.251 C  
BRANCH  35  36
HETATM   36  O   UNL     1     -11.041  16.178  70.570  1.00  0.00    -0.349 OA 
BRANCH  36  37
HETATM   37  P   UNL     1     -11.939  15.115  71.597  1.00  0.00    -0.434 P  
HETATM   38  O   UNL     1     -12.088  16.331  72.675  1.00  0.00    -0.509 OA 
HETATM   39  O   UNL     1     -13.042  15.149  70.558  1.00  0.00    -0.349 OA 
BRANCH  37  40
HETATM   40  O   UNL     1     -12.838  14.053  72.625  1.00  0.00    -0.366 OA 
BRANCH  40  41
HETATM   41  C   UNL     1     -13.576  12.975  71.979  1.00  0.00    -0.441 C  
BRANCH  41  42
HETATM   42  C   UNL     1     -12.788  11.708  71.552  1.00  0.00    -0.364 C  
HETATM   43  H   UNL     1     -12.900   9.754  71.848  1.00  0.00     0.000 HD 
HETATM   44  O   UNL     1     -13.382  10.530  72.109  1.00  0.00    -0.437 OA 
BRANCH  42  45
HETATM   45  C   UNL     1     -12.658  11.552  70.030  1.00  0.00    -0.023 C  
HETATM   46  O   UNL     1     -11.789  12.553  69.485  1.00  0.00    -0.305 OA 
HETATM   47  H   UNL     1     -11.709  12.456  68.543  1.00  0.00     0.000 HD 
ENDBRANCH  42  45
ENDBRANCH  41  42
ENDBRANCH  40  41
ENDBRANCH  37  40
ENDBRANCH  36  37
ENDBRANCH  35  36
ENDBRANCH  18  35
ENDBRANCH  17  18
ENDBRANCH  16  17
ENDBRANCH  14  16
ENDBRANCH  13  14
ENDBRANCH  12  13
ENDBRANCH  11  12
ENDBRANCH  10  11
ENDBRANCH   9  10
ENDBRANCH   8   9
ENDBRANCH   7   8
ENDBRANCH   6   7
ENDBRANCH   5   6
ENDBRANCH   4   5
ENDBRANCH   3   4
ENDBRANCH   2   3
TORSDOF 36
ENDMDL
MODEL        3
REMARK 921   NORMALIZED FREE ENERGY PREDICTED BY IDOCK:   -4.47 KCAL/MOL
REMARK 922        TOTAL FREE ENERGY PREDICTED BY IDOCK:  -19.33 KCAL/MOL
REMARK 923 INTER-LIGAND FREE ENERGY PREDICTED BY IDOCK:  -14.97 KCAL/MOL
REMARK 924 INTRA-LIGAND FREE ENERGY PREDICTED BY IDOCK:   -4.36 KCAL/MOL
REMARK 927      BINDING AFFINITY PREDICTED BY RF-SCORE:    0.00 PKD
ROOT
HETATM    1  C   UNL     1     -10.499   4.918  66.187  1.00  0.00    -0.346 C  
HETATM    2  C   UNL     1      -9.017   4.983  65.856  1.00  0.00    -0.141 C  
ENDROOT
BRANCH   2   3
HETATM    3  C   UNL     1      -8.472   6.400  66.027  1.00  0.00    -0.144 C  
BRANCH   3   4
HETATM    4  C   UNL     1      -7.824   6.908  64.739  1.00  0.00    -0.119 C  
BRANCH   4   5
HETATM    5  C   UNL     1      -8.168   8.377  64.497  1.00  0.00    -0.149 C  
BRANCH   5   6
HETATM    6  C   UNL     1      -9.203   8.878  65.504  1.00  0.00    -0.242 C  
BRANCH   6   7
HETATM    7  C   UNL     1      -9.940  10.104  64.966  1.00  0.00    -0.375 C  
BRANCH   7   8
HETATM    8  C   UNL     1      -9.279  10.632  63.696  1.00  0.00    -0.283 C  
BRANCH   8   9
HETATM    9  C   UNL     1     -10.130  11.714  63.037  1.00  0.00    -0.311 C  
BRANCH   9  10
HETATM   10  C   UNL     1     -11.505  11.798  63.700  1.00  0.00    -0.524 C  
BRANCH  10  11
HETATM   11  C   UNL     1     -12.123  13.187  63.555  1.00  0.00    -0.585 C  
BRANCH  11  12
HETATM   12  C   UNL     1     -12.477  13.754  64.930  1.00  0.00    -0.420 C  
BRANCH  12  13
HETATM   13  C   UNL     1     -11.331  13.595  65.923  1.00  0.00    -0.317 C  
BRANCH  13  14
HETATM   14  C   UNL     1     -11.801  12.849  67.151  1.00  0.00    -0.362 C  
HETATM   15  O   UNL     1     -11.889  11.632  67.243  1.00  0.00    -0.609 OA 
BRANCH  14  16
HETATM   16  O   UNL     1     -12.057  13.728  68.161  1.00  0.00    -0.364 OA 
BRANCH  16  17
HETATM   17  C   UNL     1     -10.900  14.134  68.913  1.00  0.00    -0.258 C  
BRANCH  17  18
HETATM   18  C   UNL     1     -11.142  15.467  69.633  1.00  0.00    -0.279 C  
BRANCH  18  19
HETATM   19  O   UNL     1     -12.546  15.557  69.973  1.00  0.00    -0.339 OA 
BRANCH  19  20
HETATM   20  C   UNL     1     -12.843  15.577  71.300  1.00  0.00    -0.475 C  
HETATM   21  O   UNL     1     -12.248  16.204  72.163  1.00  0.00    -0.469 OA 
BRANCH  20  22
HETATM   22  C   UNL     1     -14.052  14.718  71.572  1.00  0.00    -0.566 C  
BRANCH  22  23
HETATM   23  C   UNL     1     -13.683  13.456  72.343  1.00  0.00    -0.698 C  
BRANCH  23  24
HETATM   24  C   UNL     1     -13.024  12.398  71.456  1.00  0.00    -0.385 C  
BRANCH  24  25
HETATM   25  C   UNL     1     -13.373  10.988  71.929  1.00  0.00    -0.423 C  
BRANCH  25  26
HETATM   26  C   UNL     1     -12.356   9.973  71.417  1.00  0.00    -0.512 C  
BRANCH  26  27
HETATM   27  C   UNL     1     -11.371  10.616  70.445  1.00  0.00    -0.389 C  
BRANCH  27  28
HETATM   28  C   UNL     1     -10.146   9.727  70.245  1.00  0.00    -0.323 C  
BRANCH  28  29
HETATM   29  C   UNL     1     -10.103   9.160  68.829  1.00  0.00    -0.212 C  
BRANCH  29  30
HETATM   30  C   UNL     1     -10.311   7.648  68.838  1.00  0.00    -0.222 C  
BRANCH  30  31
HETATM   31  C   UNL     1     -10.348   7.105  70.266  1.00  0.00    -0.214 C  
BRANCH  31  32
HETATM   32  C   UNL     1     -11.708   6.487  70.583  1.00  0.00    -0.436 C  
BRANCH  32  33
HETATM   33  C   UNL     1     -11.871   6.246  72.082  1.00  0.00    -0.365 C  
HETATM   34  C   UNL     1     -10.898   7.094  72.885  1.00  0.00    -0.362 C  
ENDBRANCH  32  33
ENDBRANCH  31  32
ENDBRANCH  30  31
ENDBRANCH  29  30
ENDBRANCH  28  29
ENDBRANCH  27  28
ENDBRANCH  26  27
ENDBRANCH  25  26
ENDBRANCH  24  25
ENDBRANCH  23  24
ENDBRANCH  22  23
ENDBRANCH  20  22
ENDBRANCH  19  20
ENDBRANCH  18  19
BRANCH  18  35
HETATM   35  C   UNL     1     -10.817  16.622  68.689  1.00  0.00    -0.344 C  
BRANCH  35  36
HETATM   36  O   UNL     1     -10.574  17.834  69.418  1.00  0.00    -0.116 OA 
BRANCH  36  37
HETATM   37  P   UNL     1      -9.362  18.840  68.703  1.00  0.00    -0.306 P  
HETATM   38  O   UNL     1      -8.399  17.530  68.563  1.00  0.00    -0.263 OA 
HETATM   39  O   UNL     1     -10.283  18.988  67.509  1.00  0.00    -0.347 OA 
BRANCH  37  40
HETATM   40  O   UNL     1      -8.149  19.846  67.988  1.00  0.00    -0.300 OA 
BRANCH  40  41
HETATM   41  C   UNL     1      -7.060  19.174  67.291  1.00  0.00    -0.210 C  
BRANCH  41  42
HETATM   42  C   UNL     1      -7.047  19.227  65.739  1.00  0.00    -0.279 C  
HETATM   43  H   UNL     1      -8.187  19.960  64.297  1.00  0.00     0.000 HD 
HETATM   44  O   UNL     1      -8.195  19.928  65.246  1.00  0.00    -0.144 OA 
BRANCH  42  45
HETATM   45  C   UNL     1      -5.770  19.853  65.160  1.00  0.00    -0.180 C  
HETATM   46  O   UNL     1      -6.018  21.186  64.694  1.00  0.00    -0.260 OA 
HETATM   47  H   UNL     1      -5.228  21.573  64.336  1.00  0.00     0.000 HD 
ENDBRANCH  42  45
ENDBRANCH  41  42
ENDBRANCH  40  41
ENDBRANCH  37  40
ENDBRANCH  36  37
ENDBRANCH  35  36
ENDBRANCH  18  35
ENDBRANCH  17  18
ENDBRANCH  16  17
ENDBRANCH  14  16
ENDBRANCH  13  14
ENDBRANCH  12  13
ENDBRANCH  11  12
ENDBRANCH  10  11
ENDBRANCH   9  10
ENDBRANCH   8   9
ENDBRANCH   7   8
ENDBRANCH   6   7
ENDBRANCH   5   6
ENDBRANCH   4   5
ENDBRANCH   3   4
ENDBRANCH   2   3
TORSDOF 36
ENDMDL
MODEL        4
REMARK 921   NORMALIZED FREE ENERGY PREDICTED BY IDOCK:   -4.43 KCAL/MOL
REMARK 922        TOTAL FREE ENERGY PREDICTED BY IDOCK:  -19.23 KCAL/MOL
REMARK 923 INTER-LIGAND FREE ENERGY PREDICTED BY IDOCK:  -12.26 KCAL/MOL
REMARK 924 INTRA-LIGAND FREE ENERGY PREDICTED BY IDOCK:   -6.97 KCAL/MOL
REMARK 927      BINDING AFFINITY PREDICTED BY RF-SCORE:    0.00 PKD
ROOT
HETATM    1  C   UNL     1     -10.590  18.287  67.655  1.00  0.00    -0.427 C  
HETATM    2  C   UNL     1      -9.442  17.295  67.562  1.00  0.00    -0.245 C  
ENDROOT
BRANCH   2   3
HETATM    3  C   UNL     1      -9.365  16.665  66.173  1.00  0.00    -0.318 C  
BRANCH   3   4
HETATM    4  C   UNL     1     -10.756  16.462  65.574  1.00  0.00    -0.300 C  
BRANCH   4   5
HETATM    5  C   UNL     1     -10.799  15.205  64.706  1.00  0.00    -0.378 C  
BRANCH   5   6
HETATM    6  C   UNL     1     -12.193  14.577  64.706  1.00  0.00    -0.441 C  
BRANCH   6   7
HETATM    7  C   UNL     1     -12.138  13.123  64.240  1.00  0.00    -0.477 C  
BRANCH   7   8
HETATM    8  C   UNL     1     -10.697  12.665  64.030  1.00  0.00    -0.457 C  
BRANCH   8   9
HETATM    9  C   UNL     1     -10.625  11.160  63.787  1.00  0.00    -0.422 C  
BRANCH   9  10
HETATM   10  C   UNL     1      -9.964  10.452  64.969  1.00  0.00    -0.399 C  
BRANCH  10  11
HETATM   11  C   UNL     1     -10.905  10.341  66.166  1.00  0.00     0.052 C  
BRANCH  11  12
HETATM   12  C   UNL     1     -10.408   9.267  67.132  1.00  0.00    -0.330 C  
BRANCH  12  13
HETATM   13  C   UNL     1      -9.601   8.189  66.419  1.00  0.00    -0.286 C  
BRANCH  13  14
HETATM   14  C   UNL     1      -8.459   7.723  67.292  1.00  0.00    -0.118 C  
HETATM   15  O   UNL     1      -8.543   6.863  68.159  1.00  0.00    -0.123 OA 
BRANCH  14  16
HETATM   16  O   UNL     1      -7.308   8.360  66.933  1.00  0.00    -0.081 OA 
BRANCH  16  17
HETATM   17  C   UNL     1      -6.375   8.565  68.008  1.00  0.00    -0.056 C  
BRANCH  17  18
HETATM   18  C   UNL     1      -6.814   9.721  68.916  1.00  0.00    -0.054 C  
BRANCH  18  19
HETATM   19  O   UNL     1      -6.009  10.882  68.603  1.00  0.00    -0.043 OA 
BRANCH  19  20
HETATM   20  C   UNL     1      -6.543  11.761  67.714  1.00  0.00    -0.075 C  
HETATM   21  O   UNL     1      -5.947  12.319  66.805  1.00  0.00    -0.252 OA 
BRANCH  20  22
HETATM   22  C   UNL     1      -8.014  11.946  67.990  1.00  0.00    -0.147 C  
BRANCH  22  23
HETATM   23  C   UNL     1      -8.521  13.285  67.469  1.00  0.00    -0.202 C  
BRANCH  23  24
HETATM   24  C   UNL     1     -10.040  13.425  67.592  1.00  0.00    -0.229 C  
BRANCH  24  25
HETATM   25  C   UNL     1     -10.438  13.872  68.997  1.00  0.00    -0.147 C  
BRANCH  25  26
HETATM   26  C   UNL     1     -11.678  14.760  68.956  1.00  0.00    -0.343 C  
BRANCH  26  27
HETATM   27  C   UNL     1     -11.793  15.614  70.215  1.00  0.00    -0.386 C  
BRANCH  27  28
HETATM   28  C   UNL     1     -13.204  15.546  70.793  1.00  0.00    -0.391 C  
BRANCH  28  29
HETATM   29  C   UNL     1     -13.171  15.473  72.317  1.00  0.00    -0.539 C  
BRANCH  29  30
HETATM   30  C   UNL     1     -12.903  14.048  72.792  1.00  0.00    -0.399 C  
BRANCH  30  31
HETATM   31  C   UNL     1     -13.807  13.048  72.073  1.00  0.00    -0.330 C  
BRANCH  31  32
HETATM   32  C   UNL     1     -13.158  11.666  72.012  1.00  0.00    -0.433 C  
BRANCH  32  33
HETATM   33  C   UNL     1     -12.762  11.303  70.583  1.00  0.00    -0.314 C  
HETATM   34  C   UNL     1     -11.488  10.476  70.558  1.00  0.00    -0.433 C  
ENDBRANCH  32  33
ENDBRANCH  31  32
ENDBRANCH  30  31
ENDBRANCH  29  30
ENDBRANCH  28  29
ENDBRANCH  27  28
ENDBRANCH  26  27
ENDBRANCH  25  26
ENDBRANCH  24  25
ENDBRANCH  23  24
ENDBRANCH  22  23
ENDBRANCH  20  22
ENDBRANCH  19  20
ENDBRANCH  18  19
BRANCH  18  35
HETATM   35  C   UNL     1      -6.550   9.351  70.374  1.00  0.00    -0.077 C  
BRANCH  35  36
HETATM   36  O   UNL     1      -7.677   9.673  71.202  1.00  0.00    -0.302 OA 
BRANCH  36  37
HETATM   37  P   UNL     1      -8.667   8.307  71.583  1.00  0.00    -0.198 P  
HETATM   38  O   UNL     1      -7.386   7.336  71.301  1.00  0.00    -0.075 OA 
HETATM   39  O   UNL     1      -8.688   8.804  73.014  1.00  0.00    -0.368 OA 
BRANCH  37  40
HETATM   40  O   UNL     1      -9.657   6.940  71.964  1.00  0.00    -0.145 OA 
BRANCH  40  41
HETATM   41  C   UNL     1     -11.070   7.196  72.215  1.00  0.00    -0.254 C  
BRANCH  41  42
HETATM   42  C   UNL     1     -12.103   6.621  71.209  1.00  0.00    -0.341 C  
HETATM   43  H   UNL     1     -13.940   7.043  70.606  1.00  0.00     0.000 HD 
HETATM   44  O   UNL     1     -13.307   7.395  71.222  1.00  0.00    -0.350 OA 
BRANCH  42  45
HETATM   45  C   UNL     1     -11.567   6.521  69.773  1.00  0.00    -0.327 C  
HETATM   46  O   UNL     1     -10.652   5.425  69.642  1.00  0.00    -0.298 OA 
HETATM   47  H   UNL     1     -10.321   5.363  68.754  1.00  0.00     0.000 HD 
ENDBRANCH  42  45
ENDBRANCH  41  42
ENDBRANCH  40  41
ENDBRANCH  37  40
ENDBRANCH  36  37
ENDBRANCH  35  36
ENDBRANCH  18  35
ENDBRANCH  17  18
ENDBRANCH  16  17
ENDBRANCH  14  16
ENDBRANCH  13  14
ENDBRANCH  12  13
ENDBRANCH  11  12
ENDBRANCH  10  11
ENDBRANCH   9  10
ENDBRANCH   8   9
ENDBRANCH   7   8
ENDBRANCH   6   7
ENDBRANCH   5   6
ENDBRANCH   4   5
ENDBRANCH   3   4
ENDBRANCH   2   3
TORSDOF 36
ENDMDL
MODEL        5
REMARK 921   NORMALIZED FREE ENERGY PREDICTED BY IDOCK:   -4.27 KCAL/MOL
REMARK 922        TOTAL FREE ENERGY PREDICTED BY IDOCK:  -18.74 KCAL/MOL
REMARK 923 INTER-LIGAND FREE ENERGY PREDICTED BY IDOCK:  -12.93 KCAL/MOL
REMARK 924 INTRA-LIGAND FREE ENERGY PREDICTED BY IDOCK:   -5.81 KCAL/MOL
REMARK 927      BINDING AFFINITY PREDICTED BY RF-SCORE:    0.00 PKD
ROOT
HETATM    1  C   UNL     1      -8.984   9.375  64.121  1.00  0.00    -0.187 C  
HETATM    2  C   UNL     1      -8.774  10.444  63.062  1.00  0.00    -0.206 C  
ENDROOT
BRANCH   2   3
HETATM    3  C   UNL     1      -9.687  11.646  63.298  1.00  0.00    -0.390 C  
BRANCH   3   4
HETATM    4  C   UNL     1     -10.858  11.287  64.212  1.00  0.00    -0.398 C  
BRANCH   4   5
HETATM    5  C   UNL     1     -12.160  11.900  63.699  1.00  0.00    -0.580 C  
BRANCH   5   6
HETATM    6  C   UNL     1     -12.225  13.397  63.999  1.00  0.00    -0.466 C  
BRANCH   6   7
HETATM    7  C   UNL     1     -12.400  13.648  65.497  1.00  0.00    -0.519 C  
BRANCH   7   8
HETATM    8  C   UNL     1     -11.551  14.829  65.960  1.00  0.00    -0.286 C  
BRANCH   8   9
HETATM    9  C   UNL     1     -10.066  14.477  65.961  1.00  0.00    -0.336 C  
BRANCH   9  10
HETATM   10  C   UNL     1      -9.737  13.528  67.112  1.00  0.00    -0.244 C  
BRANCH  10  11
HETATM   11  C   UNL     1      -8.273  13.093  67.092  1.00  0.00    -0.127 C  
BRANCH  11  12
HETATM   12  C   UNL     1      -8.166  11.615  66.717  1.00  0.00    -0.161 C  
BRANCH  12  13
HETATM   13  C   UNL     1      -6.716  11.145  66.665  1.00  0.00    -0.137 C  
BRANCH  13  14
HETATM   14  C   UNL     1      -6.311  10.543  67.990  1.00  0.00    -0.058 C  
HETATM   15  O   UNL     1      -6.353  11.122  69.067  1.00  0.00    -0.046 OA 
BRANCH  14  16
HETATM   16  O   UNL     1      -5.948   9.240  67.818  1.00  0.00    -0.051 OA 
BRANCH  16  17
HETATM   17  C   UNL     1      -6.900   8.440  67.096  1.00  0.00    -0.070 C  
BRANCH  17  18
HETATM   18  C   UNL     1      -7.883   7.746  68.048  1.00  0.00    -0.124 C  
BRANCH  18  19
HETATM   19  O   UNL     1      -8.943   8.677  68.371  1.00  0.00    -0.141 OA 
BRANCH  19  20
HETATM   20  C   UNL     1     -10.124   8.490  67.723  1.00  0.00    -0.211 C  
HETATM   21  O   UNL     1     -10.529   7.440  67.249  1.00  0.00    -0.253 OA 
BRANCH  20  22
HETATM   22  C   UNL     1     -10.903   9.782  67.686  1.00  0.00    -0.301 C  
BRANCH  22  23
HETATM   23  C   UNL     1     -10.837  10.517  69.019  1.00  0.00    -0.272 C  
BRANCH  23  24
HETATM   24  C   UNL     1     -11.969  11.535  69.183  1.00  0.00    -0.386 C  
BRANCH  24  25
HETATM   25  C   UNL     1     -12.294  11.762  70.658  1.00  0.00    -0.421 C  
BRANCH  25  26
HETATM   26  C   UNL     1     -12.630  13.226  70.923  1.00  0.00    -0.386 C  
BRANCH  26  27
HETATM   27  C   UNL     1     -12.027  14.137  69.858  1.00  0.00    -0.398 C  
BRANCH  27  28
HETATM   28  C   UNL     1     -12.171  15.605  70.251  1.00  0.00    -0.416 C  
BRANCH  28  29
HETATM   29  C   UNL     1     -10.828  16.327  70.179  1.00  0.00    -0.299 C  
BRANCH  29  30
HETATM   30  C   UNL     1     -10.532  16.789  68.755  1.00  0.00    -0.338 C  
BRANCH  30  31
HETATM   31  C   UNL     1     -10.121  18.261  68.728  1.00  0.00    -0.393 C  
BRANCH  31  32
HETATM   32  C   UNL     1      -8.744  18.433  68.087  1.00  0.00    -0.318 C  
BRANCH  32  33
HETATM   33  C   UNL     1      -8.165  17.089  67.651  1.00  0.00    -0.193 C  
HETATM   34  C   UNL     1      -7.552  17.178  66.264  1.00  0.00    -0.352 C  
ENDBRANCH  32  33
ENDBRANCH  31  32
ENDBRANCH  30  31
ENDBRANCH  29  30
ENDBRANCH  28  29
ENDBRANCH  27  28
ENDBRANCH  26  27
ENDBRANCH  25  26
ENDBRANCH  24  25
ENDBRANCH  23  24
ENDBRANCH  22  23
ENDBRANCH  20  22
ENDBRANCH  19  20
ENDBRANCH  18  19
BRANCH  18  35
HETATM   35  C   UNL     1      -7.166   7.389  69.348  1.00  0.00    -0.083 C  
BRANCH  35  36
HETATM   36  O   UNL     1      -7.559   8.266  70.413  1.00  0.00    -0.071 OA 
BRANCH  36  37
HETATM   37  P   UNL     1      -8.850   7.644  71.382  1.00  0.00    -0.136 P  
HETATM   38  O   UNL     1      -7.951   6.313  71.672  1.00  0.00    -0.101 OA 
HETATM   39  O   UNL     1      -8.551   8.748  72.375  1.00  0.00    -0.395 OA 
BRANCH  37  40
HETATM   40  O   UNL     1     -10.140   7.020  72.351  1.00  0.00    -0.172 OA 
BRANCH  40  41
HETATM   41  C   UNL     1     -11.296   7.885  72.550  1.00  0.00    -0.390 C  
BRANCH  41  42
HETATM   42  C   UNL     1     -12.346   7.969  71.411  1.00  0.00    -0.306 C  
HETATM   43  H   UNL     1     -12.881   6.892  69.838  1.00  0.00     0.000 HD 
HETATM   44  O   UNL     1     -12.237   6.841  70.536  1.00  0.00    -0.363 OA 
BRANCH  42  45
HETATM   45  C   UNL     1     -13.790   8.093  71.919  1.00  0.00    -0.364 C  
HETATM   46  O   UNL     1     -13.852   8.912  73.094  1.00  0.00    -1.084 OA 
HETATM   47  H   UNL     1     -14.745   8.989  73.408  1.00  0.00     0.000 HD 
ENDBRANCH  42  45
ENDBRANCH  41  42
ENDBRANCH  40  41
ENDBRANCH  37  40
ENDBRANCH  36  37
ENDBRANCH  35  36
ENDBRANCH  18  35
ENDBRANCH  17  18
ENDBRANCH  16  17
ENDBRANCH  14  16
ENDBRANCH  13  14
ENDBRANCH  12  13
ENDBRANCH  11  12
ENDBRANCH  10  11
ENDBRANCH   9  10
ENDBRANCH   8   9
ENDBRANCH   7   8
ENDBRANCH   6   7
ENDBRANCH   5   6
ENDBRANCH   4   5
ENDBRANCH   3   4
ENDBRANCH   2   3
TORSDOF 36
ENDMDL
MODEL        6
REMARK 921   NORMALIZED FREE ENERGY PREDICTED BY IDOCK:   -4.24 KCAL/MOL
REMARK 922        TOTAL FREE ENERGY PREDICTED BY IDOCK:  -18.62 KCAL/MOL
REMARK 923 INTER-LIGAND FREE ENERGY PREDICTED BY IDOCK:  -12.96 KCAL/MOL
REMARK 924 INTRA-LIGAND FREE ENERGY PREDICTED BY IDOCK:   -5.66 KCAL/MOL
REMARK 927      BINDING AFFINITY PREDICTED BY RF-SCORE:    0.00 PKD
ROOT
HETATM    1  C   UNL     1     -11.307   6.246  69.298  1.00  0.00    -0.411 C  
HETATM    2  C   UNL     1     -10.305   5.242  69.844  1.00  0.00    -0.374 C  
ENDROOT
BRANCH   2   3
HETATM    3  C   UNL     1      -9.532   5.819  71.029  1.00  0.00    -0.195 C  
BRANCH   3   4
HETATM    4  C   UNL     1      -9.254   7.310  70.842  1.00  0.00    -0.155 C  
BRANCH   4   5
HETATM    5  C   UNL     1      -9.621   8.096  72.100  1.00  0.00    -0.308 C  
BRANCH   5   6
HETATM    6  C   UNL     1     -10.874   7.528  72.764  1.00  0.00    -0.397 C  
BRANCH   6   7
HETATM    7  C   UNL     1     -12.049   8.497  72.635  1.00  0.00    -0.305 C  
BRANCH   7   8
HETATM    8  C   UNL     1     -12.218   8.969  71.193  1.00  0.00    -0.331 C  
BRANCH   8   9
HETATM    9  C   UNL     1     -13.195  10.138  71.105  1.00  0.00    -0.438 C  
BRANCH   9  10
HETATM   10  C   UNL     1     -12.445  11.456  70.916  1.00  0.00    -0.478 C  
BRANCH  10  11
HETATM   11  C   UNL     1     -11.420  11.371  69.788  1.00  0.00    -0.376 C  
BRANCH  11  12
HETATM   12  C   UNL     1     -11.589  12.551  68.830  1.00  0.00    -0.366 C  
BRANCH  12  13
HETATM   13  C   UNL     1     -12.039  13.813  69.556  1.00  0.00    -0.386 C  
BRANCH  13  14
HETATM   14  C   UNL     1     -11.137  14.973  69.202  1.00  0.00    -0.270 C  
HETATM   15  O   UNL     1     -11.300  16.128  69.571  1.00  0.00    -0.328 OA 
BRANCH  14  16
HETATM   16  O   UNL     1     -10.083  14.533  68.458  1.00  0.00    -0.228 OA 
BRANCH  16  17
HETATM   17  C   UNL     1      -8.790  14.842  69.006  1.00  0.00    -0.136 C  
BRANCH  17  18
HETATM   18  C   UNL     1      -7.662  14.329  68.100  1.00  0.00    -0.141 C  
BRANCH  18  19
HETATM   19  O   UNL     1      -6.576  13.865  68.937  1.00  0.00    -0.091 OA 
BRANCH  19  20
HETATM   20  C   UNL     1      -6.659  12.579  69.370  1.00  0.00    -0.073 C  
HETATM   21  O   UNL     1      -6.314  12.163  70.466  1.00  0.00    -0.162 OA 
BRANCH  20  22
HETATM   22  C   UNL     1      -7.271  11.711  68.299  1.00  0.00    -0.085 C  
BRANCH  22  23
HETATM   23  C   UNL     1      -6.244  10.772  67.680  1.00  0.00    -0.052 C  
BRANCH  23  24
HETATM   24  C   UNL     1      -6.760   9.336  67.560  1.00  0.00    -0.069 C  
BRANCH  24  25
HETATM   25  C   UNL     1      -8.180   9.215  68.109  1.00  0.00    -0.116 C  
BRANCH  25  26
HETATM   26  C   UNL     1      -9.058   8.391  67.172  1.00  0.00    -0.162 C  
BRANCH  26  27
HETATM   27  C   UNL     1     -10.410   9.061  66.944  1.00  0.00    -0.324 C  
BRANCH  27  28
HETATM   28  C   UNL     1     -10.244  10.379  66.191  1.00  0.00    -0.288 C  
BRANCH  28  29
HETATM   29  C   UNL     1      -9.809  10.135  64.748  1.00  0.00    -0.382 C  
BRANCH  29  30
HETATM   30  C   UNL     1     -10.327  11.237  63.828  1.00  0.00    -0.453 C  
BRANCH  30  31
HETATM   31  C   UNL     1     -11.678  11.767  64.307  1.00  0.00    -0.333 C  
BRANCH  31  32
HETATM   32  C   UNL     1     -12.156  12.921  63.428  1.00  0.00    -0.610 C  
BRANCH  32  33
HETATM   33  C   UNL     1     -12.345  14.197  64.245  1.00  0.00    -0.398 C  
HETATM   34  C   UNL     1     -12.678  13.880  65.693  1.00  0.00    -0.534 C  
ENDBRANCH  32  33
ENDBRANCH  31  32
ENDBRANCH  30  31
ENDBRANCH  29  30
ENDBRANCH  28  29
ENDBRANCH  27  28
ENDBRANCH  26  27
ENDBRANCH  25  26
ENDBRANCH  24  25
ENDBRANCH  23  24
ENDBRANCH  22  23
ENDBRANCH  20  22
ENDBRANCH  19  20
ENDBRANCH  18  19
BRANCH  18  35
HETATM   35  C   UNL     1      -7.132  15.478  67.246  1.00  0.00    -0.190 C  
BRANCH  35  36
HETATM   36  O   UNL     1      -6.460  16.455  68.053  1.00  0.00    -0.124 OA 
BRANCH  36  37
HETATM   37  P   UNL     1      -7.038  18.067  67.814  1.00  0.00    -0.212 P  
HETATM   38  O   UNL     1      -7.676  17.595  66.389  1.00  0.00    -0.246 OA 
HETATM   39  O   UNL     1      -7.995  17.825  68.963  1.00  0.00    -0.205 OA 
BRANCH  37  40
HETATM   40  O   UNL     1      -7.616  19.680  67.574  1.00  0.00    -0.251 OA 
BRANCH  40  41
HETATM   41  C   UNL     1      -8.435  19.920  66.392  1.00  0.00    -0.341 C  
BRANCH  41  42
HETATM   42  C   UNL     1      -9.919  20.320  66.604  1.00  0.00    -0.426 C  
HETATM   43  H   UNL     1     -11.648  20.051  65.678  1.00  0.00     0.000 HD 
HETATM   44  O   UNL     1     -10.739  19.806  65.548  1.00  0.00    -0.479 OA 
BRANCH  42  45
HETATM   45  C   UNL     1     -10.484  19.876  67.961  1.00  0.00    -0.350 C  
HETATM   46  O   UNL     1     -10.643  18.452  68.010  1.00  0.00    -0.381 OA 
HETATM   47  H   UNL     1     -10.992  18.177  68.849  1.00  0.00     0.000 HD 
ENDBRANCH  42  45
ENDBRANCH  41  42
ENDBRANCH  40  41
ENDBRANCH  37  40
ENDBRANCH  36  37
ENDBRANCH  35  36
ENDBRANCH  18  35
ENDBRANCH  17  18
ENDBRANCH  16  17
ENDBRANCH  14  16
ENDBRANCH  13  14
ENDBRANCH  12  13
ENDBRANCH  11  12
ENDBRANCH  10  11
ENDBRANCH   9  10
ENDBRANCH   8   9
ENDBRANCH   7   8
ENDBRANCH   6   7
ENDBRANCH   5   6
ENDBRANCH   4   5
ENDBRANCH   3   4
ENDBRANCH   2   3
TORSDOF 36
ENDMDL
MODEL        7
REMARK 921   NORMALIZED FREE ENERGY PREDICTED BY IDOCK:   -4.20 KCAL/MOL
REMARK 922        TOTAL FREE ENERGY PREDICTED BY IDOCK:  -18.50 KCAL/MOL
REMARK 923 INTER-LIGAND FREE ENERGY PREDICTED BY IDOCK:  -13.26 KCAL/MOL
REMARK 924 INTRA-LIGAND FREE ENERGY PREDICTED BY IDOCK:   -5.25 KCAL/MOL
REMARK 927      BINDING AFFINITY PREDICTED BY RF-SCORE:    0.00 PKD
ROOT
HETATM    1  C   UNL     1     -12.780  13.380  65.599  1.00  0.00    -0.432 C  
HETATM    2  C   UNL     1     -11.880  13.452  64.377  1.00  0.00    -0.452 C  
ENDROOT
BRANCH   2   3
HETATM    3  C   UNL     1     -11.605  12.062  63.806  1.00  0.00    -0.565 C  
BRANCH   3   4
HETATM    4  C   UNL     1     -10.142  11.907  63.393  1.00  0.00    -0.464 C  
BRANCH   4   5
HETATM    5  C   UNL     1      -9.665  10.471  63.602  1.00  0.00    -0.375 C  
BRANCH   5   6
HETATM    6  C   UNL     1      -8.197  10.429  64.027  1.00  0.00    -0.117 C  
BRANCH   6   7
HETATM    7  C   UNL     1      -7.533   9.130  63.573  1.00  0.00    -0.102 C  
BRANCH   7   8
HETATM    8  C   UNL     1      -8.210   7.915  64.201  1.00  0.00    -0.031 C  
BRANCH   8   9
HETATM    9  C   UNL     1      -7.967   7.863  65.707  1.00  0.00    -0.109 C  
BRANCH   9  10
HETATM   10  C   UNL     1      -9.126   7.166  66.418  1.00  0.00    -0.189 C  
BRANCH  10  11
HETATM   11  C   UNL     1     -10.265   8.133  66.735  1.00  0.00    -0.372 C  
BRANCH  11  12
HETATM   12  C   UNL     1      -9.704   9.491  67.158  1.00  0.00    -0.221 C  
BRANCH  12  13
HETATM   13  C   UNL     1     -10.779  10.571  67.174  1.00  0.00    -0.323 C  
BRANCH  13  14
HETATM   14  C   UNL     1     -10.267  11.812  67.868  1.00  0.00    -0.191 C  
HETATM   15  O   UNL     1      -9.383  12.543  67.439  1.00  0.00    -0.177 OA 
BRANCH  14  16
HETATM   16  O   UNL     1     -10.973  12.031  69.013  1.00  0.00    -0.225 OA 
BRANCH  16  17
HETATM   17  C   UNL     1     -12.215  11.312  69.100  1.00  0.00    -0.183 C  
BRANCH  17  18
HETATM   18  C   UNL     1     -12.722  11.246  70.548  1.00  0.00    -0.174 C  
BRANCH  18  19
HETATM   19  O   UNL     1     -12.195  12.384  71.270  1.00  0.00    -0.163 OA 
BRANCH  19  20
HETATM   20  C   UNL     1     -13.087  13.087  72.017  1.00  0.00    -0.379 C  
HETATM   21  O   UNL     1     -14.008  12.620  72.670  1.00  0.00    -0.398 OA 
BRANCH  20  22
HETATM   22  C   UNL     1     -12.770  14.560  71.950  1.00  0.00    -0.410 C  
BRANCH  22  23
HETATM   23  C   UNL     1     -12.974  15.116  70.546  1.00  0.00    -0.366 C  
BRANCH  23  24
HETATM   24  C   UNL     1     -11.669  15.608  69.916  1.00  0.00    -0.372 C  
BRANCH  24  25
HETATM   25  C   UNL     1     -11.693  15.439  68.398  1.00  0.00    -0.332 C  
BRANCH  25  26
HETATM   26  C   UNL     1     -10.696  16.379  67.728  1.00  0.00    -0.328 C  
BRANCH  26  27
HETATM   27  C   UNL     1      -9.288  15.793  67.735  1.00  0.00    -0.206 C  
BRANCH  27  28
HETATM   28  C   UNL     1      -8.634  15.930  66.362  1.00  0.00    -0.364 C  
BRANCH  28  29
HETATM   29  C   UNL     1      -7.658  17.104  66.333  1.00  0.00    -0.347 C  
BRANCH  29  30
HETATM   30  C   UNL     1      -7.376  17.615  67.743  1.00  0.00    -0.193 C  
BRANCH  30  31
HETATM   31  C   UNL     1      -7.636  19.118  67.847  1.00  0.00    -0.301 C  
BRANCH  31  32
HETATM   32  C   UNL     1      -8.806  19.407  68.785  1.00  0.00    -0.385 C  
BRANCH  32  33
HETATM   33  C   UNL     1     -10.052  19.821  68.005  1.00  0.00    -0.571 C  
HETATM   34  C   UNL     1      -9.722  20.102  66.549  1.00  0.00    -0.553 C  
ENDBRANCH  32  33
ENDBRANCH  31  32
ENDBRANCH  30  31
ENDBRANCH  29  30
ENDBRANCH  28  29
ENDBRANCH  27  28
ENDBRANCH  26  27
ENDBRANCH  25  26
ENDBRANCH  24  25
ENDBRANCH  23  24
ENDBRANCH  22  23
ENDBRANCH  20  22
ENDBRANCH  19  20
ENDBRANCH  18  19
BRANCH  18  35
HETATM   35  C   UNL     1     -12.187   9.982  71.217  1.00  0.00    -0.402 C  
BRANCH  35  36
HETATM   36  O   UNL     1     -11.404   9.204  70.301  1.00  0.00    -0.250 OA 
BRANCH  36  37
HETATM   37  P   UNL     1     -10.569   7.887  71.050  1.00  0.00    -0.219 P  
HETATM   38  O   UNL     1     -11.355   8.218  72.441  1.00  0.00    -0.347 OA 
HETATM   39  O   UNL     1     -11.371   6.958  70.162  1.00  0.00    -0.298 OA 
BRANCH  37  40
HETATM   40  O   UNL     1      -9.735   6.570  71.801  1.00  0.00    -0.160 OA 
BRANCH  40  41
HETATM   41  C   UNL     1     -10.168   5.225  71.447  1.00  0.00    -0.213 C  
BRANCH  41  42
HETATM   42  C   UNL     1     -10.177   4.146  72.563  1.00  0.00    -0.174 C  
HETATM   43  H   UNL     1      -8.967   3.528  74.003  1.00  0.00     0.000 HD 
HETATM   44  O   UNL     1      -8.962   4.189  73.319  1.00  0.00    -0.103 OA 
BRANCH  42  45
HETATM   45  C   UNL     1     -11.381   4.255  73.509  1.00  0.00    -0.226 C  
HETATM   46  O   UNL     1     -12.182   5.401  73.190  1.00  0.00    -0.493 OA 
HETATM   47  H   UNL     1     -12.927   5.469  73.776  1.00  0.00     0.000 HD 
ENDBRANCH  42  45
ENDBRANCH  41  42
ENDBRANCH  40  41
ENDBRANCH  37  40
ENDBRANCH  36  37
ENDBRANCH  35  36
ENDBRANCH  18  35
ENDBRANCH  17  18
ENDBRANCH  16  17
ENDBRANCH  14  16
ENDBRANCH  13  14
ENDBRANCH  12  13
ENDBRANCH  11  12
ENDBRANCH  10  11
ENDBRANCH   9  10
ENDBRANCH   8   9
ENDBRANCH   7   8
ENDBRANCH   6   7
ENDBRANCH   5   6
ENDBRANCH   4   5
ENDBRANCH   3   4
ENDBRANCH   2   3
TORSDOF 36
ENDMDL
MODEL        8
REMARK 921   NORMALIZED FREE ENERGY PREDICTED BY IDOCK:   -4.19 KCAL/MOL
REMARK 922        TOTAL FREE ENERGY PREDICTED BY IDOCK:  -18.48 KCAL/MOL
REMARK 923 INTER-LIGAND FREE ENERGY PREDICTED BY IDOCK:  -11.76 KCAL/MOL
REMARK 924 INTRA-LIGAND FREE ENERGY PREDICTED BY IDOCK:   -6.72 KCAL/MOL
REMARK 927      BINDING AFFINITY PREDICTED BY RF-SCORE:    0.00 PKD
ROOT
HETATM    1  C   UNL     1     -12.287  11.103  70.755  1.00  0.00    -0.504 C  
HETATM    2  C   UNL     1     -13.300  10.574  71.757  1.00  0.00    -0.446 C  
ENDROOT
BRANCH   2   3
HETATM    3  C   UNL     1     -12.923   9.175  72.241  1.00  0.00    -0.492 C  
BRANCH   3   4
HETATM    4  C   UNL     1     -12.041   8.451  71.225  1.00  0.00    -0.315 C  
BRANCH   4   5
HETATM    5  C   UNL     1     -12.184   6.936  71.359  1.00  0.00    -0.418 C  
BRANCH   5   6
HETATM    6  C   UNL     1     -11.558   6.211  70.168  1.00  0.00    -0.260 C  
BRANCH   6   7
HETATM    7  C   UNL     1     -10.083   5.907  70.426  1.00  0.00    -0.259 C  
BRANCH   7   8
HETATM    8  C   UNL     1      -9.515   4.981  69.355  1.00  0.00    -0.206 C  
BRANCH   8   9
HETATM    9  C   UNL     1      -7.989   5.027  69.336  1.00  0.00    -0.075 C  
BRANCH   9  10
HETATM   10  C   UNL     1      -7.487   5.798  68.116  1.00  0.00    -0.078 C  
BRANCH  10  11
HETATM   11  C   UNL     1      -8.019   5.208  66.811  1.00  0.00    -0.104 C  
BRANCH  11  12
HETATM   12  C   UNL     1      -8.563   6.319  65.912  1.00  0.00    -0.150 C  
BRANCH  12  13
HETATM   13  C   UNL     1      -8.933   7.565  66.708  1.00  0.00    -0.164 C  
BRANCH  13  14
HETATM   14  C   UNL     1     -10.434   7.681  66.836  1.00  0.00    -0.318 C  
HETATM   15  O   UNL     1     -11.214   6.738  66.837  1.00  0.00    -0.375 OA 
BRANCH  14  16
HETATM   16  O   UNL     1     -10.788   8.986  67.009  1.00  0.00    -0.183 OA 
BRANCH  16  17
HETATM   17  C   UNL     1     -10.127   9.910  66.127  1.00  0.00    -0.245 C  
BRANCH  17  18
HETATM   18  C   UNL     1      -9.896  11.266  66.809  1.00  0.00    -0.199 C  
BRANCH  18  19
HETATM   19  O   UNL     1     -10.013  11.084  68.241  1.00  0.00    -0.168 OA 
BRANCH  19  20
HETATM   20  C   UNL     1      -8.852  10.864  68.914  1.00  0.00    -0.138 C  
HETATM   21  O   UNL     1      -7.806  11.477  68.770  1.00  0.00    -0.140 OA 
BRANCH  20  22
HETATM   22  C   UNL     1      -9.037   9.745  69.909  1.00  0.00    -0.257 C  
BRANCH  22  23
HETATM   23  C   UNL     1      -7.719   9.050  70.226  1.00  0.00    -0.098 C  
BRANCH  23  24
HETATM   24  C   UNL     1      -7.707   8.424  71.622  1.00  0.00    -0.140 C  
BRANCH  24  25
HETATM   25  C   UNL     1      -9.009   8.714  72.366  1.00  0.00    -0.205 C  
BRANCH  25  26
HETATM   26  C   UNL     1      -9.117   7.865  73.629  1.00  0.00    -0.337 C  
BRANCH  26  27
HETATM   27  C   UNL     1      -8.217   6.635  73.550  1.00  0.00    -0.121 C  
BRANCH  27  28
HETATM   28  C   UNL     1      -8.852   5.449  74.272  1.00  0.00    -0.118 C  
BRANCH  28  29
HETATM   29  C   UNL     1     -10.376   5.504  74.183  1.00  0.00    -0.302 C  
BRANCH  29  30
HETATM   30  C   UNL     1     -10.936   4.213  73.592  1.00  0.00    -0.351 C  
BRANCH  30  31
HETATM   31  C   UNL     1      -9.825   3.197  73.335  1.00  0.00    -0.163 C  
BRANCH  31  32
HETATM   32  C   UNL     1     -10.079   2.422  72.043  1.00  0.00    -0.204 C  
BRANCH  32  33
HETATM   33  C   UNL     1      -8.774   1.909  71.439  1.00  0.00    -0.099 C  
HETATM   34  C   UNL     1      -7.569   2.490  72.159  1.00  0.00    -0.048 C  
ENDBRANCH  32  33
ENDBRANCH  31  32
ENDBRANCH  30  31
ENDBRANCH  29  30
ENDBRANCH  28  29
ENDBRANCH  27  28
ENDBRANCH  26  27
ENDBRANCH  25  26
ENDBRANCH  24  25
ENDBRANCH  23  24
ENDBRANCH  22  23
ENDBRANCH  20  22
ENDBRANCH  19  20
ENDBRANCH  18  19
BRANCH  18  35
HETATM   35  C   UNL     1     -10.983  12.246  66.375  1.00  0.00    -0.287 C  
BRANCH  35  36
HETATM   36  O   UNL     1     -10.630  12.898  65.147  1.00  0.00    -0.287 OA 
BRANCH  36  37
HETATM   37  P   UNL     1     -10.630  14.624  65.256  1.00  0.00    -0.439 P  
HETATM   38  O   UNL     1     -12.068  14.548  66.021  1.00  0.00    -0.364 OA 
HETATM   39  O   UNL     1      -9.472  14.498  66.225  1.00  0.00    -0.289 OA 
BRANCH  37  40
HETATM   40  O   UNL     1     -10.629  16.351  65.365  1.00  0.00    -0.480 OA 
BRANCH  40  41
HETATM   41  C   UNL     1     -10.209  16.934  66.633  1.00  0.00    -0.312 C  
BRANCH  41  42
HETATM   42  C   UNL     1      -8.988  17.892  66.625  1.00  0.00    -0.268 C  
HETATM   43  H   UNL     1      -7.206  17.975  65.767  1.00  0.00     0.000 HD 
HETATM   44  O   UNL     1      -7.954  17.388  65.772  1.00  0.00    -0.538 OA 
BRANCH  42  45
HETATM   45  C   UNL     1      -9.343  19.329  66.216  1.00  0.00    -0.339 C  
HETATM   46  O   UNL     1     -10.718  19.427  65.825  1.00  0.00    -0.481 OA 
HETATM   47  H   UNL     1     -10.937  20.316  65.572  1.00  0.00     0.000 HD 
ENDBRANCH  42  45
ENDBRANCH  41  42
ENDBRANCH  40  41
ENDBRANCH  37  40
ENDBRANCH  36  37
ENDBRANCH  35  36
ENDBRANCH  18  35
ENDBRANCH  17  18
ENDBRANCH  16  17
ENDBRANCH  14  16
ENDBRANCH  13  14
ENDBRANCH  12  13
ENDBRANCH  11  12
ENDBRANCH  10  11
ENDBRANCH   9  10
ENDBRANCH   8   9
ENDBRANCH   7   8
ENDBRANCH   6   7
ENDBRANCH   5   6
ENDBRANCH   4   5
ENDBRANCH   3   4
ENDBRANCH   2   3
TORSDOF 36
ENDMDL
MODEL        9
REMARK 921   NORMALIZED FREE ENERGY PREDICTED BY IDOCK:   -4.16 KCAL/MOL
REMARK 922        TOTAL FREE ENERGY PREDICTED BY IDOCK:  -18.38 KCAL/MOL
REMARK 923 INTER-LIGAND FREE ENERGY PREDICTED BY IDOCK:  -12.33 KCAL/MOL
REMARK 924 INTRA-LIGAND FREE ENERGY PREDICTED BY IDOCK:   -6.05 KCAL/MOL
REMARK 927      BINDING AFFINITY PREDICTED BY RF-SCORE:    0.00 PKD
ROOT
HETATM    1  C   UNL     1     -14.293  14.983  72.131  1.00  0.00    -0.622 C  
HETATM    2  C   UNL     1     -13.176  13.983  71.879  1.00  0.00    -0.477 C  
ENDROOT
BRANCH   2   3
HETATM    3  C   UNL     1     -12.082  14.583  70.998  1.00  0.00    -0.409 C  
BRANCH   3   4
HETATM    4  C   UNL     1     -12.151  14.038  69.572  1.00  0.00    -0.397 C  
BRANCH   4   5
HETATM    5  C   UNL     1     -12.147  12.510  69.570  1.00  0.00    -0.248 C  
BRANCH   5   6
HETATM    6  C   UNL     1     -11.208  11.958  68.499  1.00  0.00    -0.308 C  
BRANCH   6   7
HETATM    7  C   UNL     1      -9.974  12.845  68.342  1.00  0.00    -0.211 C  
BRANCH   7   8
HETATM    8  C   UNL     1      -9.221  12.521  67.055  1.00  0.00    -0.214 C  
BRANCH   8   9
HETATM    9  C   UNL     1      -7.712  12.637  67.252  1.00  0.00    -0.140 C  
BRANCH   9  10
HETATM   10  C   UNL     1      -7.387  13.126  68.663  1.00  0.00    -0.102 C  
BRANCH  10  11
HETATM   11  C   UNL     1      -6.424  12.186  69.385  1.00  0.00    -0.110 C  
BRANCH  11  12
HETATM   12  C   UNL     1      -6.451  10.802  68.737  1.00  0.00    -0.048 C  
BRANCH  12  13
HETATM   13  C   UNL     1      -7.316   9.823  69.522  1.00  0.00    -0.092 C  
BRANCH  13  14
HETATM   14  C   UNL     1      -6.513   8.601  69.902  1.00  0.00    -0.034 C  
HETATM   15  O   UNL     1      -5.731   8.538  70.841  1.00  0.00    -0.032 OA 
BRANCH  14  16
HETATM   16  O   UNL     1      -6.832   7.560  69.082  1.00  0.00    -0.053 OA 
BRANCH  16  17
HETATM   17  C   UNL     1      -8.157   7.616  68.526  1.00  0.00    -0.124 C  
BRANCH  17  18
HETATM   18  C   UNL     1      -8.515   6.310  67.803  1.00  0.00    -0.116 C  
BRANCH  18  19
HETATM   19  O   UNL     1      -9.009   6.638  66.482  1.00  0.00    -0.135 OA 
BRANCH  19  20
HETATM   20  C   UNL     1      -9.740   7.780  66.381  1.00  0.00    -0.149 C  
HETATM   21  O   UNL     1     -10.862   7.961  66.831  1.00  0.00    -0.288 OA 
BRANCH  20  22
HETATM   22  C   UNL     1      -8.955   8.832  65.639  1.00  0.00    -0.248 C  
BRANCH  22  23
HETATM   23  C   UNL     1      -9.870   9.791  64.886  1.00  0.00    -0.183 C  
BRANCH  23  24
HETATM   24  C   UNL     1      -9.115  10.631  63.853  1.00  0.00    -0.244 C  
BRANCH  24  25
HETATM   25  C   UNL     1      -9.933  11.851  63.433  1.00  0.00    -0.435 C  
BRANCH  25  26
HETATM   26  C   UNL     1     -11.424  11.527  63.414  1.00  0.00    -0.274 C  
BRANCH  26  27
HETATM   27  C   UNL     1     -12.263  12.750  63.776  1.00  0.00    -0.572 C  
BRANCH  27  28
HETATM   28  C   UNL     1     -12.555  12.785  65.274  1.00  0.00    -0.460 C  
BRANCH  28  29
HETATM   29  C   UNL     1     -12.293  14.173  65.853  1.00  0.00    -0.486 C  
BRANCH  29  30
HETATM   30  C   UNL     1     -11.509  15.037  64.869  1.00  0.00    -0.399 C  
BRANCH  30  31
HETATM   31  C   UNL     1     -10.107  15.337  65.395  1.00  0.00    -0.397 C  
BRANCH  31  32
HETATM   32  C   UNL     1     -10.083  16.654  66.170  1.00  0.00    -0.361 C  
BRANCH  32  33
HETATM   33  C   UNL     1      -9.980  16.408  67.674  1.00  0.00    -0.252 C  
HETATM   34  C   UNL     1      -8.959  17.333  68.314  1.00  0.00    -0.262 C  
ENDBRANCH  32  33
ENDBRANCH  31  32
ENDBRANCH  30  31
ENDBRANCH  29  30
ENDBRANCH  28  29
ENDBRANCH  27  28
ENDBRANCH  26  27
ENDBRANCH  25  26
ENDBRANCH  24  25
ENDBRANCH  23  24
ENDBRANCH  22  23
ENDBRANCH  20  22
ENDBRANCH  19  20
ENDBRANCH  18  19
BRANCH  18  35
HETATM   35  C   UNL     1      -9.639   5.603  68.556  1.00  0.00    -0.130 C  
BRANCH  35  36
HETATM   36  O   UNL     1      -9.281   5.379  69.928  1.00  0.00    -0.131 OA 
BRANCH  36  37
HETATM   37  P   UNL     1     -10.474   5.927  71.053  1.00  0.00    -0.257 P  
HETATM   38  O   UNL     1      -9.500   7.180  71.431  1.00  0.00    -0.161 OA 
HETATM   39  O   UNL     1     -11.357   6.244  69.863  1.00  0.00    -0.397 OA 
BRANCH  37  40
HETATM   40  O   UNL     1     -11.668   6.476  72.179  1.00  0.00    -0.294 OA 
BRANCH  40  41
HETATM   41  C   UNL     1     -11.561   7.856  72.635  1.00  0.00    -0.377 C  
BRANCH  41  42
HETATM   42  C   UNL     1     -12.544   8.898  72.037  1.00  0.00    -0.394 C  
HETATM   43  H   UNL     1     -12.679  10.002  70.400  1.00  0.00     0.000 HD 
HETATM   44  O   UNL     1     -12.077   9.364  70.767  1.00  0.00    -0.276 OA 
BRANCH  42  45
HETATM   45  C   UNL     1     -13.981   8.375  71.901  1.00  0.00    -0.421 C  
HETATM   46  O   UNL     1     -14.060   7.344  70.908  1.00  0.00    -0.615 OA 
HETATM   47  H   UNL     1     -14.949   7.020  70.824  1.00  0.00     0.000 HD 
ENDBRANCH  42  45
ENDBRANCH  41  42
ENDBRANCH  40  41
ENDBRANCH  37  40
ENDBRANCH  36  37
ENDBRANCH  35  36
ENDBRANCH  18  35
ENDBRANCH  17  18
ENDBRANCH  16  17
ENDBRANCH  14  16
ENDBRANCH  13  14
ENDBRANCH  12  13
ENDBRANCH  11  12
ENDBRANCH  10  11
ENDBRANCH   9  10
ENDBRANCH   8   9
ENDBRANCH   7   8
ENDBRANCH   6   7
ENDBRANCH   5   6
ENDBRANCH   4   5
ENDBRANCH   3   4
ENDBRANCH   2   3
TORSDOF 36
ENDMDL
MODEL       10
REMARK 921   NORMALIZED FREE ENERGY PREDICTED BY IDOCK:   -4.09 KCAL/MOL
REMARK 922        TOTAL FREE ENERGY PREDICTED BY IDOCK:  -18.17 KCAL/MOL
REMARK 923 INTER-LIGAND FREE ENERGY PREDICTED BY IDOCK:  -13.11 KCAL/MOL
REMARK 924 INTRA-LIGAND FREE ENERGY PREDICTED BY IDOCK:   -5.06 KCAL/MOL
REMARK 927      BINDING AFFINITY PREDICTED BY RF-SCORE:    0.00 PKD
ROOT
HETATM    1  C   UNL     1     -14.199  13.578  72.071  1.00  0.00    -0.295 C  
HETATM    2  C   UNL     1     -13.183  14.133  73.057  1.00  0.00    -0.436 C  
ENDROOT
BRANCH   2   3
HETATM    3  C   UNL     1     -13.228  15.659  73.100  1.00  0.00    -0.674 C  
BRANCH   3   4
HETATM    4  C   UNL     1     -11.938  16.271  72.557  1.00  0.00    -0.648 C  
BRANCH   4   5
HETATM    5  C   UNL     1     -11.349  15.406  71.444  1.00  0.00    -0.449 C  
BRANCH   5   6
HETATM    6  C   UNL     1     -11.446  16.102  70.087  1.00  0.00    -0.309 C  
BRANCH   6   7
HETATM    7  C   UNL     1     -11.754  15.097  68.978  1.00  0.00    -0.358 C  
BRANCH   7   8
HETATM    8  C   UNL     1     -11.631  13.663  69.483  1.00  0.00    -0.361 C  
BRANCH   8   9
HETATM    9  C   UNL     1     -11.909  12.658  68.368  1.00  0.00    -0.347 C  
BRANCH   9  10
HETATM   10  C   UNL     1     -12.153  11.264  68.945  1.00  0.00    -0.292 C  
BRANCH  10  11
HETATM   11  C   UNL     1     -12.052  11.253  70.469  1.00  0.00    -0.481 C  
BRANCH  11  12
HETATM   12  C   UNL     1     -11.644   9.865  70.961  1.00  0.00    -0.470 C  
BRANCH  12  13
HETATM   13  C   UNL     1     -10.791   9.125  69.937  1.00  0.00    -0.242 C  
BRANCH  13  14
HETATM   14  C   UNL     1      -9.336   9.500  70.095  1.00  0.00    -0.247 C  
HETATM   15  O   UNL     1      -8.621   9.163  71.029  1.00  0.00    -0.202 OA 
BRANCH  14  16
HETATM   16  O   UNL     1      -8.921  10.221  69.015  1.00  0.00    -0.152 OA 
BRANCH  16  17
HETATM   17  C   UNL     1      -7.592   9.912  68.561  1.00  0.00    -0.080 C  
BRANCH  17  18
HETATM   18  C   UNL     1      -7.620   8.960  67.358  1.00  0.00    -0.089 C  
BRANCH  18  19
HETATM   19  O   UNL     1      -8.910   9.074  66.712  1.00  0.00    -0.123 OA 
BRANCH  19  20
HETATM   20  C   UNL     1      -8.898   9.488  65.417  1.00  0.00    -0.178 C  
HETATM   21  O   UNL     1      -8.039   9.234  64.586  1.00  0.00    -0.121 OA 
BRANCH  20  22
HETATM   22  C   UNL     1     -10.132  10.304  65.124  1.00  0.00    -0.355 C  
BRANCH  22  23
HETATM   23  C   UNL     1     -10.014  11.048  63.799  1.00  0.00    -0.404 C  
BRANCH  23  24
HETATM   24  C   UNL     1     -11.124  12.084  63.607  1.00  0.00    -0.525 C  
BRANCH  24  25
HETATM   25  C   UNL     1     -11.359  12.882  64.888  1.00  0.00    -0.340 C  
BRANCH  25  26
HETATM   26  C   UNL     1     -10.236  13.890  65.117  1.00  0.00    -0.382 C  
BRANCH  26  27
HETATM   27  C   UNL     1     -10.729  15.322  64.928  1.00  0.00    -0.423 C  
BRANCH  27  28
HETATM   28  C   UNL     1     -10.390  16.178  66.145  1.00  0.00    -0.350 C  
BRANCH  28  29
HETATM   29  C   UNL     1      -8.926  16.012  66.544  1.00  0.00    -0.327 C  
BRANCH  29  30
HETATM   30  C   UNL     1      -8.273  17.366  66.808  1.00  0.00    -0.279 C  
BRANCH  30  31
HETATM   31  C   UNL     1      -8.609  17.876  68.208  1.00  0.00    -0.277 C  
BRANCH  31  32
HETATM   32  C   UNL     1      -9.582  19.052  68.145  1.00  0.00    -0.395 C  
BRANCH  32  33
HETATM   33  C   UNL     1      -9.308  19.932  66.927  1.00  0.00    -0.493 C  
HETATM   34  C   UNL     1     -10.490  19.934  65.973  1.00  0.00    -0.580 C  
ENDBRANCH  32  33
ENDBRANCH  31  32
ENDBRANCH  30  31
ENDBRANCH  29  30
ENDBRANCH  28  29
ENDBRANCH  27  28
ENDBRANCH  26  27
ENDBRANCH  25  26
ENDBRANCH  24  25
ENDBRANCH  23  24
ENDBRANCH  22  23
ENDBRANCH  20  22
ENDBRANCH  19  20
ENDBRANCH  18  19
BRANCH  18  35
HETATM   35  C   UNL     1      -7.470   7.520  67.845  1.00  0.00    -0.105 C  
BRANCH  35  36
HETATM   36  O   UNL     1      -8.405   6.653  67.189  1.00  0.00    -0.112 OA 
BRANCH  36  37
HETATM   37  P   UNL     1      -9.171   5.527  68.255  1.00  0.00    -0.114 P  
HETATM   38  O   UNL     1      -8.277   6.126  69.482  1.00  0.00    -0.113 OA 
HETATM   39  O   UNL     1     -10.452   6.312  68.060  1.00  0.00    -0.172 OA 
BRANCH  37  40
HETATM   40  O   UNL     1      -9.936   4.400  69.323  1.00  0.00    -0.183 OA 
BRANCH  40  41
HETATM   41  C   UNL     1     -10.480   4.933  70.566  1.00  0.00    -0.100 C  
BRANCH  41  42
HETATM   42  C   UNL     1     -10.207   4.146  71.876  1.00  0.00    -0.110 C  
HETATM   43  H   UNL     1      -9.824   2.276  72.400  1.00  0.00     0.000 HD 
HETATM   44  O   UNL     1      -9.991   2.758  71.598  1.00  0.00    -0.163 OA 
BRANCH  42  45
HETATM   45  C   UNL     1      -9.027   4.701  72.687  1.00  0.00    -0.123 C  
HETATM   46  O   UNL     1      -8.767   6.069  72.344  1.00  0.00    -0.127 OA 
HETATM   47  H   UNL     1      -8.037   6.412  72.846  1.00  0.00     0.000 HD 
ENDBRANCH  42  45
ENDBRANCH  41  42
ENDBRANCH  40  41
ENDBRANCH  37  40
ENDBRANCH  36  37
ENDBRANCH  35  36
ENDBRANCH  18  35
ENDBRANCH  17  18
ENDBRANCH  16  17
ENDBRANCH  14  16
ENDBRANCH  13  14
ENDBRANCH  12  13
ENDBRANCH  11  12
ENDBRANCH  10  11
ENDBRANCH   9  10
ENDBRANCH   8   9
ENDBRANCH   7   8
ENDBRANCH   6   7
ENDBRANCH   5   6
ENDBRANCH   4   5
ENDBRANCH   3   4
ENDBRANCH   2   3
TORSDOF 36
ENDMDL
MODEL       11
REMARK 921   NORMALIZED FREE ENERGY PREDICTED BY IDOCK:   -4.08 KCAL/MOL
REMARK 922        TOTAL FREE ENERGY PREDICTED BY IDOCK:  -18.15 KCAL/MOL
REMARK 923 INTER-LIGAND FREE ENERGY PREDICTED BY IDOCK:  -12.10 KCAL/MOL
REMARK 924 INTRA-LIGAND FREE ENERGY PREDICTED BY IDOCK:   -6.04 KCAL/MOL
REMARK 927      BINDING AFFINITY PREDICTED BY RF-SCORE:    0.00 PKD
ROOT
HETATM    1  C   UNL     1     -12.877  13.683  65.337  1.00  0.00    -0.440 C  
HETATM    2  C   UNL     1     -12.280  13.408  63.967  1.00  0.00    -0.466 C  
ENDROOT
BRANCH   2   3
HETATM    3  C   UNL     1     -11.928  11.931  63.801  1.00  0.00    -0.547 C  
BRANCH   3   4
HETATM    4  C   UNL     1     -10.829  11.506  64.774  1.00  0.00    -0.360 C  
BRANCH   4   5
HETATM    5  C   UNL     1      -9.921  10.450  64.145  1.00  0.00    -0.337 C  
BRANCH   5   6
HETATM    6  C   UNL     1      -8.712  10.156  65.032  1.00  0.00    -0.190 C  
BRANCH   6   7
HETATM    7  C   UNL     1      -7.733   9.217  64.329  1.00  0.00    -0.119 C  
BRANCH   7   8
HETATM    8  C   UNL     1      -8.005   7.761  64.697  1.00  0.00    -0.136 C  
BRANCH   8   9
HETATM    9  C   UNL     1      -8.250   7.605  66.195  1.00  0.00    -0.124 C  
BRANCH   9  10
HETATM   10  C   UNL     1      -9.384   6.615  66.457  1.00  0.00    -0.191 C  
BRANCH  10  11
HETATM   11  C   UNL     1     -10.647   7.314  66.956  1.00  0.00    -0.415 C  
BRANCH  11  12
HETATM   12  C   UNL     1     -10.340   8.129  68.212  1.00  0.00    -0.241 C  
BRANCH  12  13
HETATM   13  C   UNL     1     -10.726   9.595  68.048  1.00  0.00    -0.284 C  
BRANCH  13  14
HETATM   14  C   UNL     1     -10.077  10.432  69.126  1.00  0.00    -0.222 C  
HETATM   15  O   UNL     1      -8.882  10.440  69.385  1.00  0.00    -0.167 OA 
BRANCH  14  16
HETATM   16  O   UNL     1     -11.012  11.222  69.728  1.00  0.00    -0.210 OA 
BRANCH  16  17
HETATM   17  C   UNL     1     -12.359  10.725  69.651  1.00  0.00    -0.192 C  
BRANCH  17  18
HETATM   18  C   UNL     1     -13.116  10.961  70.965  1.00  0.00    -0.206 C  
BRANCH  18  19
HETATM   19  O   UNL     1     -12.418  11.978  71.721  1.00  0.00    -0.086 OA 
BRANCH  19  20
HETATM   20  C   UNL     1     -13.080  13.151  71.903  1.00  0.00    -0.385 C  
HETATM   21  O   UNL     1     -14.167  13.291  72.444  1.00  0.00    -0.603 OA 
BRANCH  20  22
HETATM   22  C   UNL     1     -12.263  14.295  71.355  1.00  0.00    -0.408 C  
BRANCH  22  23
HETATM   23  C   UNL     1     -12.411  14.419  69.843  1.00  0.00    -0.311 C  
BRANCH  23  24
HETATM   24  C   UNL     1     -12.248  15.860  69.355  1.00  0.00    -0.080 C  
BRANCH  24  25
HETATM   25  C   UNL     1     -10.791  16.309  69.444  1.00  0.00    -0.331 C  
BRANCH  25  26
HETATM   26  C   UNL     1     -10.527  17.493  68.518  1.00  0.00    -0.361 C  
BRANCH  26  27
HETATM   27  C   UNL     1      -9.077  17.516  68.045  1.00  0.00    -0.269 C  
BRANCH  27  28
HETATM   28  C   UNL     1      -8.990  17.254  66.544  1.00  0.00    -0.294 C  
BRANCH  28  29
HETATM   29  C   UNL     1     -10.133  16.358  66.075  1.00  0.00    -0.373 C  
BRANCH  29  30
HETATM   30  C   UNL     1      -9.639  14.941  65.796  1.00  0.00    -0.311 C  
BRANCH  30  31
HETATM   31  C   UNL     1      -9.706  14.077  67.054  1.00  0.00    -0.256 C  
BRANCH  31  32
HETATM   32  C   UNL     1      -8.412  13.288  67.246  1.00  0.00    -0.203 C  
BRANCH  32  33
HETATM   33  C   UNL     1      -7.240  14.215  67.564  1.00  0.00    -0.188 C  
HETATM   34  C   UNL     1      -7.194  14.557  69.043  1.00  0.00    -0.130 C  
ENDBRANCH  32  33
ENDBRANCH  31  32
ENDBRANCH  30  31
ENDBRANCH  29  30
ENDBRANCH  28  29
ENDBRANCH  27  28
ENDBRANCH  26  27
ENDBRANCH  25  26
ENDBRANCH  24  25
ENDBRANCH  23  24
ENDBRANCH  22  23
ENDBRANCH  20  22
ENDBRANCH  19  20
ENDBRANCH  18  19
BRANCH  18  35
HETATM   35  C   UNL     1     -13.109   9.678  71.793  1.00  0.00    -0.421 C  
BRANCH  35  36
HETATM   36  O   UNL     1     -11.771   9.203  71.998  1.00  0.00    -0.357 OA 
BRANCH  36  37
HETATM   37  P   UNL     1     -11.588   7.507  71.712  1.00  0.00    -0.298 P  
HETATM   38  O   UNL     1     -11.200   7.313  73.285  1.00  0.00    -0.290 OA 
HETATM   39  O   UNL     1     -13.086   7.448  71.493  1.00  0.00    -0.359 OA 
BRANCH  37  40
HETATM   40  O   UNL     1     -11.404   5.810  71.426  1.00  0.00    -0.225 OA 
BRANCH  40  41
HETATM   41  C   UNL     1     -10.265   5.396  70.618  1.00  0.00    -0.253 C  
BRANCH  41  42
HETATM   42  C   UNL     1      -9.208   4.466  71.272  1.00  0.00    -0.137 C  
HETATM   43  H   UNL     1      -7.299   4.015  71.007  1.00  0.00     0.000 HD 
HETATM   44  O   UNL     1      -7.946   4.584  70.606  1.00  0.00    -0.059 OA 
BRANCH  42  45
HETATM   45  C   UNL     1      -9.025   4.713  72.777  1.00  0.00    -0.119 C  
HETATM   46  O   UNL     1     -10.247   4.476  73.488  1.00  0.00    -0.151 OA 
HETATM   47  H   UNL     1     -10.134   4.629  74.419  1.00  0.00     0.000 HD 
ENDBRANCH  42  45
ENDBRANCH  41  42
ENDBRANCH  40  41
ENDBRANCH  37  40
ENDBRANCH  36  37
ENDBRANCH  35  36
ENDBRANCH  18  35
ENDBRANCH  17  18
ENDBRANCH  16  17
ENDBRANCH  14  16
ENDBRANCH  13  14
ENDBRANCH  12  13
ENDBRANCH  11  12
ENDBRANCH  10  11
ENDBRANCH   9  10
ENDBRANCH   8   9
ENDBRANCH   7   8
ENDBRANCH   6   7
ENDBRANCH   5   6
ENDBRANCH   4   5
ENDBRANCH   3   4
ENDBRANCH   2   3
TORSDOF 36
ENDMDL
MODEL       12
REMARK 921   NORMALIZED FREE ENERGY PREDICTED BY IDOCK:   -4.00 KCAL/MOL
REMARK 922        TOTAL FREE ENERGY PREDICTED BY IDOCK:  -17.88 KCAL/MOL
REMARK 923 INTER-LIGAND FREE ENERGY PREDICTED BY IDOCK:  -13.44 KCAL/MOL
REMARK 924 INTRA-LIGAND FREE ENERGY PREDICTED BY IDOCK:   -4.44 KCAL/MOL
REMARK 927      BINDING AFFINITY PREDICTED BY RF-SCORE:    0.00 PKD
ROOT
HETATM    1  C   UNL     1      -5.354   7.131  68.371  1.00  0.00    -0.021 C  
HETATM    2  C   UNL     1      -6.127   8.376  68.776  1.00  0.00    -0.044 C  
ENDROOT
BRANCH   2   3
HETATM    3  C   UNL     1      -6.079   8.592  70.287  1.00  0.00    -0.033 C  
BRANCH   3   4
HETATM    4  C   UNL     1      -7.386   9.190  70.807  1.00  0.00    -0.120 C  
BRANCH   4   5
HETATM    5  C   UNL     1      -7.903   8.407  72.012  1.00  0.00    -0.171 C  
BRANCH   5   6
HETATM    6  C   UNL     1      -6.766   8.030  72.961  1.00  0.00    -0.101 C  
BRANCH   6   7
HETATM    7  C   UNL     1      -6.924   6.595  73.463  1.00  0.00    -0.076 C  
BRANCH   7   8
HETATM    8  C   UNL     1      -7.666   5.734  72.445  1.00  0.00    -0.102 C  
BRANCH   8   9
HETATM    9  C   UNL     1      -6.693   5.026  71.505  1.00  0.00    -0.040 C  
BRANCH   9  10
HETATM   10  C   UNL     1      -7.395   4.612  70.212  1.00  0.00    -0.050 C  
BRANCH  10  11
HETATM   11  C   UNL     1      -8.750   5.299  70.054  1.00  0.00    -0.128 C  
BRANCH  11  12
HETATM   12  C   UNL     1      -9.637   4.506  69.096  1.00  0.00    -0.251 C  
BRANCH  12  13
HETATM   13  C   UNL     1      -9.268   4.757  67.638  1.00  0.00    -0.144 C  
BRANCH  13  14
HETATM   14  C   UNL     1     -10.421   5.405  66.908  1.00  0.00    -0.277 C  
HETATM   15  O   UNL     1     -10.819   5.085  65.796  1.00  0.00    -0.211 OA 
BRANCH  14  16
HETATM   16  O   UNL     1     -10.992   6.362  67.695  1.00  0.00    -0.310 OA 
BRANCH  16  17
HETATM   17  C   UNL     1     -10.759   7.713  67.264  1.00  0.00    -0.274 C  
BRANCH  17  18
HETATM   18  C   UNL     1     -10.170   8.567  68.395  1.00  0.00    -0.203 C  
BRANCH  18  19
HETATM   19  O   UNL     1     -11.255   9.029  69.234  1.00  0.00    -0.019 OA 
BRANCH  19  20
HETATM   20  C   UNL     1     -11.284   8.539  70.502  1.00  0.00    -0.242 C  
HETATM   21  O   UNL     1     -11.245   7.360  70.822  1.00  0.00    -0.260 OA 
BRANCH  20  22
HETATM   22  C   UNL     1     -11.351   9.674  71.493  1.00  0.00    -0.420 C  
BRANCH  22  23
HETATM   23  C   UNL     1     -12.724  10.334  71.501  1.00  0.00    -0.557 C  
BRANCH  23  24
HETATM   24  C   UNL     1     -12.672  11.801  71.065  1.00  0.00    -0.372 C  
BRANCH  24  25
HETATM   25  C   UNL     1     -13.419  12.695  72.053  1.00  0.00    -0.516 C  
BRANCH  25  26
HETATM   26  C   UNL     1     -13.268  14.166  71.680  1.00  0.00    -0.426 C  
BRANCH  26  27
HETATM   27  C   UNL     1     -11.911  14.439  71.036  1.00  0.00    -0.389 C  
BRANCH  27  28
HETATM   28  C   UNL     1     -11.881  15.827  70.400  1.00  0.00    -0.391 C  
BRANCH  28  29
HETATM   29  C   UNL     1     -10.583  16.048  69.627  1.00  0.00    -0.311 C  
BRANCH  29  30
HETATM   30  C   UNL     1     -10.782  17.063  68.505  1.00  0.00    -0.352 C  
BRANCH  30  31
HETATM   31  C   UNL     1      -9.833  18.251  68.661  1.00  0.00    -0.400 C  
BRANCH  31  32
HETATM   32  C   UNL     1     -10.406  19.501  67.995  1.00  0.00    -0.564 C  
BRANCH  32  33
HETATM   33  C   UNL     1      -9.351  20.209  67.148  1.00  0.00    -0.521 C  
HETATM   34  C   UNL     1      -8.031  20.321  67.893  1.00  0.00    -0.216 C  
ENDBRANCH  32  33
ENDBRANCH  31  32
ENDBRANCH  30  31
ENDBRANCH  29  30
ENDBRANCH  28  29
ENDBRANCH  27  28
ENDBRANCH  26  27
ENDBRANCH  25  26
ENDBRANCH  24  25
ENDBRANCH  23  24
ENDBRANCH  22  23
ENDBRANCH  20  22
ENDBRANCH  19  20
ENDBRANCH  18  19
BRANCH  18  35
HETATM   35  C   UNL     1      -9.485   9.796  67.802  1.00  0.00    -0.133 C  
BRANCH  35  36
HETATM   36  O   UNL     1      -9.582   9.802  66.371  1.00  0.00    -0.174 OA 
BRANCH  36  37
HETATM   37  P   UNL     1      -9.805  11.379  65.699  1.00  0.00    -0.254 P  
HETATM   38  O   UNL     1     -10.364  10.686  64.332  1.00  0.00    -0.363 OA 
HETATM   39  O   UNL     1     -10.910  11.586  66.715  1.00  0.00    -0.257 OA 
BRANCH  37  40
HETATM   40  O   UNL     1     -10.028  12.958  65.025  1.00  0.00    -0.237 OA 
BRANCH  40  41
HETATM   41  C   UNL     1     -11.117  13.122  64.071  1.00  0.00    -0.361 C  
BRANCH  41  42
HETATM   42  C   UNL     1     -12.133  14.269  64.318  1.00  0.00    -0.441 C  
HETATM   43  H   UNL     1     -13.764  14.564  65.400  1.00  0.00     0.000 HD 
HETATM   44  O   UNL     1     -13.141  13.862  65.249  1.00  0.00    -0.777 OA 
BRANCH  42  45
HETATM   45  C   UNL     1     -11.479  15.572  64.799  1.00  0.00    -0.313 C  
HETATM   46  O   UNL     1     -11.526  16.577  63.778  1.00  0.00    -1.615 OA 
HETATM   47  H   UNL     1     -11.121  17.383  64.076  1.00  0.00     0.000 HD 
ENDBRANCH  42  45
ENDBRANCH  41  42
ENDBRANCH  40  41
ENDBRANCH  37  40
ENDBRANCH  36  37
ENDBRANCH  35  36
ENDBRANCH  18  35
ENDBRANCH  17  18
ENDBRANCH  16  17
ENDBRANCH  14  16
ENDBRANCH  13  14
ENDBRANCH  12  13
ENDBRANCH  11  12
ENDBRANCH  10  11
ENDBRANCH   9  10
ENDBRANCH   8   9
ENDBRANCH   7   8
ENDBRANCH   6   7
ENDBRANCH   5   6
ENDBRANCH   4   5
ENDBRANCH   3   4
ENDBRANCH   2   3
TORSDOF 36
ENDMDL
MODEL       13
REMARK 921   NORMALIZED FREE ENERGY PREDICTED BY IDOCK:   -3.99 KCAL/MOL
REMARK 922        TOTAL FREE ENERGY PREDICTED BY IDOCK:  -17.85 KCAL/MOL
REMARK 923 INTER-LIGAND FREE ENERGY PREDICTED BY IDOCK:  -11.93 KCAL/MOL
REMARK 924 INTRA-LIGAND FREE ENERGY PREDICTED BY IDOCK:   -5.92 KCAL/MOL
REMARK 927      BINDING AFFINITY PREDICTED BY RF-SCORE:    0.00 PKD
ROOT
HETATM    1  C   UNL     1      -5.964  20.042  68.053  1.00  0.00    -0.258 C  
HETATM    2  C   UNL     1      -7.307  19.531  68.548  1.00  0.00    -0.368 C  
ENDROOT
BRANCH   2   3
HETATM    3  C   UNL     1      -7.326  18.005  68.624  1.00  0.00    -0.286 C  
BRANCH   3   4
HETATM    4  C   UNL     1      -6.976  17.375  67.276  1.00  0.00    -0.194 C  
BRANCH   4   5
HETATM    5  C   UNL     1      -7.022  15.850  67.358  1.00  0.00    -0.233 C  
BRANCH   5   6
HETATM    6  C   UNL     1      -7.781  15.382  68.599  1.00  0.00    -0.143 C  
BRANCH   6   7
HETATM    7  C   UNL     1      -7.789  13.857  68.694  1.00  0.00    -0.120 C  
BRANCH   7   8
HETATM    8  C   UNL     1      -7.661  13.219  67.314  1.00  0.00    -0.079 C  
BRANCH   8   9
HETATM    9  C   UNL     1      -6.873  11.913  67.379  1.00  0.00    -0.130 C  
BRANCH   9  10
HETATM   10  C   UNL     1      -7.606  10.801  66.629  1.00  0.00    -0.134 C  
BRANCH  10  11
HETATM   11  C   UNL     1      -9.119  10.897  66.805  1.00  0.00    -0.164 C  
BRANCH  11  12
HETATM   12  C   UNL     1      -9.757   9.516  66.660  1.00  0.00    -0.270 C  
BRANCH  12  13
HETATM   13  C   UNL     1     -10.636   9.166  67.856  1.00  0.00    -0.272 C  
BRANCH  13  14
HETATM   14  C   UNL     1     -10.727   7.667  68.021  1.00  0.00    -0.087 C  
HETATM   15  O   UNL     1     -10.880   6.868  67.107  1.00  0.00    -0.329 OA 
BRANCH  14  16
HETATM   16  O   UNL     1     -10.555   7.331  69.331  1.00  0.00    -0.222 OA 
BRANCH  16  17
HETATM   17  C   UNL     1     -11.639   6.581  69.907  1.00  0.00    -0.368 C  
BRANCH  17  18
HETATM   18  C   UNL     1     -12.031   7.133  71.284  1.00  0.00    -0.337 C  
BRANCH  18  19
HETATM   19  O   UNL     1     -11.689   8.539  71.329  1.00  0.00    -0.271 OA 
BRANCH  19  20
HETATM   20  C   UNL     1     -12.700   9.393  71.643  1.00  0.00    -0.374 C  
HETATM   21  O   UNL     1     -13.480   9.276  72.576  1.00  0.00    -0.464 OA 
BRANCH  20  22
HETATM   22  C   UNL     1     -12.719  10.549  70.675  1.00  0.00    -0.441 C  
BRANCH  22  23
HETATM   23  C   UNL     1     -12.804  11.887  71.399  1.00  0.00    -0.411 C  
BRANCH  23  24
HETATM   24  C   UNL     1     -12.242  13.041  70.565  1.00  0.00    -0.392 C  
BRANCH  24  25
HETATM   25  C   UNL     1     -11.811  12.560  69.181  1.00  0.00    -0.348 C  
BRANCH  25  26
HETATM   26  C   UNL     1     -11.534  13.741  68.254  1.00  0.00    -0.348 C  
BRANCH  26  27
HETATM   27  C   UNL     1     -12.194  13.545  66.893  1.00  0.00    -0.377 C  
BRANCH  27  28
HETATM   28  C   UNL     1     -11.144  13.400  65.795  1.00  0.00    -0.295 C  
BRANCH  28  29
HETATM   29  C   UNL     1     -11.012  14.688  64.986  1.00  0.00    -0.415 C  
BRANCH  29  30
HETATM   30  C   UNL     1      -9.932  15.593  65.571  1.00  0.00    -0.364 C  
BRANCH  30  31
HETATM   31  C   UNL     1     -10.455  17.014  65.778  1.00  0.00    -0.261 C  
BRANCH  31  32
HETATM   32  C   UNL     1     -10.659  17.311  67.263  1.00  0.00    -0.283 C  
BRANCH  32  33
HETATM   33  C   UNL     1     -10.778  18.812  67.515  1.00  0.00    -0.474 C  
HETATM   34  C   UNL     1     -10.514  19.606  66.247  1.00  0.00    -0.621 C  
ENDBRANCH  32  33
ENDBRANCH  31  32
ENDBRANCH  30  31
ENDBRANCH  29  30
ENDBRANCH  28  29
ENDBRANCH  27  28
ENDBRANCH  26  27
ENDBRANCH  25  26
ENDBRANCH  24  25
ENDBRANCH  23  24
ENDBRANCH  22  23
ENDBRANCH  20  22
ENDBRANCH  19  20
ENDBRANCH  18  19
BRANCH  18  35
HETATM   35  C   UNL     1     -11.222   6.423  72.366  1.00  0.00    -0.277 C  
BRANCH  35  36
HETATM   36  O   UNL     1     -10.413   7.353  73.101  1.00  0.00    -0.283 OA 
BRANCH  36  37
HETATM   37  P   UNL     1      -8.750   7.348  72.627  1.00  0.00    -0.140 P  
HETATM   38  O   UNL     1      -8.485   8.591  73.650  1.00  0.00    -0.353 OA 
HETATM   39  O   UNL     1      -8.622   6.010  73.327  1.00  0.00    -0.118 OA 
BRANCH  37  40
HETATM   40  O   UNL     1      -7.085   7.344  72.154  1.00  0.00    -0.065 OA 
BRANCH  40  41
HETATM   41  C   UNL     1      -6.393   8.626  72.160  1.00  0.00    -0.072 C  
BRANCH  41  42
HETATM   42  C   UNL     1      -6.444   9.486  70.869  1.00  0.00    -0.094 C  
HETATM   43  H   UNL     1      -5.953  11.324  70.322  1.00  0.00     0.000 HD 
HETATM   44  O   UNL     1      -5.922  10.798  71.113  1.00  0.00    -0.342 OA 
BRANCH  42  45
HETATM   45  C   UNL     1      -5.709   8.849  69.681  1.00  0.00    -0.033 C  
HETATM   46  O   UNL     1      -5.304   7.509  69.987  1.00  0.00    -0.023 OA 
HETATM   47  H   UNL     1      -4.849   7.115  69.252  1.00  0.00     0.000 HD 
ENDBRANCH  42  45
ENDBRANCH  41  42
ENDBRANCH  40  41
ENDBRANCH  37  40
ENDBRANCH  36  37
ENDBRANCH  35  36
ENDBRANCH  18  35
ENDBRANCH  17  18
ENDBRANCH  16  17
ENDBRANCH  14  16
ENDBRANCH  13  14
ENDBRANCH  12  13
ENDBRANCH  11  12
ENDBRANCH  10  11
ENDBRANCH   9  10
ENDBRANCH   8   9
ENDBRANCH   7   8
ENDBRANCH   6   7
ENDBRANCH   5   6
ENDBRANCH   4   5
ENDBRANCH   3   4
ENDBRANCH   2   3
TORSDOF 36
ENDMDL
MODEL       14
REMARK 921   NORMALIZED FREE ENERGY PREDICTED BY IDOCK:   -3.92 KCAL/MOL
REMARK 922        TOTAL FREE ENERGY PREDICTED BY IDOCK:  -17.63 KCAL/MOL
REMARK 923 INTER-LIGAND FREE ENERGY PREDICTED BY IDOCK:   -9.93 KCAL/MOL
REMARK 924 INTRA-LIGAND FREE ENERGY PREDICTED BY IDOCK:   -7.70 KCAL/MOL
REMARK 927      BINDING AFFINITY PREDICTED BY RF-SCORE:    0.00 PKD
ROOT
HETATM    1  C   UNL     1      -8.368  14.093  67.815  1.00  0.00    -0.175 C  
HETATM    2  C   UNL     1      -7.652  12.843  67.330  1.00  0.00    -0.150 C  
ENDROOT
BRANCH   2   3
HETATM    3  C   UNL     1      -8.524  11.601  67.505  1.00  0.00    -0.150 C  
BRANCH   3   4
HETATM    4  C   UNL     1      -7.951  10.661  68.565  1.00  0.00    -0.122 C  
BRANCH   4   5
HETATM    5  C   UNL     1      -7.951   9.215  68.070  1.00  0.00    -0.101 C  
BRANCH   5   6
HETATM    6  C   UNL     1      -7.839   9.148  66.548  1.00  0.00    -0.100 C  
BRANCH   6   7
HETATM    7  C   UNL     1      -8.915   8.235  65.960  1.00  0.00    -0.224 C  
BRANCH   7   8
HETATM    8  C   UNL     1     -10.274   8.500  66.601  1.00  0.00    -0.345 C  
BRANCH   8   9
HETATM    9  C   UNL     1     -10.968   7.195  66.984  1.00  0.00    -0.304 C  
BRANCH   9  10
HETATM   10  C   UNL     1      -9.968   6.040  67.016  1.00  0.00    -0.197 C  
BRANCH  10  11
HETATM   11  C   UNL     1     -10.145   5.167  68.256  1.00  0.00    -0.199 C  
BRANCH  11  12
HETATM   12  C   UNL     1      -9.985   6.008  69.522  1.00  0.00    -0.225 C  
BRANCH  12  13
HETATM   13  C   UNL     1     -11.226   5.948  70.406  1.00  0.00    -0.307 C  
BRANCH  13  14
HETATM   14  C   UNL     1     -10.858   5.487  71.797  1.00  0.00    -0.211 C  
HETATM   15  O   UNL     1     -11.619   5.467  72.755  1.00  0.00    -0.308 OA 
BRANCH  14  16
HETATM   16  O   UNL     1      -9.570   5.040  71.815  1.00  0.00    -0.146 OA 
BRANCH  16  17
HETATM   17  C   UNL     1      -8.827   5.394  72.994  1.00  0.00    -0.120 C  
BRANCH  17  18
HETATM   18  C   UNL     1      -7.454   5.978  72.634  1.00  0.00    -0.095 C  
BRANCH  18  19
HETATM   19  O   UNL     1      -7.657   7.174  71.845  1.00  0.00    -0.085 OA 
BRANCH  19  20
HETATM   20  C   UNL     1      -8.254   8.218  72.480  1.00  0.00    -0.164 C  
HETATM   21  O   UNL     1      -8.038   8.586  73.625  1.00  0.00    -0.381 OA 
BRANCH  20  22
HETATM   22  C   UNL     1      -9.230   8.897  71.551  1.00  0.00    -0.322 C  
BRANCH  22  23
HETATM   23  C   UNL     1     -10.631   8.952  72.150  1.00  0.00    -0.323 C  
BRANCH  23  24
HETATM   24  C   UNL     1     -11.621   9.703  71.257  1.00  0.00    -0.466 C  
BRANCH  24  25
HETATM   25  C   UNL     1     -11.143   9.728  69.806  1.00  0.00    -0.272 C  
BRANCH  25  26
HETATM   26  C   UNL     1     -11.868  10.809  69.011  1.00  0.00    -0.325 C  
BRANCH  26  27
HETATM   27  C   UNL     1     -11.721  12.177  69.671  1.00  0.00    -0.396 C  
BRANCH  27  28
HETATM   28  C   UNL     1     -11.850  13.295  68.640  1.00  0.00    -0.380 C  
BRANCH  28  29
HETATM   29  C   UNL     1     -11.863  12.734  67.220  1.00  0.00    -0.414 C  
BRANCH  29  30
HETATM   30  C   UNL     1     -12.182  13.827  66.203  1.00  0.00    -0.499 C  
BRANCH  30  31
HETATM   31  C   UNL     1     -11.242  13.753  65.001  1.00  0.00    -0.339 C  
BRANCH  31  32
HETATM   32  C   UNL     1     -11.975  13.242  63.762  1.00  0.00    -0.551 C  
BRANCH  32  33
HETATM   33  C   UNL     1     -11.778  11.738  63.584  1.00  0.00    -0.517 C  
HETATM   34  C   UNL     1     -10.413  11.299  64.087  1.00  0.00    -0.431 C  
ENDBRANCH  32  33
ENDBRANCH  31  32
ENDBRANCH  30  31
ENDBRANCH  29  30
ENDBRANCH  28  29
ENDBRANCH  27  28
ENDBRANCH  26  27
ENDBRANCH  25  26
ENDBRANCH  24  25
ENDBRANCH  23  24
ENDBRANCH  22  23
ENDBRANCH  20  22
ENDBRANCH  19  20
ENDBRANCH  18  19
BRANCH  18  35
HETATM   35  C   UNL     1      -6.685   4.979  71.773  1.00  0.00    -0.044 C  
BRANCH  35  36
HETATM   36  O   UNL     1      -6.155   5.609  70.598  1.00  0.00    -0.027 OA 
BRANCH  36  37
HETATM   37  P   UNL     1      -6.106   4.568  69.217  1.00  0.00    -0.028 P  
HETATM   38  O   UNL     1      -7.301   3.678  69.882  1.00  0.00    -0.042 OA 
HETATM   39  O   UNL     1      -6.654   5.725  68.407  1.00  0.00    -0.048 OA 
BRANCH  37  40
HETATM   40  O   UNL     1      -6.058   3.527  67.836  1.00  0.00    -0.030 OA 
BRANCH  40  41
HETATM   41  C   UNL     1      -7.326   2.973  67.381  1.00  0.00    -0.058 C  
BRANCH  41  42
HETATM   42  C   UNL     1      -7.560   2.849  65.852  1.00  0.00    -0.073 C  
HETATM   43  H   UNL     1      -9.090   2.930  64.599  1.00  0.00     0.000 HD 
HETATM   44  O   UNL     1      -8.947   3.006  65.536  1.00  0.00    -0.135 OA 
BRANCH  42  45
HETATM   45  C   UNL     1      -6.725   3.838  65.025  1.00  0.00    -0.048 C  
HETATM   46  O   UNL     1      -6.898   5.179  65.501  1.00  0.00    -0.057 OA 
HETATM   47  H   UNL     1      -6.382   5.790  64.989  1.00  0.00     0.000 HD 
ENDBRANCH  42  45
ENDBRANCH  41  42
ENDBRANCH  40  41
ENDBRANCH  37  40
ENDBRANCH  36  37
ENDBRANCH  35  36
ENDBRANCH  18  35
ENDBRANCH  17  18
ENDBRANCH  16  17
ENDBRANCH  14  16
ENDBRANCH  13  14
ENDBRANCH  12  13
ENDBRANCH  11  12
ENDBRANCH  10  11
ENDBRANCH   9  10
ENDBRANCH   8   9
ENDBRANCH   7   8
ENDBRANCH   6   7
ENDBRANCH   5   6
ENDBRANCH   4   5
ENDBRANCH   3   4
ENDBRANCH   2   3
TORSDOF 36
ENDMDL
MODEL       15
REMARK 921   NORMALIZED FREE ENERGY PREDICTED BY IDOCK:   -3.92 KCAL/MOL
REMARK 922        TOTAL FREE ENERGY PREDICTED BY IDOCK:  -17.63 KCAL/MOL
REMARK 923 INTER-LIGAND FREE ENERGY PREDICTED BY IDOCK:  -11.99 KCAL/MOL
REMARK 924 INTRA-LIGAND FREE ENERGY PREDICTED BY IDOCK:   -5.63 KCAL/MOL
REMARK 927      BINDING AFFINITY PREDICTED BY RF-SCORE:    0.00 PKD
ROOT
HETATM    1  C   UNL     1      -6.198   7.603  69.393  1.00  0.00    -0.034 C  
HETATM    2  C   UNL     1      -7.512   7.386  70.124  1.00  0.00    -0.087 C  
ENDROOT
BRANCH   2   3
HETATM    3  C   UNL     1      -7.747   8.468  71.177  1.00  0.00    -0.115 C  
BRANCH   3   4
HETATM    4  C   UNL     1      -7.949   7.861  72.565  1.00  0.00    -0.157 C  
BRANCH   4   5
HETATM    5  C   UNL     1      -7.133   6.579  72.725  1.00  0.00    -0.081 C  
BRANCH   5   6
HETATM    6  C   UNL     1      -7.695   5.698  73.840  1.00  0.00    -0.100 C  
BRANCH   6   7
HETATM    7  C   UNL     1      -7.768   4.237  73.398  1.00  0.00    -0.085 C  
BRANCH   7   8
HETATM    8  C   UNL     1      -8.068   4.127  71.906  1.00  0.00    -0.088 C  
BRANCH   8   9
HETATM    9  C   UNL     1      -9.546   3.836  71.659  1.00  0.00    -0.227 C  
BRANCH   9  10
HETATM   10  C   UNL     1     -10.282   5.104  71.226  1.00  0.00    -0.292 C  
BRANCH  10  11
HETATM   11  C   UNL     1     -11.150   5.670  72.348  1.00  0.00    -0.324 C  
BRANCH  11  12
HETATM   12  C   UNL     1     -11.439   7.150  72.097  1.00  0.00    -0.306 C  
BRANCH  12  13
HETATM   13  C   UNL     1     -12.906   7.394  71.759  1.00  0.00    -0.365 C  
BRANCH  13  14
HETATM   14  C   UNL     1     -13.311   8.793  72.161  1.00  0.00    -0.423 C  
HETATM   15  O   UNL     1     -14.314   9.077  72.803  1.00  0.00    -0.596 OA 
BRANCH  14  16
HETATM   16  O   UNL     1     -12.366   9.687  71.753  1.00  0.00    -0.368 OA 
BRANCH  16  17
HETATM   17  C   UNL     1     -12.790  11.061  71.774  1.00  0.00    -0.391 C  
BRANCH  17  18
HETATM   18  C   UNL     1     -12.453  11.769  70.454  1.00  0.00    -0.197 C  
BRANCH  18  19
HETATM   19  O   UNL     1     -11.195  11.248  69.963  1.00  0.00    -0.238 OA 
BRANCH  19  20
HETATM   20  C   UNL     1     -11.200  10.770  68.690  1.00  0.00    -0.274 C  
HETATM   21  O   UNL     1     -11.930  11.139  67.782  1.00  0.00    -0.630 OA 
BRANCH  20  22
HETATM   22  C   UNL     1     -10.140   9.708  68.534  1.00  0.00    -0.195 C  
BRANCH  22  23
HETATM   23  C   UNL     1     -10.747   8.311  68.475  1.00  0.00    -0.065 C  
BRANCH  23  24
HETATM   24  C   UNL     1     -10.473   7.609  67.142  1.00  0.00    -0.412 C  
BRANCH  24  25
HETATM   25  C   UNL     1      -9.184   6.792  67.207  1.00  0.00    -0.140 C  
BRANCH  25  26
HETATM   26  C   UNL     1      -8.425   6.866  65.885  1.00  0.00    -0.147 C  
BRANCH  26  27
HETATM   27  C   UNL     1      -8.569   8.240  65.237  1.00  0.00    -0.159 C  
BRANCH  27  28
HETATM   28  C   UNL     1      -7.529   9.212  65.786  1.00  0.00    -0.090 C  
BRANCH  28  29
HETATM   29  C   UNL     1      -8.054  10.646  65.772  1.00  0.00    -0.158 C  
BRANCH  29  30
HETATM   30  C   UNL     1      -9.356  10.743  64.981  1.00  0.00    -0.261 C  
BRANCH  30  31
HETATM   31  C   UNL     1      -9.968  12.138  65.096  1.00  0.00    -0.251 C  
BRANCH  31  32
HETATM   32  C   UNL     1     -10.765  12.492  63.841  1.00  0.00    -0.473 C  
BRANCH  32  33
HETATM   33  C   UNL     1     -12.207  12.856  64.186  1.00  0.00    -0.487 C  
HETATM   34  C   UNL     1     -12.332  14.328  64.544  1.00  0.00    -0.432 C  
ENDBRANCH  32  33
ENDBRANCH  31  32
ENDBRANCH  30  31
ENDBRANCH  29  30
ENDBRANCH  28  29
ENDBRANCH  27  28
ENDBRANCH  26  27
ENDBRANCH  25  26
ENDBRANCH  24  25
ENDBRANCH  23  24
ENDBRANCH  22  23
ENDBRANCH  20  22
ENDBRANCH  19  20
ENDBRANCH  18  19
BRANCH  18  35
HETATM   35  C   UNL     1     -12.270  13.263  70.711  1.00  0.00    -0.308 C  
BRANCH  35  36
HETATM   36  O   UNL     1     -12.425  14.018  69.501  1.00  0.00    -0.299 OA 
BRANCH  36  37
HETATM   37  P   UNL     1     -11.337  15.357  69.377  1.00  0.00    -0.365 P  
HETATM   38  O   UNL     1     -12.025  15.746  67.950  1.00  0.00    -0.048 OA 
HETATM   39  O   UNL     1     -12.077  15.982  70.543  1.00  0.00    -0.349 OA 
BRANCH  37  40
HETATM   40  O   UNL     1     -10.250  16.697  69.252  1.00  0.00    -0.283 OA 
BRANCH  40  41
HETATM   41  C   UNL     1     -10.265  17.447  68.003  1.00  0.00    -0.345 C  
BRANCH  41  42
HETATM   42  C   UNL     1     -10.202  18.996  68.084  1.00  0.00    -0.396 C  
HETATM   43  H   UNL     1      -8.816  20.406  67.978  1.00  0.00     0.000 HD 
HETATM   44  O   UNL     1      -8.855  19.457  67.929  1.00  0.00    -0.301 OA 
BRANCH  42  45
HETATM   45  C   UNL     1     -11.110  19.699  67.064  1.00  0.00    -0.146 C  
HETATM   46  O   UNL     1     -10.438  19.866  65.808  1.00  0.00    -0.504 OA 
HETATM   47  H   UNL     1     -11.000  20.301  65.178  1.00  0.00     0.000 HD 
ENDBRANCH  42  45
ENDBRANCH  41  42
ENDBRANCH  40  41
ENDBRANCH  37  40
ENDBRANCH  36  37
ENDBRANCH  35  36
ENDBRANCH  18  35
ENDBRANCH  17  18
ENDBRANCH  16  17
ENDBRANCH  14  16
ENDBRANCH  13  14
ENDBRANCH  12  13
ENDBRANCH  11  12
ENDBRANCH  10  11
ENDBRANCH   9  10
ENDBRANCH   8   9
ENDBRANCH   7   8
ENDBRANCH   6   7
ENDBRANCH   5   6
ENDBRANCH   4   5
ENDBRANCH   3   4
ENDBRANCH   2   3
TORSDOF 36
ENDMDL
MODEL       16
REMARK 921   NORMALIZED FREE ENERGY PREDICTED BY IDOCK:   -3.91 KCAL/MOL
REMARK 922        TOTAL FREE ENERGY PREDICTED BY IDOCK:  -17.61 KCAL/MOL
REMARK 923 INTER-LIGAND FREE ENERGY PREDICTED BY IDOCK:  -12.13 KCAL/MOL
REMARK 924 INTRA-LIGAND FREE ENERGY PREDICTED BY IDOCK:   -5.47 KCAL/MOL
REMARK 927      BINDING AFFINITY PREDICTED BY RF-SCORE:    0.00 PKD
ROOT
HETATM    1  C   UNL     1     -14.406  13.726  72.163  1.00  0.00    -0.465 C  
HETATM    2  C   UNL     1     -13.177  14.200  72.922  1.00  0.00    -0.553 C  
ENDROOT
BRANCH   2   3
HETATM    3  C   UNL     1     -13.178  15.719  73.085  1.00  0.00    -0.694 C  
BRANCH   3   4
HETATM    4  C   UNL     1     -11.943  16.350  72.442  1.00  0.00    -0.553 C  
BRANCH   4   5
HETATM    5  C   UNL     1     -11.315  15.403  71.420  1.00  0.00    -0.449 C  
BRANCH   5   6
HETATM    6  C   UNL     1     -11.384  15.983  70.008  1.00  0.00    -0.353 C  
BRANCH   6   7
HETATM    7  C   UNL     1     -11.603  14.880  68.973  1.00  0.00    -0.330 C  
BRANCH   7   8
HETATM    8  C   UNL     1     -11.717  13.512  69.641  1.00  0.00    -0.378 C  
BRANCH   8   9
HETATM    9  C   UNL     1     -11.945  12.410  68.609  1.00  0.00    -0.272 C  
BRANCH   9  10
HETATM   10  C   UNL     1     -12.265  11.084  69.298  1.00  0.00    -0.280 C  
BRANCH  10  11
HETATM   11  C   UNL     1     -12.300  11.225  70.818  1.00  0.00    -0.495 C  
BRANCH  11  12
HETATM   12  C   UNL     1     -12.274   9.846  71.478  1.00  0.00    -0.505 C  
BRANCH  12  13
HETATM   13  C   UNL     1     -11.361   8.877  70.735  1.00  0.00    -0.325 C  
BRANCH  13  14
HETATM   14  C   UNL     1      -9.919   9.118  71.115  1.00  0.00    -0.307 C  
HETATM   15  O   UNL     1      -9.422   8.842  72.199  1.00  0.00    -0.301 OA 
BRANCH  14  16
HETATM   16  O   UNL     1      -9.237   9.635  70.054  1.00  0.00    -0.212 OA 
BRANCH  16  17
HETATM   17  C   UNL     1      -7.935   9.063  69.840  1.00  0.00    -0.103 C  
BRANCH  17  18
HETATM   18  C   UNL     1      -7.893   8.240  68.545  1.00  0.00    -0.121 C  
BRANCH  18  19
HETATM   19  O   UNL     1      -9.225   8.205  67.981  1.00  0.00    -0.133 OA 
BRANCH  19  20
HETATM   20  C   UNL     1      -9.326   8.512  66.660  1.00  0.00    -0.189 C  
HETATM   21  O   UNL     1      -8.912   7.839  65.728  1.00  0.00    -0.150 OA 
BRANCH  20  22
HETATM   22  C   UNL     1     -10.056   9.821  66.489  1.00  0.00    -0.307 C  
BRANCH  22  23
HETATM   23  C   UNL     1      -9.284  10.783  65.595  1.00  0.00    -0.226 C  
BRANCH  23  24
HETATM   24  C   UNL     1      -9.350  12.229  66.095  1.00  0.00    -0.177 C  
BRANCH  24  25
HETATM   25  C   UNL     1      -8.737  12.357  67.488  1.00  0.00    -0.179 C  
BRANCH  25  26
HETATM   26  C   UNL     1      -7.259  12.726  67.402  1.00  0.00    -0.134 C  
BRANCH  26  27
HETATM   27  C   UNL     1      -6.911  13.853  68.370  1.00  0.00    -0.101 C  
BRANCH  27  28
HETATM   28  C   UNL     1      -8.144  14.692  68.694  1.00  0.00    -0.150 C  
BRANCH  28  29
HETATM   29  C   UNL     1      -7.750  16.032  69.311  1.00  0.00    -0.223 C  
BRANCH  29  30
HETATM   30  C   UNL     1      -7.993  17.177  68.332  1.00  0.00    -0.250 C  
BRANCH  30  31
HETATM   31  C   UNL     1      -8.968  16.764  67.231  1.00  0.00    -0.222 C  
BRANCH  31  32
HETATM   32  C   UNL     1     -10.015  17.850  66.989  1.00  0.00    -0.324 C  
BRANCH  32  33
HETATM   33  C   UNL     1     -10.090  18.818  68.168  1.00  0.00    -0.427 C  
HETATM   34  C   UNL     1      -9.796  20.243  67.730  1.00  0.00    -0.534 C  
ENDBRANCH  32  33
ENDBRANCH  31  32
ENDBRANCH  30  31
ENDBRANCH  29  30
ENDBRANCH  28  29
ENDBRANCH  27  28
ENDBRANCH  26  27
ENDBRANCH  25  26
ENDBRANCH  24  25
ENDBRANCH  23  24
ENDBRANCH  22  23
ENDBRANCH  20  22
ENDBRANCH  19  20
ENDBRANCH  18  19
BRANCH  18  35
HETATM   35  C   UNL     1      -7.486   6.804  68.868  1.00  0.00    -0.096 C  
BRANCH  35  36
HETATM   36  O   UNL     1      -6.697   6.240  67.811  1.00  0.00    -0.059 OA 
BRANCH  36  37
HETATM   37  P   UNL     1      -7.448   4.892  67.031  1.00  0.00    -0.088 P  
HETATM   38  O   UNL     1      -6.167   3.973  67.451  1.00  0.00    -0.034 OA 
HETATM   39  O   UNL     1      -8.496   4.925  68.125  1.00  0.00    -0.102 OA 
BRANCH  37  40
HETATM   40  O   UNL     1      -8.199   3.542  66.250  1.00  0.00    -0.098 OA 
BRANCH  40  41
HETATM   41  C   UNL     1      -9.481   3.783  65.601  1.00  0.00    -0.170 C  
BRANCH  41  42
HETATM   42  C   UNL     1      -9.481   4.078  64.077  1.00  0.00    -0.158 C  
HETATM   43  H   UNL     1      -8.353   3.646  62.509  1.00  0.00     0.000 HD 
HETATM   44  O   UNL     1      -8.353   3.466  63.443  1.00  0.00    -0.088 OA 
BRANCH  42  45
HETATM   45  C   UNL     1     -10.773   3.642  63.371  1.00  0.00    -0.227 C  
HETATM   46  O   UNL     1     -11.198   2.351  63.829  1.00  0.00    -0.590 OA 
HETATM   47  H   UNL     1     -11.996   2.081  63.391  1.00  0.00     0.000 HD 
ENDBRANCH  42  45
ENDBRANCH  41  42
ENDBRANCH  40  41
ENDBRANCH  37  40
ENDBRANCH  36  37
ENDBRANCH  35  36
ENDBRANCH  18  35
ENDBRANCH  17  18
ENDBRANCH  16  17
ENDBRANCH  14  16
ENDBRANCH  13  14
ENDBRANCH  12  13
ENDBRANCH  11  12
ENDBRANCH  10  11
ENDBRANCH   9  10
ENDBRANCH   8   9
ENDBRANCH   7   8
ENDBRANCH   6   7
ENDBRANCH   5   6
ENDBRANCH   4   5
ENDBRANCH   3   4
ENDBRANCH   2   3
TORSDOF 36
ENDMDL
MODEL       17
REMARK 921   NORMALIZED FREE ENERGY PREDICTED BY IDOCK:   -3.91 KCAL/MOL
REMARK 922        TOTAL FREE ENERGY PREDICTED BY IDOCK:  -17.60 KCAL/MOL
REMARK 923 INTER-LIGAND FREE ENERGY PREDICTED BY IDOCK:  -12.73 KCAL/MOL
REMARK 924 INTRA-LIGAND FREE ENERGY PREDICTED BY IDOCK:   -4.87 KCAL/MOL
REMARK 927      BINDING AFFINITY PREDICTED BY RF-SCORE:    0.00 PKD
ROOT
HETATM    1  C   UNL     1      -8.451   4.463  62.511  1.00  0.00    -0.092 C  
HETATM    2  C   UNL     1      -9.052   3.622  63.625  1.00  0.00    -0.100 C  
ENDROOT
BRANCH   2   3
HETATM    3  C   UNL     1      -8.921   4.319  64.978  1.00  0.00    -0.141 C  
BRANCH   3   4
HETATM    4  C   UNL     1     -10.288   4.699  65.545  1.00  0.00    -0.225 C  
BRANCH   4   5
HETATM    5  C   UNL     1     -10.183   5.071  67.023  1.00  0.00    -0.253 C  
BRANCH   5   6
HETATM    6  C   UNL     1     -10.856   6.413  67.308  1.00  0.00    -0.463 C  
BRANCH   6   7
HETATM    7  C   UNL     1     -11.164   6.565  68.797  1.00  0.00    -0.319 C  
BRANCH   7   8
HETATM    8  C   UNL     1     -10.399   5.538  69.626  1.00  0.00    -0.359 C  
BRANCH   8   9
HETATM    9  C   UNL     1     -10.765   5.636  71.105  1.00  0.00    -0.310 C  
BRANCH   9  10
HETATM   10  C   UNL     1     -11.987   6.534  71.301  1.00  0.00    -0.364 C  
BRANCH  10  11
HETATM   11  C   UNL     1     -11.775   7.548  72.422  1.00  0.00    -0.335 C  
BRANCH  11  12
HETATM   12  C   UNL     1     -11.529   8.939  71.838  1.00  0.00    -0.442 C  
BRANCH  12  13
HETATM   13  C   UNL     1     -12.805   9.773  71.797  1.00  0.00    -0.530 C  
BRANCH  13  14
HETATM   14  C   UNL     1     -12.594  11.016  70.964  1.00  0.00    -0.411 C  
HETATM   15  O   UNL     1     -12.758  12.162  71.358  1.00  0.00    -0.358 OA 
BRANCH  14  16
HETATM   16  O   UNL     1     -12.137  10.675  69.726  1.00  0.00    -0.300 OA 
BRANCH  16  17
HETATM   17  C   UNL     1     -11.316  11.671  69.092  1.00  0.00    -0.283 C  
BRANCH  17  18
HETATM   18  C   UNL     1     -12.031  12.300  67.888  1.00  0.00    -0.173 C  
BRANCH  18  19
HETATM   19  O   UNL     1     -11.492  11.717  66.678  1.00  0.00    -0.399 OA 
BRANCH  19  20
HETATM   20  C   UNL     1     -10.456  12.383  66.101  1.00  0.00    -0.248 C  
HETATM   21  O   UNL     1      -9.369  12.607  66.611  1.00  0.00    -0.229 OA 
BRANCH  20  22
HETATM   22  C   UNL     1     -10.827  12.801  64.700  1.00  0.00    -0.361 C  
BRANCH  22  23
HETATM   23  C   UNL     1     -11.075  11.597  63.800  1.00  0.00    -0.499 C  
BRANCH  23  24
HETATM   24  C   UNL     1      -9.909  10.606  63.813  1.00  0.00    -0.394 C  
BRANCH  24  25
HETATM   25  C   UNL     1      -8.875  10.960  62.745  1.00  0.00    -0.304 C  
BRANCH  25  26
HETATM   26  C   UNL     1      -7.557  10.235  63.000  1.00  0.00    -0.136 C  
BRANCH  26  27
HETATM   27  C   UNL     1      -7.682   9.245  64.154  1.00  0.00    -0.120 C  
BRANCH  27  28
HETATM   28  C   UNL     1      -7.056   7.901  63.788  1.00  0.00    -0.077 C  
BRANCH  28  29
HETATM   29  C   UNL     1      -6.692   7.105  65.038  1.00  0.00    -0.047 C  
BRANCH  29  30
HETATM   30  C   UNL     1      -7.512   7.568  66.239  1.00  0.00    -0.083 C  
BRANCH  30  31
HETATM   31  C   UNL     1      -7.104   6.820  67.507  1.00  0.00    -0.085 C  
BRANCH  31  32
HETATM   32  C   UNL     1      -7.057   7.763  68.709  1.00  0.00    -0.076 C  
BRANCH  32  33
HETATM   33  C   UNL     1      -8.048   8.913  68.549  1.00  0.00    -0.108 C  
HETATM   34  C   UNL     1      -8.648   9.312  69.886  1.00  0.00    -0.178 C  
ENDBRANCH  32  33
ENDBRANCH  31  32
ENDBRANCH  30  31
ENDBRANCH  29  30
ENDBRANCH  28  29
ENDBRANCH  27  28
ENDBRANCH  26  27
ENDBRANCH  25  26
ENDBRANCH  24  25
ENDBRANCH  23  24
ENDBRANCH  22  23
ENDBRANCH  20  22
ENDBRANCH  19  20
ENDBRANCH  18  19
BRANCH  18  35
HETATM   35  C   UNL     1     -11.742  13.799  67.851  1.00  0.00    -0.360 C  
BRANCH  35  36
HETATM   36  O   UNL     1     -11.287  14.270  69.128  1.00  0.00    -0.249 OA 
BRANCH  36  37
HETATM   37  P   UNL     1     -10.933  15.962  69.155  1.00  0.00    -0.339 P  
HETATM   38  O   UNL     1      -9.434  15.610  69.695  1.00  0.00    -0.282 OA 
HETATM   39  O   UNL     1     -11.003  15.935  67.642  1.00  0.00    -0.322 OA 
BRANCH  37  40
HETATM   40  O   UNL     1     -10.577  17.655  69.183  1.00  0.00    -0.260 OA 
BRANCH  40  41
HETATM   41  C   UNL     1      -9.781  18.182  68.081  1.00  0.00    -0.325 C  
BRANCH  41  42
HETATM   42  C   UNL     1     -10.350  19.387  67.284  1.00  0.00    -0.442 C  
HETATM   43  H   UNL     1      -9.829  21.258  66.903  1.00  0.00     0.000 HD 
HETATM   44  O   UNL     1      -9.481  20.520  67.391  1.00  0.00    -0.409 OA 
BRANCH  42  45
HETATM   45  C   UNL     1     -10.611  19.072  65.804  1.00  0.00    -0.318 C  
HETATM   46  O   UNL     1     -10.290  17.707  65.505  1.00  0.00    -0.627 OA 
HETATM   47  H   UNL     1     -10.452  17.513  64.590  1.00  0.00     0.000 HD 
ENDBRANCH  42  45
ENDBRANCH  41  42
ENDBRANCH  40  41
ENDBRANCH  37  40
ENDBRANCH  36  37
ENDBRANCH  35  36
ENDBRANCH  18  35
ENDBRANCH  17  18
ENDBRANCH  16  17
ENDBRANCH  14  16
ENDBRANCH  13  14
ENDBRANCH  12  13
ENDBRANCH  11  12
ENDBRANCH  10  11
ENDBRANCH   9  10
ENDBRANCH   8   9
ENDBRANCH   7   8
ENDBRANCH   6   7
ENDBRANCH   5   6
ENDBRANCH   4   5
ENDBRANCH   3   4
ENDBRANCH   2   3
TORSDOF 36
ENDMDL
MODEL       18
REMARK 921   NORMALIZED FREE ENERGY PREDICTED BY IDOCK:   -3.87 KCAL/MOL
REMARK 922        TOTAL FREE ENERGY PREDICTED BY IDOCK:  -17.50 KCAL/MOL
REMARK 923 INTER-LIGAND FREE ENERGY PREDICTED BY IDOCK:  -11.32 KCAL/MOL
REMARK 924 INTRA-LIGAND FREE ENERGY PREDICTED BY IDOCK:   -6.18 KCAL/MOL
REMARK 927      BINDING AFFINITY PREDICTED BY RF-SCORE:    0.00 PKD
ROOT
HETATM    1  C   UNL     1      -6.038   5.985  70.367  1.00  0.00    -0.030 C  
HETATM    2  C   UNL     1      -6.971   5.901  69.170  1.00  0.00    -0.064 C  
ENDROOT
BRANCH   2   3
HETATM    3  C   UNL     1      -6.272   5.272  67.966  1.00  0.00    -0.034 C  
BRANCH   3   4
HETATM    4  C   UNL     1      -6.347   6.182  66.739  1.00  0.00    -0.045 C  
BRANCH   4   5
HETATM    5  C   UNL     1      -5.893   7.599  67.082  1.00  0.00    -0.040 C  
BRANCH   5   6
HETATM    6  C   UNL     1      -5.760   8.459  65.826  1.00  0.00    -0.043 C  
BRANCH   6   7
HETATM    7  C   UNL     1      -6.723   7.988  64.736  1.00  0.00    -0.059 C  
BRANCH   7   8
HETATM    8  C   UNL     1      -7.159   9.149  63.846  1.00  0.00    -0.093 C  
BRANCH   8   9
HETATM    9  C   UNL     1      -8.679   9.205  63.716  1.00  0.00    -0.150 C  
BRANCH   9  10
HETATM   10  C   UNL     1      -9.153  10.648  63.543  1.00  0.00    -0.252 C  
BRANCH  10  11
HETATM   11  C   UNL     1     -10.504  10.888  64.212  1.00  0.00    -0.405 C  
BRANCH  11  12
HETATM   12  C   UNL     1     -10.596  12.327  64.719  1.00  0.00    -0.332 C  
BRANCH  12  13
HETATM   13  C   UNL     1     -11.332  12.415  66.051  1.00  0.00    -0.397 C  
BRANCH  13  14
HETATM   14  C   UNL     1     -12.118  13.703  66.132  1.00  0.00    -0.436 C  
HETATM   15  O   UNL     1     -13.020  14.025  65.370  1.00  0.00    -0.726 OA 
BRANCH  14  16
HETATM   16  O   UNL     1     -11.716  14.428  67.214  1.00  0.00    -0.370 OA 
BRANCH  16  17
HETATM   17  C   UNL     1     -10.848  15.533  66.908  1.00  0.00    -0.301 C  
BRANCH  17  18
HETATM   18  C   UNL     1     -10.620  16.422  68.139  1.00  0.00    -0.318 C  
BRANCH  18  19
HETATM   19  O   UNL     1      -9.406  15.990  68.798  1.00  0.00    -0.200 OA 
BRANCH  19  20
HETATM   20  C   UNL     1      -8.243  16.485  68.296  1.00  0.00    -0.185 C  
HETATM   21  O   UNL     1      -7.942  17.665  68.202  1.00  0.00    -0.238 OA 
BRANCH  20  22
HETATM   22  C   UNL     1      -7.336  15.353  67.880  1.00  0.00    -0.155 C  
BRANCH  22  23
HETATM   23  C   UNL     1      -7.737  14.039  68.540  1.00  0.00    -0.139 C  
BRANCH  23  24
HETATM   24  C   UNL     1      -8.032  12.937  67.520  1.00  0.00    -0.178 C  
BRANCH  24  25
HETATM   25  C   UNL     1      -7.664  11.562  68.074  1.00  0.00    -0.119 C  
BRANCH  25  26
HETATM   26  C   UNL     1      -8.149  10.452  67.147  1.00  0.00    -0.115 C  
BRANCH  26  27
HETATM   27  C   UNL     1      -9.441   9.824  67.660  1.00  0.00    -0.164 C  
BRANCH  27  28
HETATM   28  C   UNL     1      -9.475   8.328  67.360  1.00  0.00    -0.188 C  
BRANCH  28  29
HETATM   29  C   UNL     1     -10.183   7.559  68.473  1.00  0.00    -0.216 C  
BRANCH  29  30
HETATM   30  C   UNL     1     -10.677   6.204  67.975  1.00  0.00    -0.370 C  
BRANCH  30  31
HETATM   31  C   UNL     1     -10.102   5.882  66.596  1.00  0.00    -0.229 C  
BRANCH  31  32
HETATM   32  C   UNL     1     -10.326   4.413  66.239  1.00  0.00    -0.136 C  
BRANCH  32  33
HETATM   33  C   UNL     1      -9.163   3.860  65.419  1.00  0.00    -0.151 C  
HETATM   34  C   UNL     1      -8.754   4.827  64.321  1.00  0.00    -0.143 C  
ENDBRANCH  32  33
ENDBRANCH  31  32
ENDBRANCH  30  31
ENDBRANCH  29  30
ENDBRANCH  28  29
ENDBRANCH  27  28
ENDBRANCH  26  27
ENDBRANCH  25  26
ENDBRANCH  24  25
ENDBRANCH  23  24
ENDBRANCH  22  23
ENDBRANCH  20  22
ENDBRANCH  19  20
ENDBRANCH  18  19
BRANCH  18  35
HETATM   35  C   UNL     1     -11.773  16.235  69.122  1.00  0.00    -0.151 C  
BRANCH  35  36
HETATM   36  O   UNL     1     -11.329  16.396  70.477  1.00  0.00    -0.363 OA 
BRANCH  36  37
HETATM   37  P   UNL     1     -12.135  15.354  71.598  1.00  0.00    -0.485 P  
HETATM   38  O   UNL     1     -11.902  16.474  72.761  1.00  0.00    -0.539 OA 
HETATM   39  O   UNL     1     -13.410  15.612  70.821  1.00  0.00    -0.535 OA 
BRANCH  37  40
HETATM   40  O   UNL     1     -12.941  14.313  72.720  1.00  0.00    -0.452 OA 
BRANCH  40  41
HETATM   41  C   UNL     1     -13.575  13.118  72.176  1.00  0.00    -0.544 C  
BRANCH  41  42
HETATM   42  C   UNL     1     -12.661  11.927  71.780  1.00  0.00    -0.182 C  
HETATM   43  H   UNL     1     -12.635   9.964  72.032  1.00  0.00     0.000 HD 
HETATM   44  O   UNL     1     -13.194  10.693  72.275  1.00  0.00    -0.400 OA 
BRANCH  42  45
HETATM   45  C   UNL     1     -12.421  11.818  70.267  1.00  0.00    -0.159 C  
HETATM   46  O   UNL     1     -11.262  12.566  69.876  1.00  0.00    -0.486 OA 
HETATM   47  H   UNL     1     -11.114  12.498  68.941  1.00  0.00     0.000 HD 
ENDBRANCH  42  45
ENDBRANCH  41  42
ENDBRANCH  40  41
ENDBRANCH  37  40
ENDBRANCH  36  37
ENDBRANCH  35  36
ENDBRANCH  18  35
ENDBRANCH  17  18
ENDBRANCH  16  17
ENDBRANCH  14  16
ENDBRANCH  13  14
ENDBRANCH  12  13
ENDBRANCH  11  12
ENDBRANCH  10  11
ENDBRANCH   9  10
ENDBRANCH   8   9
ENDBRANCH   7   8
ENDBRANCH   6   7
ENDBRANCH   5   6
ENDBRANCH   4   5
ENDBRANCH   3   4
ENDBRANCH   2   3
TORSDOF 36
ENDMDL
MODEL       19
REMARK 921   NORMALIZED FREE ENERGY PREDICTED BY IDOCK:   -3.86 KCAL/MOL
REMARK 922        TOTAL FREE ENERGY PREDICTED BY IDOCK:  -17.45 KCAL/MOL
REMARK 923 INTER-LIGAND FREE ENERGY PREDICTED BY IDOCK:  -11.38 KCAL/MOL
REMARK 924 INTRA-LIGAND FREE ENERGY PREDICTED BY IDOCK:   -6.07 KCAL/MOL
REMARK 927      BINDING AFFINITY PREDICTED BY RF-SCORE:    0.00 PKD
ROOT
HETATM    1  C   UNL     1      -5.626   6.267  71.090  1.00  0.00    -0.026 C  
HETATM    2  C   UNL     1      -6.528   7.056  70.155  1.00  0.00    -0.039 C  
ENDROOT
BRANCH   2   3
HETATM    3  C   UNL     1      -7.242   6.136  69.166  1.00  0.00    -0.083 C  
BRANCH   3   4
HETATM    4  C   UNL     1      -7.044   6.605  67.725  1.00  0.00    -0.085 C  
BRANCH   4   5
HETATM    5  C   UNL     1      -5.950   7.668  67.642  1.00  0.00    -0.040 C  
BRANCH   5   6
HETATM    6  C   UNL     1      -5.673   8.069  66.194  1.00  0.00    -0.037 C  
BRANCH   6   7
HETATM    7  C   UNL     1      -6.895   7.813  65.312  1.00  0.00    -0.051 C  
BRANCH   7   8
HETATM    8  C   UNL     1      -7.047   8.901  64.252  1.00  0.00    -0.090 C  
BRANCH   8   9
HETATM    9  C   UNL     1      -8.513   9.109  63.879  1.00  0.00    -0.189 C  
BRANCH   9  10
HETATM   10  C   UNL     1      -8.826  10.597  63.726  1.00  0.00    -0.178 C  
BRANCH  10  11
HETATM   11  C   UNL     1     -10.304  10.896  63.965  1.00  0.00    -0.417 C  
BRANCH  11  12
HETATM   12  C   UNL     1     -10.459  12.194  64.758  1.00  0.00    -0.332 C  
BRANCH  12  13
HETATM   13  C   UNL     1     -11.790  12.252  65.499  1.00  0.00    -0.420 C  
BRANCH  13  14
HETATM   14  C   UNL     1     -12.139  13.682  65.840  1.00  0.00    -0.439 C  
HETATM   15  O   UNL     1     -13.040  14.328  65.322  1.00  0.00    -0.707 OA 
BRANCH  14  16
HETATM   16  O   UNL     1     -11.340  14.129  66.850  1.00  0.00    -0.307 OA 
BRANCH  16  17
HETATM   17  C   UNL     1     -10.878  15.482  66.697  1.00  0.00    -0.285 C  
BRANCH  17  18
HETATM   18  C   UNL     1     -11.083  16.291  67.985  1.00  0.00    -0.299 C  
BRANCH  18  19
HETATM   19  O   UNL     1      -9.798  16.464  68.628  1.00  0.00    -0.217 OA 
BRANCH  19  20
HETATM   20  C   UNL     1      -9.188  17.664  68.436  1.00  0.00    -0.288 C  
HETATM   21  O   UNL     1      -9.744  18.732  68.229  1.00  0.00    -0.324 OA 
BRANCH  20  22
HETATM   22  C   UNL     1      -7.691  17.505  68.537  1.00  0.00    -0.272 C  
BRANCH  22  23
HETATM   23  C   UNL     1      -7.308  16.378  69.489  1.00  0.00    -0.044 C  
BRANCH  23  24
HETATM   24  C   UNL     1      -5.991  15.703  69.098  1.00  0.00    -0.110 C  
BRANCH  24  25
HETATM   25  C   UNL     1      -5.641  14.577  70.070  1.00  0.00    -0.112 C  
BRANCH  25  26
HETATM   26  C   UNL     1      -5.203  13.324  69.318  1.00  0.00    -0.074 C  
BRANCH  26  27
HETATM   27  C   UNL     1      -5.817  13.271  67.922  1.00  0.00    -0.135 C  
BRANCH  27  28
HETATM   28  C   UNL     1      -5.784  11.849  67.367  1.00  0.00    -0.113 C  
BRANCH  28  29
HETATM   29  C   UNL     1      -7.175  11.399  66.927  1.00  0.00    -0.144 C  
BRANCH  29  30
HETATM   30  C   UNL     1      -8.261  12.150  67.692  1.00  0.00    -0.163 C  
BRANCH  30  31
HETATM   31  C   UNL     1      -9.393  11.212  68.107  1.00  0.00    -0.176 C  
BRANCH  31  32
HETATM   32  C   UNL     1      -9.133   9.789  67.616  1.00  0.00    -0.140 C  
BRANCH  32  33
HETATM   33  C   UNL     1     -10.412   8.955  67.632  1.00  0.00    -0.320 C  
HETATM   34  C   UNL     1     -10.281   7.729  66.744  1.00  0.00    -0.346 C  
ENDBRANCH  32  33
ENDBRANCH  31  32
ENDBRANCH  30  31
ENDBRANCH  29  30
ENDBRANCH  28  29
ENDBRANCH  27  28
ENDBRANCH  26  27
ENDBRANCH  25  26
ENDBRANCH  24  25
ENDBRANCH  23  24
ENDBRANCH  22  23
ENDBRANCH  20  22
ENDBRANCH  19  20
ENDBRANCH  18  19
BRANCH  18  35
HETATM   35  C   UNL     1     -11.979  15.507  68.942  1.00  0.00    -0.284 C  
BRANCH  35  36
HETATM   36  O   UNL     1     -11.831  15.976  70.290  1.00  0.00    -0.337 OA 
BRANCH  36  37
HETATM   37  P   UNL     1     -12.562  14.940  71.466  1.00  0.00    -0.396 P  
HETATM   38  O   UNL     1     -11.798  15.780  72.638  1.00  0.00    -0.428 OA 
HETATM   39  O   UNL     1     -13.890  15.572  71.101  1.00  0.00    -0.549 OA 
BRANCH  37  40
HETATM   40  O   UNL     1     -13.294  13.905  72.644  1.00  0.00    -0.512 OA 
BRANCH  40  41
HETATM   41  C   UNL     1     -13.827  12.635  72.168  1.00  0.00    -0.172 C  
BRANCH  41  42
HETATM   42  C   UNL     1     -12.818  11.510  71.812  1.00  0.00    -0.335 C  
HETATM   43  H   UNL     1     -12.743   9.535  71.911  1.00  0.00     0.000 HD 
HETATM   44  O   UNL     1     -13.360  10.223  72.128  1.00  0.00    -0.443 OA 
BRANCH  42  45
HETATM   45  C   UNL     1     -12.367  11.536  70.345  1.00  0.00    -0.305 C  
HETATM   46  O   UNL     1     -12.928  10.436  69.616  1.00  0.00    -0.616 OA 
HETATM   47  H   UNL     1     -12.649  10.452  68.708  1.00  0.00     0.000 HD 
ENDBRANCH  42  45
ENDBRANCH  41  42
ENDBRANCH  40  41
ENDBRANCH  37  40
ENDBRANCH  36  37
ENDBRANCH  35  36
ENDBRANCH  18  35
ENDBRANCH  17  18
ENDBRANCH  16  17
ENDBRANCH  14  16
ENDBRANCH  13  14
ENDBRANCH  12  13
ENDBRANCH  11  12
ENDBRANCH  10  11
ENDBRANCH   9  10
ENDBRANCH   8   9
ENDBRANCH   7   8
ENDBRANCH   6   7
ENDBRANCH   5   6
ENDBRANCH   4   5
ENDBRANCH   3   4
ENDBRANCH   2   3
TORSDOF 36
ENDMDL
MODEL       20
REMARK 921   NORMALIZED FREE ENERGY PREDICTED BY IDOCK:   -3.85 KCAL/MOL
REMARK 922        TOTAL FREE ENERGY PREDICTED BY IDOCK:  -17.43 KCAL/MOL
REMARK 923 INTER-LIGAND FREE ENERGY PREDICTED BY IDOCK:  -12.17 KCAL/MOL
REMARK 924 INTRA-LIGAND FREE ENERGY PREDICTED BY IDOCK:   -5.26 KCAL/MOL
REMARK 927      BINDING AFFINITY PREDICTED BY RF-SCORE:    0.00 PKD
ROOT
HETATM    1  C   UNL     1     -13.896  13.722  72.415  1.00  0.00    -0.681 C  
HETATM    2  C   UNL     1     -12.605  14.447  72.760  1.00  0.00    -0.358 C  
ENDROOT
BRANCH   2   3
HETATM    3  C   UNL     1     -12.725  15.947  72.500  1.00  0.00    -0.530 C  
BRANCH   3   4
HETATM    4  C   UNL     1     -11.608  16.446  71.583  1.00  0.00    -0.335 C  
BRANCH   4   5
HETATM    5  C   UNL     1     -11.121  15.330  70.660  1.00  0.00    -0.341 C  
BRANCH   5   6
HETATM    6  C   UNL     1     -11.692  15.486  69.251  1.00  0.00    -0.380 C  
BRANCH   6   7
HETATM    7  C   UNL     1     -11.876  14.124  68.581  1.00  0.00    -0.383 C  
BRANCH   7   8
HETATM    8  C   UNL     1     -12.188  13.042  69.610  1.00  0.00    -0.219 C  
BRANCH   8   9
HETATM    9  C   UNL     1     -11.625  11.690  69.180  1.00  0.00    -0.378 C  
BRANCH   9  10
HETATM   10  C   UNL     1     -12.547  10.554  69.623  1.00  0.00     0.060 C  
BRANCH  10  11
HETATM   11  C   UNL     1     -12.802  10.582  71.128  1.00  0.00    -0.513 C  
BRANCH  11  12
HETATM   12  C   UNL     1     -12.165   9.364  71.796  1.00  0.00    -0.465 C  
BRANCH  12  13
HETATM   13  C   UNL     1     -11.245   8.609  70.843  1.00  0.00    -0.311 C  
BRANCH  13  14
HETATM   14  C   UNL     1      -9.810   9.031  71.053  1.00  0.00    -0.282 C  
HETATM   15  O   UNL     1      -9.228   9.032  72.130  1.00  0.00    -0.365 OA 
BRANCH  14  16
HETATM   16  O   UNL     1      -9.240   9.356  69.858  1.00  0.00    -0.175 OA 
BRANCH  16  17
HETATM   17  C   UNL     1      -7.943   8.776  69.633  1.00  0.00    -0.096 C  
BRANCH  17  18
HETATM   18  C   UNL     1      -7.941   7.882  68.386  1.00  0.00    -0.122 C  
BRANCH  18  19
HETATM   19  O   UNL     1      -9.256   7.931  67.783  1.00  0.00    -0.137 OA 
BRANCH  19  20
HETATM   20  C   UNL     1      -9.302   8.276  66.469  1.00  0.00    -0.206 C  
HETATM   21  O   UNL     1      -8.965   7.575  65.527  1.00  0.00    -0.054 OA 
BRANCH  20  22
HETATM   22  C   UNL     1      -9.859   9.670  66.319  1.00  0.00    -0.323 C  
BRANCH  22  23
HETATM   23  C   UNL     1      -8.760  10.724  66.376  1.00  0.00    -0.163 C  
BRANCH  23  24
HETATM   24  C   UNL     1      -9.309  12.129  66.634  1.00  0.00    -0.226 C  
BRANCH  24  25
HETATM   25  C   UNL     1      -8.554  12.815  67.771  1.00  0.00    -0.184 C  
BRANCH  25  26
HETATM   26  C   UNL     1      -8.116  14.219  67.366  1.00  0.00    -0.213 C  
BRANCH  26  27
HETATM   27  C   UNL     1      -9.083  14.833  66.358  1.00  0.00    -0.267 C  
BRANCH  27  28
HETATM   28  C   UNL     1      -9.235  16.334  66.595  1.00  0.00    -0.271 C  
BRANCH  28  29
HETATM   29  C   UNL     1     -10.464  16.882  65.873  1.00  0.00    -0.294 C  
BRANCH  29  30
HETATM   30  C   UNL     1     -10.549  18.399  66.014  1.00  0.00    -0.339 C  
BRANCH  30  31
HETATM   31  C   UNL     1      -9.173  19.006  66.282  1.00  0.00    -0.307 C  
BRANCH  31  32
HETATM   32  C   UNL     1      -9.298  20.359  66.982  1.00  0.00    -0.511 C  
BRANCH  32  33
HETATM   33  C   UNL     1     -10.307  20.298  68.126  1.00  0.00    -0.357 C  
HETATM   34  C   UNL     1      -9.753  19.520  69.308  1.00  0.00    -0.322 C  
ENDBRANCH  32  33
ENDBRANCH  31  32
ENDBRANCH  30  31
ENDBRANCH  29  30
ENDBRANCH  28  29
ENDBRANCH  27  28
ENDBRANCH  26  27
ENDBRANCH  25  26
ENDBRANCH  24  25
ENDBRANCH  23  24
ENDBRANCH  22  23
ENDBRANCH  20  22
ENDBRANCH  19  20
ENDBRANCH  18  19
BRANCH  18  35
HETATM   35  C   UNL     1      -7.672   6.436  68.797  1.00  0.00    -0.101 C  
BRANCH  35  36
HETATM   36  O   UNL     1      -8.876   5.657  68.765  1.00  0.00    -0.109 OA 
BRANCH  36  37
HETATM   37  P   UNL     1      -9.163   4.766  70.219  1.00  0.00    -0.159 P  
HETATM   38  O   UNL     1      -7.875   5.508  70.893  1.00  0.00    -0.098 OA 
HETATM   39  O   UNL     1     -10.430   5.580  70.391  1.00  0.00    -0.255 OA 
BRANCH  37  40
HETATM   40  O   UNL     1      -9.449   3.876  71.675  1.00  0.00    -0.131 OA 
BRANCH  40  41
HETATM   41  C   UNL     1      -9.090   4.525  72.929  1.00  0.00    -0.120 C  
BRANCH  41  42
HETATM   42  C   UNL     1     -10.239   5.055  73.829  1.00  0.00    -0.210 C  
HETATM   43  H   UNL     1     -10.920   6.810  74.440  1.00  0.00     0.000 HD 
HETATM   44  O   UNL     1     -10.217   6.486  73.889  1.00  0.00    -0.268 OA 
BRANCH  42  45
HETATM   45  C   UNL     1     -11.630   4.577  73.389  1.00  0.00    -0.147 C  
HETATM   46  O   UNL     1     -12.342   5.621  72.713  1.00  0.00    -0.522 OA 
HETATM   47  H   UNL     1     -13.203   5.325  72.441  1.00  0.00     0.000 HD 
ENDBRANCH  42  45
ENDBRANCH  41  42
ENDBRANCH  40  41
ENDBRANCH  37  40
ENDBRANCH  36  37
ENDBRANCH  35  36
ENDBRANCH  18  35
ENDBRANCH  17  18
ENDBRANCH  16  17
ENDBRANCH  14  16
ENDBRANCH  13  14
ENDBRANCH  12  13
ENDBRANCH  11  12
ENDBRANCH  10  11
ENDBRANCH   9  10
ENDBRANCH   8   9
ENDBRANCH   7   8
ENDBRANCH   6   7
ENDBRANCH   5   6
ENDBRANCH   4   5
ENDBRANCH   3   4
ENDBRANCH   2   3
TORSDOF 36
ENDMDL
MODEL       21
REMARK 921   NORMALIZED FREE ENERGY PREDICTED BY IDOCK:   -3.83 KCAL/MOL
REMARK 922        TOTAL FREE ENERGY PREDICTED BY IDOCK:  -17.37 KCAL/MOL
REMARK 923 INTER-LIGAND FREE ENERGY PREDICTED BY IDOCK:  -12.82 KCAL/MOL
REMARK 924 INTRA-LIGAND FREE ENERGY PREDICTED BY IDOCK:   -4.55 KCAL/MOL
REMARK 927      BINDING AFFINITY PREDICTED BY RF-SCORE:    0.00 PKD
ROOT
HETATM    1  C   UNL     1      -7.845   7.348  71.712  1.00  0.00    -0.090 C  
HETATM    2  C   UNL     1      -8.522   7.517  73.062  1.00  0.00    -0.172 C  
ENDROOT
BRANCH   2   3
HETATM    3  C   UNL     1      -9.055   6.184  73.586  1.00  0.00    -0.129 C  
BRANCH   3   4
HETATM    4  C   UNL     1     -10.583   6.150  73.574  1.00  0.00    -0.283 C  
BRANCH   4   5
HETATM    5  C   UNL     1     -11.095   4.740  73.290  1.00  0.00    -0.411 C  
BRANCH   5   6
HETATM    6  C   UNL     1     -10.760   3.785  74.435  1.00  0.00    -0.173 C  
BRANCH   6   7
HETATM    7  C   UNL     1     -10.697   2.340  73.941  1.00  0.00    -0.249 C  
BRANCH   7   8
HETATM    8  C   UNL     1     -10.482   2.281  72.432  1.00  0.00    -0.149 C  
BRANCH   8   9
HETATM    9  C   UNL     1      -9.135   1.650  72.088  1.00  0.00    -0.110 C  
BRANCH   9  10
HETATM   10  C   UNL     1      -8.616   2.178  70.751  1.00  0.00    -0.096 C  
BRANCH  10  11
HETATM   11  C   UNL     1      -8.325   3.676  70.804  1.00  0.00    -0.092 C  
BRANCH  11  12
HETATM   12  C   UNL     1      -9.252   4.430  69.851  1.00  0.00    -0.202 C  
BRANCH  12  13
HETATM   13  C   UNL     1      -8.700   4.466  68.430  1.00  0.00    -0.118 C  
BRANCH  13  14
HETATM   14  C   UNL     1      -9.739   5.011  67.477  1.00  0.00    -0.157 C  
HETATM   15  O   UNL     1     -10.084   4.474  66.433  1.00  0.00    -0.226 OA 
BRANCH  14  16
HETATM   16  O   UNL     1     -10.277   6.158  67.980  1.00  0.00    -0.144 OA 
BRANCH  16  17
HETATM   17  C   UNL     1      -9.518   7.348  67.707  1.00  0.00    -0.140 C  
BRANCH  17  18
HETATM   18  C   UNL     1      -9.621   8.353  68.863  1.00  0.00    -0.153 C  
BRANCH  18  19
HETATM   19  O   UNL     1     -11.021   8.631  69.106  1.00  0.00    -0.098 OA 
BRANCH  19  20
HETATM   20  C   UNL     1     -11.489   8.320  70.344  1.00  0.00    -0.122 C  
HETATM   21  O   UNL     1     -11.942   7.240  70.693  1.00  0.00    -0.291 OA 
BRANCH  20  22
HETATM   22  C   UNL     1     -11.351   9.508  71.262  1.00  0.00    -0.446 C  
BRANCH  22  23
HETATM   23  C   UNL     1     -12.701  10.153  71.553  1.00  0.00    -0.541 C  
BRANCH  23  24
HETATM   24  C   UNL     1     -12.690  11.665  71.317  1.00  0.00    -0.444 C  
BRANCH  24  25
HETATM   25  C   UNL     1     -13.678  12.373  72.242  1.00  0.00    -0.271 C  
BRANCH  25  26
HETATM   26  C   UNL     1     -13.277  13.830  72.457  1.00  0.00    -0.599 C  
BRANCH  26  27
HETATM   27  C   UNL     1     -12.411  14.342  71.310  1.00  0.00    -0.432 C  
BRANCH  27  28
HETATM   28  C   UNL     1     -11.870  15.736  71.618  1.00  0.00    -0.539 C  
BRANCH  28  29
HETATM   29  C   UNL     1     -11.010  16.258  70.469  1.00  0.00    -0.233 C  
BRANCH  29  30
HETATM   30  C   UNL     1     -11.773  16.210  69.149  1.00  0.00    -0.239 C  
BRANCH  30  31
HETATM   31  C   UNL     1     -10.870  16.587  67.976  1.00  0.00    -0.337 C  
BRANCH  31  32
HETATM   32  C   UNL     1     -10.193  17.936  68.216  1.00  0.00    -0.391 C  
BRANCH  32  33
HETATM   33  C   UNL     1     -10.739  19.005  67.272  1.00  0.00    -0.556 C  
HETATM   34  C   UNL     1      -9.779  20.176  67.153  1.00  0.00    -0.576 C  
ENDBRANCH  32  33
ENDBRANCH  31  32
ENDBRANCH  30  31
ENDBRANCH  29  30
ENDBRANCH  28  29
ENDBRANCH  27  28
ENDBRANCH  26  27
ENDBRANCH  25  26
ENDBRANCH  24  25
ENDBRANCH  23  24
ENDBRANCH  22  23
ENDBRANCH  20  22
ENDBRANCH  19  20
ENDBRANCH  18  19
BRANCH  18  35
HETATM   35  C   UNL     1      -8.950   9.664  68.459  1.00  0.00    -0.124 C  
BRANCH  35  36
HETATM   36  O   UNL     1      -8.398   9.576  67.138  1.00  0.00    -0.128 OA 
BRANCH  36  37
HETATM   37  P   UNL     1      -9.025  10.761  66.045  1.00  0.00    -0.191 P  
HETATM   38  O   UNL     1     -10.329   9.810  65.809  1.00  0.00    -0.209 OA 
HETATM   39  O   UNL     1      -9.206  11.673  67.241  1.00  0.00    -0.165 OA 
BRANCH  37  40
HETATM   40  O   UNL     1      -9.653  11.946  64.951  1.00  0.00    -0.185 OA 
BRANCH  40  41
HETATM   41  C   UNL     1     -10.868  11.597  64.226  1.00  0.00    -0.359 C  
BRANCH  41  42
HETATM   42  C   UNL     1     -12.014  12.644  64.181  1.00  0.00    -0.426 C  
HETATM   43  H   UNL     1     -13.877  12.737  63.519  1.00  0.00     0.000 HD 
HETATM   44  O   UNL     1     -13.175  12.097  63.547  1.00  0.00    -0.744 OA 
BRANCH  42  45
HETATM   45  C   UNL     1     -12.390  13.197  65.563  1.00  0.00    -0.474 C  
HETATM   46  O   UNL     1     -12.156  12.221  66.587  1.00  0.00    -0.612 OA 
HETATM   47  H   UNL     1     -12.389  12.564  67.442  1.00  0.00     0.000 HD 
ENDBRANCH  42  45
ENDBRANCH  41  42
ENDBRANCH  40  41
ENDBRANCH  37  40
ENDBRANCH  36  37
ENDBRANCH  35  36
ENDBRANCH  18  35
ENDBRANCH  17  18
ENDBRANCH  16  17
ENDBRANCH  14  16
ENDBRANCH  13  14
ENDBRANCH  12  13
ENDBRANCH  11  12
ENDBRANCH  10  11
ENDBRANCH   9  10
ENDBRANCH   8   9
ENDBRANCH   7   8
ENDBRANCH   6   7
ENDBRANCH   5   6
ENDBRANCH   4   5
ENDBRANCH   3   4
ENDBRANCH   2   3
TORSDOF 36
ENDMDL
MODEL       22
REMARK 921   NORMALIZED FREE ENERGY PREDICTED BY IDOCK:   -3.83 KCAL/MOL
REMARK 922        TOTAL FREE ENERGY PREDICTED BY IDOCK:  -17.36 KCAL/MOL
REMARK 923 INTER-LIGAND FREE ENERGY PREDICTED BY IDOCK:  -12.33 KCAL/MOL
REMARK 924 INTRA-LIGAND FREE ENERGY PREDICTED BY IDOCK:   -5.03 KCAL/MOL
REMARK 927      BINDING AFFINITY PREDICTED BY RF-SCORE:    0.00 PKD
ROOT
HETATM    1  C   UNL     1     -10.414  14.319  68.615  1.00  0.00    -0.249 C  
HETATM    2  C   UNL     1     -11.875  14.038  68.926  1.00  0.00    -0.390 C  
ENDROOT
BRANCH   2   3
HETATM    3  C   UNL     1     -12.020  12.880  69.912  1.00  0.00    -0.377 C  
BRANCH   3   4
HETATM    4  C   UNL     1     -12.727  13.323  71.192  1.00  0.00    -0.404 C  
BRANCH   4   5
HETATM    5  C   UNL     1     -13.317  12.124  71.933  1.00  0.00    -0.421 C  
BRANCH   5   6
HETATM    6  C   UNL     1     -12.984  10.813  71.223  1.00  0.00    -0.502 C  
BRANCH   6   7
HETATM    7  C   UNL     1     -12.990   9.641  72.204  1.00  0.00    -0.493 C  
BRANCH   7   8
HETATM    8  C   UNL     1     -14.089   8.640  71.860  1.00  0.00    -0.512 C  
BRANCH   8   9
HETATM    9  C   UNL     1     -13.505   7.267  71.536  1.00  0.00    -0.439 C  
BRANCH   9  10
HETATM   10  C   UNL     1     -11.978   7.309  71.566  1.00  0.00    -0.349 C  
BRANCH  10  11
HETATM   11  C   UNL     1     -11.362   6.442  70.469  1.00  0.00    -0.438 C  
BRANCH  11  12
HETATM   12  C   UNL     1     -10.633   7.317  69.450  1.00  0.00    -0.238 C  
BRANCH  12  13
HETATM   13  C   UNL     1     -10.181   8.641  70.057  1.00  0.00    -0.201 C  
BRANCH  13  14
HETATM   14  C   UNL     1     -10.203   9.732  69.012  1.00  0.00    -0.203 C  
HETATM   15  O   UNL     1     -11.130   9.951  68.244  1.00  0.00    -0.230 OA 
BRANCH  14  16
HETATM   16  O   UNL     1      -9.061  10.474  69.089  1.00  0.00    -0.178 OA 
BRANCH  16  17
HETATM   17  C   UNL     1      -7.844   9.719  68.963  1.00  0.00    -0.087 C  
BRANCH  17  18
HETATM   18  C   UNL     1      -7.655   9.199  67.531  1.00  0.00    -0.088 C  
BRANCH  18  19
HETATM   19  O   UNL     1      -6.899   7.966  67.588  1.00  0.00    -0.066 OA 
BRANCH  19  20
HETATM   20  C   UNL     1      -6.358   7.648  68.794  1.00  0.00    -0.040 C  
HETATM   21  O   UNL     1      -5.417   8.209  69.334  1.00  0.00    -0.029 OA 
BRANCH  20  22
HETATM   22  C   UNL     1      -7.108   6.492  69.408  1.00  0.00    -0.077 C  
BRANCH  22  23
HETATM   23  C   UNL     1      -7.602   5.515  68.348  1.00  0.00    -0.084 C  
BRANCH  23  24
HETATM   24  C   UNL     1      -8.329   4.312  68.953  1.00  0.00    -0.092 C  
BRANCH  24  25
HETATM   25  C   UNL     1      -7.650   3.850  70.241  1.00  0.00    -0.045 C  
BRANCH  25  26
HETATM   26  C   UNL     1      -8.421   2.700  70.882  1.00  0.00    -0.094 C  
BRANCH  26  27
HETATM   27  C   UNL     1      -9.734   3.182  71.491  1.00  0.00    -0.226 C  
BRANCH  27  28
HETATM   28  C   UNL     1     -10.290   2.152  72.471  1.00  0.00    -0.223 C  
BRANCH  28  29
HETATM   29  C   UNL     1     -11.094   2.827  73.580  1.00  0.00    -0.320 C  
BRANCH  29  30
HETATM   30  C   UNL     1     -11.070   4.345  73.427  1.00  0.00    -0.394 C  
BRANCH  30  31
HETATM   31  C   UNL     1     -10.183   4.992  74.490  1.00  0.00    -0.305 C  
BRANCH  31  32
HETATM   32  C   UNL     1     -10.213   6.515  74.375  1.00  0.00    -0.334 C  
BRANCH  32  33
HETATM   33  C   UNL     1      -8.806   7.085  74.212  1.00  0.00    -0.229 C  
HETATM   34  C   UNL     1      -8.181   6.642  72.900  1.00  0.00    -0.108 C  
ENDBRANCH  32  33
ENDBRANCH  31  32
ENDBRANCH  30  31
ENDBRANCH  29  30
ENDBRANCH  28  29
ENDBRANCH  27  28
ENDBRANCH  26  27
ENDBRANCH  25  26
ENDBRANCH  24  25
ENDBRANCH  23  24
ENDBRANCH  22  23
ENDBRANCH  20  22
ENDBRANCH  19  20
ENDBRANCH  18  19
BRANCH  18  35
HETATM   35  C   UNL     1      -6.840  10.207  66.726  1.00  0.00    -0.086 C  
BRANCH  35  36
HETATM   36  O   UNL     1      -7.163  10.136  65.329  1.00  0.00    -0.132 OA 
BRANCH  36  37
HETATM   37  P   UNL     1      -8.848  10.341  64.997  1.00  0.00    -0.216 P  
HETATM   38  O   UNL     1      -8.814  11.737  65.841  1.00  0.00    -0.133 OA 
HETATM   39  O   UNL     1      -8.469  10.556  63.546  1.00  0.00    -0.170 OA 
BRANCH  37  40
HETATM   40  O   UNL     1     -10.533  10.547  64.665  1.00  0.00    -0.311 OA 
BRANCH  40  41
HETATM   41  C   UNL     1     -11.176  11.732  65.219  1.00  0.00    -0.254 C  
BRANCH  41  42
HETATM   42  C   UNL     1     -11.928  12.676  64.242  1.00  0.00    -0.408 C  
HETATM   43  H   UNL     1     -13.785  12.937  63.608  1.00  0.00     0.000 HD 
HETATM   44  O   UNL     1     -13.324  12.359  64.206  1.00  0.00    -0.716 OA 
BRANCH  42  45
HETATM   45  C   UNL     1     -11.743  14.165  64.567  1.00  0.00    -0.413 C  
HETATM   46  O   UNL     1     -12.428  14.987  63.613  1.00  0.00    -1.036 OA 
HETATM   47  H   UNL     1     -12.313  15.908  63.814  1.00  0.00     0.000 HD 
ENDBRANCH  42  45
ENDBRANCH  41  42
ENDBRANCH  40  41
ENDBRANCH  37  40
ENDBRANCH  36  37
ENDBRANCH  35  36
ENDBRANCH  18  35
ENDBRANCH  17  18
ENDBRANCH  16  17
ENDBRANCH  14  16
ENDBRANCH  13  14
ENDBRANCH  12  13
ENDBRANCH  11  12
ENDBRANCH  10  11
ENDBRANCH   9  10
ENDBRANCH   8   9
ENDBRANCH   7   8
ENDBRANCH   6   7
ENDBRANCH   5   6
ENDBRANCH   4   5
ENDBRANCH   3   4
ENDBRANCH   2   3
TORSDOF 36
ENDMDL
MODEL       23
REMARK 921   NORMALIZED FREE ENERGY PREDICTED BY IDOCK:   -3.83 KCAL/MOL
REMARK 922        TOTAL FREE ENERGY PREDICTED BY IDOCK:  -17.35 KCAL/MOL
REMARK 923 INTER-LIGAND FREE ENERGY PREDICTED BY IDOCK:  -13.70 KCAL/MOL
REMARK 924 INTRA-LIGAND FREE ENERGY PREDICTED BY IDOCK:   -3.65 KCAL/MOL
REMARK 927      BINDING AFFINITY PREDICTED BY RF-SCORE:    0.00 PKD
ROOT
HETATM    1  C   UNL     1     -10.470   5.014  66.208  1.00  0.00    -0.352 C  
HETATM    2  C   UNL     1      -9.297   4.356  65.501  1.00  0.00    -0.162 C  
ENDROOT
BRANCH   2   3
HETATM    3  C   UNL     1      -8.169   5.355  65.248  1.00  0.00    -0.133 C  
BRANCH   3   4
HETATM    4  C   UNL     1      -8.089   5.745  63.772  1.00  0.00    -0.108 C  
BRANCH   4   5
HETATM    5  C   UNL     1      -7.894   7.252  63.615  1.00  0.00    -0.108 C  
BRANCH   5   6
HETATM    6  C   UNL     1      -8.014   7.971  64.958  1.00  0.00    -0.126 C  
BRANCH   6   7
HETATM    7  C   UNL     1      -8.812   9.267  64.816  1.00  0.00    -0.225 C  
BRANCH   7   8
HETATM    8  C   UNL     1      -8.463   9.989  63.517  1.00  0.00    -0.187 C  
BRANCH   8   9
HETATM    9  C   UNL     1      -9.641  10.817  63.012  1.00  0.00    -0.381 C  
BRANCH   9  10
HETATM   10  C   UNL     1     -10.569  11.198  64.165  1.00  0.00    -0.436 C  
BRANCH  10  11
HETATM   11  C   UNL     1     -11.710  12.102  63.704  1.00  0.00    -0.588 C  
BRANCH  11  12
HETATM   12  C   UNL     1     -12.327  12.826  64.900  1.00  0.00    -0.551 C  
BRANCH  12  13
HETATM   13  C   UNL     1     -11.303  13.084  66.000  1.00  0.00    -0.343 C  
BRANCH  13  14
HETATM   14  C   UNL     1     -11.781  12.501  67.309  1.00  0.00    -0.362 C  
HETATM   15  O   UNL     1     -11.946  11.308  67.529  1.00  0.00    -0.612 OA 
BRANCH  14  16
HETATM   16  O   UNL     1     -11.946  13.493  68.230  1.00  0.00    -0.356 OA 
BRANCH  16  17
HETATM   17  C   UNL     1     -10.728  13.963  68.832  1.00  0.00    -0.236 C  
BRANCH  17  18
HETATM   18  C   UNL     1     -10.972  15.222  69.675  1.00  0.00    -0.284 C  
BRANCH  18  19
HETATM   19  O   UNL     1     -12.299  15.142  70.246  1.00  0.00    -0.321 OA 
BRANCH  19  20
HETATM   20  C   UNL     1     -12.372  14.734  71.541  1.00  0.00    -0.344 C  
HETATM   21  O   UNL     1     -11.574  15.000  72.427  1.00  0.00    -0.374 OA 
BRANCH  20  22
HETATM   22  C   UNL     1     -13.615  13.907  71.754  1.00  0.00    -0.466 C  
BRANCH  22  23
HETATM   23  C   UNL     1     -13.281  12.506  72.252  1.00  0.00    -0.425 C  
BRANCH  23  24
HETATM   24  C   UNL     1     -12.304  11.774  71.329  1.00  0.00    -0.250 C  
BRANCH  24  25
HETATM   25  C   UNL     1     -12.929  10.497  70.769  1.00  0.00    -0.413 C  
BRANCH  25  26
HETATM   26  C   UNL     1     -11.863   9.439  70.504  1.00  0.00    -0.207 C  
BRANCH  26  27
HETATM   27  C   UNL     1     -10.881   9.335  71.667  1.00  0.00    -0.418 C  
BRANCH  27  28
HETATM   28  C   UNL     1     -11.201   8.126  72.543  1.00  0.00    -0.459 C  
BRANCH  28  29
HETATM   29  C   UNL     1     -10.013   7.759  73.429  1.00  0.00    -0.348 C  
BRANCH  29  30
HETATM   30  C   UNL     1      -8.905   7.100  72.612  1.00  0.00    -0.143 C  
BRANCH  30  31
HETATM   31  C   UNL     1      -8.894   5.586  72.820  1.00  0.00    -0.122 C  
BRANCH  31  32
HETATM   32  C   UNL     1      -9.850   4.893  71.851  1.00  0.00    -0.241 C  
BRANCH  32  33
HETATM   33  C   UNL     1      -9.090   4.040  70.838  1.00  0.00    -0.178 C  
HETATM   34  C   UNL     1      -9.087   2.576  71.243  1.00  0.00    -0.173 C  
ENDBRANCH  32  33
ENDBRANCH  31  32
ENDBRANCH  30  31
ENDBRANCH  29  30
ENDBRANCH  28  29
ENDBRANCH  27  28
ENDBRANCH  26  27
ENDBRANCH  25  26
ENDBRANCH  24  25
ENDBRANCH  23  24
ENDBRANCH  22  23
ENDBRANCH  20  22
ENDBRANCH  19  20
ENDBRANCH  18  19
BRANCH  18  35
HETATM   35  C   UNL     1     -10.927  16.455  68.775  1.00  0.00    -0.344 C  
BRANCH  35  36
HETATM   36  O   UNL     1     -10.081  16.234  67.637  1.00  0.00    -0.250 OA 
BRANCH  36  37
HETATM   37  P   UNL     1      -9.709  17.677  66.761  1.00  0.00    -0.328 P  
HETATM   38  O   UNL     1      -8.876  18.215  68.057  1.00  0.00    -0.266 OA 
HETATM   39  O   UNL     1      -8.844  16.826  65.853  1.00  0.00    -0.499 OA 
BRANCH  37  40
HETATM   40  O   UNL     1      -9.336  19.122  65.884  1.00  0.00    -0.433 OA 
BRANCH  40  41
HETATM   41  C   UNL     1      -8.720  20.209  66.634  1.00  0.00    -0.286 C  
BRANCH  41  42
HETATM   42  C   UNL     1      -7.277  20.632  66.248  1.00  0.00    -0.111 C  
HETATM   43  H   UNL     1      -5.686  21.381  67.156  1.00  0.00     0.000 HD 
HETATM   44  O   UNL     1      -6.569  21.122  67.392  1.00  0.00    -0.344 OA 
BRANCH  42  45
HETATM   45  C   UNL     1      -6.469  19.510  65.581  1.00  0.00    -0.240 C  
HETATM   46  O   UNL     1      -6.310  18.395  66.468  1.00  0.00    -0.170 OA 
HETATM   47  H   UNL     1      -5.810  17.701  66.055  1.00  0.00     0.000 HD 
ENDBRANCH  42  45
ENDBRANCH  41  42
ENDBRANCH  40  41
ENDBRANCH  37  40
ENDBRANCH  36  37
ENDBRANCH  35  36
ENDBRANCH  18  35
ENDBRANCH  17  18
ENDBRANCH  16  17
ENDBRANCH  14  16
ENDBRANCH  13  14
ENDBRANCH  12  13
ENDBRANCH  11  12
ENDBRANCH  10  11
ENDBRANCH   9  10
ENDBRANCH   8   9
ENDBRANCH   7   8
ENDBRANCH   6   7
ENDBRANCH   5   6
ENDBRANCH   4   5
ENDBRANCH   3   4
ENDBRANCH   2   3
TORSDOF 36
ENDMDL
MODEL       24
REMARK 921   NORMALIZED FREE ENERGY PREDICTED BY IDOCK:   -3.78 KCAL/MOL
REMARK 922        TOTAL FREE ENERGY PREDICTED BY IDOCK:  -17.20 KCAL/MOL
REMARK 923 INTER-LIGAND FREE ENERGY PREDICTED BY IDOCK:  -10.14 KCAL/MOL
REMARK 924 INTRA-LIGAND FREE ENERGY PREDICTED BY IDOCK:   -7.06 KCAL/MOL
REMARK 927      BINDING AFFINITY PREDICTED BY RF-SCORE:    0.00 PKD
ROOT
HETATM    1  C   UNL     1     -10.742  10.460  69.427  1.00  0.00    -0.277 C  
HETATM    2  C   UNL     1     -11.633  10.437  70.658  1.00  0.00    -0.440 C  
ENDROOT
BRANCH   2   3
HETATM    3  C   UNL     1     -11.740   9.028  71.239  1.00  0.00    -0.382 C  
BRANCH   3   4
HETATM    4  C   UNL     1     -10.971   8.015  70.392  1.00  0.00    -0.248 C  
BRANCH   4   5
HETATM    5  C   UNL     1     -11.626   6.636  70.460  1.00  0.00    -0.448 C  
BRANCH   5   6
HETATM    6  C   UNL     1     -10.650   5.535  70.047  1.00  0.00    -0.384 C  
BRANCH   6   7
HETATM    7  C   UNL     1      -9.207   5.946  70.338  1.00  0.00    -0.174 C  
BRANCH   7   8
HETATM    8  C   UNL     1      -8.238   4.804  70.045  1.00  0.00    -0.068 C  
BRANCH   8   9
HETATM    9  C   UNL     1      -7.073   5.275  69.178  1.00  0.00    -0.057 C  
BRANCH   9  10
HETATM   10  C   UNL     1      -7.130   4.624  67.797  1.00  0.00    -0.065 C  
BRANCH  10  11
HETATM   11  C   UNL     1      -8.470   4.866  67.107  1.00  0.00    -0.105 C  
BRANCH  11  12
HETATM   12  C   UNL     1      -8.360   6.040  66.135  1.00  0.00    -0.126 C  
BRANCH  12  13
HETATM   13  C   UNL     1      -8.647   7.373  66.817  1.00  0.00    -0.127 C  
BRANCH  13  14
HETATM   14  C   UNL     1     -10.088   7.772  66.606  1.00  0.00    -0.224 C  
HETATM   15  O   UNL     1     -11.058   7.086  66.901  1.00  0.00    -0.359 OA 
BRANCH  14  16
HETATM   16  O   UNL     1     -10.152   9.033  66.092  1.00  0.00    -0.290 OA 
BRANCH  16  17
HETATM   17  C   UNL     1      -9.096   9.363  65.174  1.00  0.00    -0.225 C  
BRANCH  17  18
HETATM   18  C   UNL     1      -8.633  10.815  65.353  1.00  0.00    -0.157 C  
BRANCH  18  19
HETATM   19  O   UNL     1      -8.156  10.980  66.710  1.00  0.00    -0.138 OA 
BRANCH  19  20
HETATM   20  C   UNL     1      -6.819  11.176  66.857  1.00  0.00    -0.127 C  
HETATM   21  O   UNL     1      -6.220  12.227  66.683  1.00  0.00    -0.130 OA 
BRANCH  20  22
HETATM   22  C   UNL     1      -6.154   9.896  67.297  1.00  0.00    -0.059 C  
BRANCH  22  23
HETATM   23  C   UNL     1      -5.303  10.103  68.544  1.00  0.00    -0.038 C  
BRANCH  23  24
HETATM   24  C   UNL     1      -5.662   9.128  69.667  1.00  0.00    -0.033 C  
BRANCH  24  25
HETATM   25  C   UNL     1      -7.175   9.031  69.848  1.00  0.00    -0.058 C  
BRANCH  25  26
HETATM   26  C   UNL     1      -7.547   9.001  71.327  1.00  0.00    -0.104 C  
BRANCH  26  27
HETATM   27  C   UNL     1      -6.815   7.882  72.062  1.00  0.00    -0.066 C  
BRANCH  27  28
HETATM   28  C   UNL     1      -7.550   7.501  73.344  1.00  0.00    -0.124 C  
BRANCH  28  29
HETATM   29  C   UNL     1      -8.992   8.003  73.322  1.00  0.00    -0.338 C  
BRANCH  29  30
HETATM   30  C   UNL     1      -9.947   6.949  73.874  1.00  0.00    -0.365 C  
BRANCH  30  31
HETATM   31  C   UNL     1      -9.199   5.674  74.257  1.00  0.00    -0.125 C  
BRANCH  31  32
HETATM   32  C   UNL     1     -10.173   4.533  74.545  1.00  0.00    -0.286 C  
BRANCH  32  33
HETATM   33  C   UNL     1     -10.871   4.066  73.269  1.00  0.00    -0.301 C  
HETATM   34  C   UNL     1     -10.277   2.763  72.762  1.00  0.00    -0.237 C  
ENDBRANCH  32  33
ENDBRANCH  31  32
ENDBRANCH  30  31
ENDBRANCH  29  30
ENDBRANCH  28  29
ENDBRANCH  27  28
ENDBRANCH  26  27
ENDBRANCH  25  26
ENDBRANCH  24  25
ENDBRANCH  23  24
ENDBRANCH  22  23
ENDBRANCH  20  22
ENDBRANCH  19  20
ENDBRANCH  18  19
BRANCH  18  35
HETATM   35  C   UNL     1      -9.820  11.756  65.160  1.00  0.00    -0.235 C  
BRANCH  35  36
HETATM   36  O   UNL     1     -10.210  12.358  66.403  1.00  0.00    -0.227 OA 
BRANCH  36  37
HETATM   37  P   UNL     1     -10.425  14.071  66.303  1.00  0.00    -0.300 P  
HETATM   38  O   UNL     1      -8.918  14.265  66.898  1.00  0.00    -0.231 OA 
HETATM   39  O   UNL     1     -10.417  13.920  64.796  1.00  0.00    -0.408 OA 
BRANCH  37  40
HETATM   40  O   UNL     1     -10.640  15.785  66.205  1.00  0.00    -0.304 OA 
BRANCH  40  41
HETATM   41  C   UNL     1     -10.754  16.511  67.463  1.00  0.00    -0.283 C  
BRANCH  41  42
HETATM   42  C   UNL     1      -9.786  17.700  67.708  1.00  0.00    -0.292 C  
HETATM   43  H   UNL     1      -7.927  17.961  68.334  1.00  0.00     0.000 HD 
HETATM   44  O   UNL     1      -8.519  17.233  68.184  1.00  0.00    -0.223 OA 
BRANCH  42  45
HETATM   45  C   UNL     1      -9.580  18.585  66.470  1.00  0.00    -0.329 C  
HETATM   46  O   UNL     1     -10.644  18.402  65.526  1.00  0.00    -0.627 OA 
HETATM   47  H   UNL     1     -10.517  18.949  64.760  1.00  0.00     0.000 HD 
ENDBRANCH  42  45
ENDBRANCH  41  42
ENDBRANCH  40  41
ENDBRANCH  37  40
ENDBRANCH  36  37
ENDBRANCH  35  36
ENDBRANCH  18  35
ENDBRANCH  17  18
ENDBRANCH  16  17
ENDBRANCH  14  16
ENDBRANCH  13  14
ENDBRANCH  12  13
ENDBRANCH  11  12
ENDBRANCH  10  11
ENDBRANCH   9  10
ENDBRANCH   8   9
ENDBRANCH   7   8
ENDBRANCH   6   7
ENDBRANCH   5   6
ENDBRANCH   4   5
ENDBRANCH   3   4
ENDBRANCH   2   3
TORSDOF 36
ENDMDL
MODEL       25
REMARK 921   NORMALIZED FREE ENERGY PREDICTED BY IDOCK:   -3.74 KCAL/MOL
REMARK 922        TOTAL FREE ENERGY PREDICTED BY IDOCK:  -17.09 KCAL/MOL
REMARK 923 INTER-LIGAND FREE ENERGY PREDICTED BY IDOCK:  -12.35 KCAL/MOL
REMARK 924 INTRA-LIGAND FREE ENERGY PREDICTED BY IDOCK:   -4.75 KCAL/MOL
REMARK 927      BINDING AFFINITY PREDICTED BY RF-SCORE:    0.00 PKD
ROOT
HETATM    1  C   UNL     1      -9.118   9.866  64.867  1.00  0.00    -0.271 C  
HETATM    2  C   UNL     1      -8.911  10.445  63.477  1.00  0.00    -0.218 C  
ENDROOT
BRANCH   2   3
HETATM    3  C   UNL     1      -9.908  11.566  63.188  1.00  0.00    -0.413 C  
BRANCH   3   4
HETATM    4  C   UNL     1     -11.149  11.451  64.073  1.00  0.00    -0.400 C  
BRANCH   4   5
HETATM    5  C   UNL     1     -12.164  12.541  63.734  1.00  0.00    -0.615 C  
BRANCH   5   6
HETATM    6  C   UNL     1     -11.872  13.830  64.501  1.00  0.00    -0.445 C  
BRANCH   6   7
HETATM    7  C   UNL     1     -12.765  13.945  65.737  1.00  0.00    -0.503 C  
BRANCH   7   8
HETATM    8  C   UNL     1     -11.960  13.748  67.018  1.00  0.00    -0.452 C  
BRANCH   8   9
HETATM    9  C   UNL     1     -10.464  13.907  66.762  1.00  0.00    -0.270 C  
BRANCH   9  10
HETATM   10  C   UNL     1      -9.673  12.821  67.491  1.00  0.00    -0.201 C  
BRANCH  10  11
HETATM   11  C   UNL     1      -8.233  13.250  67.762  1.00  0.00    -0.168 C  
BRANCH  11  12
HETATM   12  C   UNL     1      -7.257  12.256  67.134  1.00  0.00    -0.100 C  
BRANCH  12  13
HETATM   13  C   UNL     1      -5.912  12.247  67.852  1.00  0.00    -0.083 C  
BRANCH  13  14
HETATM   14  C   UNL     1      -6.045  11.587  69.205  1.00  0.00    -0.068 C  
HETATM   15  O   UNL     1      -6.368  12.160  70.237  1.00  0.00    -0.106 OA 
BRANCH  14  16
HETATM   16  O   UNL     1      -5.807  10.249  69.097  1.00  0.00    -0.038 OA 
BRANCH  16  17
HETATM   17  C   UNL     1      -6.880   9.494  68.508  1.00  0.00    -0.061 C  
BRANCH  17  18
HETATM   18  C   UNL     1      -7.730   8.801  69.581  1.00  0.00    -0.088 C  
BRANCH  18  19
HETATM   19  O   UNL     1      -8.972   9.531  69.725  1.00  0.00    -0.167 OA 
BRANCH  19  20
HETATM   20  C   UNL     1     -10.066   8.976  69.138  1.00  0.00    -0.195 C  
HETATM   21  O   UNL     1     -10.131   7.862  68.640  1.00  0.00    -0.186 OA 
BRANCH  20  22
HETATM   22  C   UNL     1     -11.230   9.933  69.205  1.00  0.00    -0.151 C  
BRANCH  22  23
HETATM   23  C   UNL     1     -11.386  10.533  70.597  1.00  0.00    -0.363 C  
BRANCH  23  24
HETATM   24  C   UNL     1     -12.230  11.810  70.593  1.00  0.00    -0.443 C  
BRANCH  24  25
HETATM   25  C   UNL     1     -13.279  11.780  71.703  1.00  0.00    -0.368 C  
BRANCH  25  26
HETATM   26  C   UNL     1     -13.357  13.126  72.417  1.00  0.00    -0.591 C  
BRANCH  26  27
HETATM   27  C   UNL     1     -13.307  14.284  71.425  1.00  0.00    -0.411 C  
BRANCH  27  28
HETATM   28  C   UNL     1     -12.044  15.117  71.625  1.00  0.00    -0.424 C  
BRANCH  28  29
HETATM   29  C   UNL     1     -11.666  15.858  70.344  1.00  0.00    -0.371 C  
BRANCH  29  30
HETATM   30  C   UNL     1     -10.199  15.625  69.991  1.00  0.00    -0.277 C  
BRANCH  30  31
HETATM   31  C   UNL     1      -9.667  16.737  69.088  1.00  0.00    -0.204 C  
BRANCH  31  32
HETATM   32  C   UNL     1     -10.748  17.226  68.126  1.00  0.00    -0.363 C  
BRANCH  32  33
HETATM   33  C   UNL     1     -10.168  18.173  67.077  1.00  0.00    -0.373 C  
HETATM   34  C   UNL     1      -9.494  19.369  67.728  1.00  0.00    -0.406 C  
ENDBRANCH  32  33
ENDBRANCH  31  32
ENDBRANCH  30  31
ENDBRANCH  29  30
ENDBRANCH  28  29
ENDBRANCH  27  28
ENDBRANCH  26  27
ENDBRANCH  25  26
ENDBRANCH  24  25
ENDBRANCH  23  24
ENDBRANCH  22  23
ENDBRANCH  20  22
ENDBRANCH  19  20
ENDBRANCH  18  19
BRANCH  18  35
HETATM   35  C   UNL     1      -7.002   8.856  70.922  1.00  0.00    -0.080 C  
BRANCH  35  36
HETATM   36  O   UNL     1      -7.886   9.267  71.975  1.00  0.00    -0.257 OA 
BRANCH  36  37
HETATM   37  P   UNL     1      -8.425   7.963  72.974  1.00  0.00    -0.219 P  
HETATM   38  O   UNL     1      -7.662   8.655  74.239  1.00  0.00    -0.390 OA 
HETATM   39  O   UNL     1      -9.831   8.501  72.806  1.00  0.00    -0.258 OA 
BRANCH  37  40
HETATM   40  O   UNL     1      -8.965   6.658  73.974  1.00  0.00    -0.142 OA 
BRANCH  40  41
HETATM   41  C   UNL     1     -10.404   6.493  74.127  1.00  0.00    -0.329 C  
BRANCH  41  42
HETATM   42  C   UNL     1     -11.088   5.326  73.365  1.00  0.00    -0.303 C  
HETATM   43  H   UNL     1     -11.521   4.866  71.490  1.00  0.00     0.000 HD 
HETATM   44  O   UNL     1     -11.103   5.580  71.956  1.00  0.00    -0.239 OA 
BRANCH  42  45
HETATM   45  C   UNL     1     -10.445   3.959  73.638  1.00  0.00    -0.185 C  
HETATM   46  O   UNL     1      -9.918   3.390  72.432  1.00  0.00    -0.150 OA 
HETATM   47  H   UNL     1      -9.520   2.544  72.601  1.00  0.00     0.000 HD 
ENDBRANCH  42  45
ENDBRANCH  41  42
ENDBRANCH  40  41
ENDBRANCH  37  40
ENDBRANCH  36  37
ENDBRANCH  35  36
ENDBRANCH  18  35
ENDBRANCH  17  18
ENDBRANCH  16  17
ENDBRANCH  14  16
ENDBRANCH  13  14
ENDBRANCH  12  13
ENDBRANCH  11  12
ENDBRANCH  10  11
ENDBRANCH   9  10
ENDBRANCH   8   9
ENDBRANCH   7   8
ENDBRANCH   6   7
ENDBRANCH   5   6
ENDBRANCH   4   5
ENDBRANCH   3   4
ENDBRANCH   2   3
TORSDOF 36
ENDMDL
MODEL       26
REMARK 921   NORMALIZED FREE ENERGY PREDICTED BY IDOCK:   -3.69 KCAL/MOL
REMARK 922        TOTAL FREE ENERGY PREDICTED BY IDOCK:  -16.93 KCAL/MOL
REMARK 923 INTER-LIGAND FREE ENERGY PREDICTED BY IDOCK:  -11.60 KCAL/MOL
REMARK 924 INTRA-LIGAND FREE ENERGY PREDICTED BY IDOCK:   -5.33 KCAL/MOL
REMARK 927      BINDING AFFINITY PREDICTED BY RF-SCORE:    0.00 PKD
ROOT
HETATM    1  C   UNL     1      -7.386   7.068  69.245  1.00  0.00    -0.092 C  
HETATM    2  C   UNL     1      -8.710   7.568  69.800  1.00  0.00    -0.140 C  
ENDROOT
BRANCH   2   3
HETATM    3  C   UNL     1      -8.513   8.803  70.677  1.00  0.00    -0.193 C  
BRANCH   3   4
HETATM    4  C   UNL     1      -9.151   8.619  72.053  1.00  0.00    -0.311 C  
BRANCH   4   5
HETATM    5  C   UNL     1      -8.119   8.145  73.075  1.00  0.00    -0.230 C  
BRANCH   5   6
HETATM    6  C   UNL     1      -8.793   7.577  74.324  1.00  0.00    -0.247 C  
BRANCH   6   7
HETATM    7  C   UNL     1      -8.400   6.117  74.542  1.00  0.00    -0.125 C  
BRANCH   7   8
HETATM    8  C   UNL     1      -8.169   5.403  73.213  1.00  0.00    -0.115 C  
BRANCH   8   9
HETATM    9  C   UNL     1      -9.316   4.450  72.890  1.00  0.00    -0.146 C  
BRANCH   9  10
HETATM   10  C   UNL     1     -10.155   4.988  71.731  1.00  0.00    -0.262 C  
BRANCH  10  11
HETATM   11  C   UNL     1     -11.325   5.839  72.220  1.00  0.00    -0.334 C  
BRANCH  11  12
HETATM   12  C   UNL     1     -11.941   6.612  71.055  1.00  0.00    -0.415 C  
BRANCH  12  13
HETATM   13  C   UNL     1     -13.296   7.209  71.421  1.00  0.00    -0.380 C  
BRANCH  13  14
HETATM   14  C   UNL     1     -13.142   8.661  71.808  1.00  0.00    -0.361 C  
HETATM   15  O   UNL     1     -13.606   9.173  72.818  1.00  0.00    -0.430 OA 
BRANCH  14  16
HETATM   16  O   UNL     1     -12.359   9.306  70.896  1.00  0.00    -0.264 OA 
BRANCH  16  17
HETATM   17  C   UNL     1     -12.767  10.653  70.599  1.00  0.00    -0.359 C  
BRANCH  17  18
HETATM   18  C   UNL     1     -12.004  11.214  69.392  1.00  0.00    -0.349 C  
BRANCH  18  19
HETATM   19  O   UNL     1     -11.278  10.131  68.764  1.00  0.00    -0.223 OA 
BRANCH  19  20
HETATM   20  C   UNL     1     -10.948  10.308  67.457  1.00  0.00    -0.280 C  
HETATM   21  O   UNL     1     -11.639  10.844  66.604  1.00  0.00    -0.188 OA 
BRANCH  20  22
HETATM   22  C   UNL     1      -9.568   9.760  67.194  1.00  0.00    -0.211 C  
BRANCH  22  23
HETATM   23  C   UNL     1      -8.784  10.646  66.232  1.00  0.00    -0.163 C  
BRANCH  23  24
HETATM   24  C   UNL     1      -7.444  11.100  66.814  1.00  0.00    -0.146 C  
BRANCH  24  25
HETATM   25  C   UNL     1      -7.578  11.453  68.294  1.00  0.00    -0.113 C  
BRANCH  25  26
HETATM   26  C   UNL     1      -6.565  12.522  68.694  1.00  0.00    -0.083 C  
BRANCH  26  27
HETATM   27  C   UNL     1      -7.213  13.901  68.770  1.00  0.00    -0.106 C  
BRANCH  27  28
HETATM   28  C   UNL     1      -6.229  14.989  68.347  1.00  0.00    -0.106 C  
BRANCH  28  29
HETATM   29  C   UNL     1      -5.732  15.780  69.554  1.00  0.00    -0.126 C  
BRANCH  29  30
HETATM   30  C   UNL     1      -6.277  17.205  69.536  1.00  0.00    -0.242 C  
BRANCH  30  31
HETATM   31  C   UNL     1      -7.064  17.478  68.254  1.00  0.00    -0.210 C  
BRANCH  31  32
HETATM   32  C   UNL     1      -8.387  18.178  68.563  1.00  0.00    -0.314 C  
BRANCH  32  33
HETATM   33  C   UNL     1      -8.903  18.945  67.348  1.00  0.00    -0.293 C  
HETATM   34  C   UNL     1     -10.359  19.342  67.525  1.00  0.00    -0.556 C  
ENDBRANCH  32  33
ENDBRANCH  31  32
ENDBRANCH  30  31
ENDBRANCH  29  30
ENDBRANCH  28  29
ENDBRANCH  27  28
ENDBRANCH  26  27
ENDBRANCH  25  26
ENDBRANCH  24  25
ENDBRANCH  23  24
ENDBRANCH  22  23
ENDBRANCH  20  22
ENDBRANCH  19  20
ENDBRANCH  18  19
BRANCH  18  35
HETATM   35  C   UNL     1     -10.981  12.243  69.870  1.00  0.00     0.436 C  
BRANCH  35  36
HETATM   36  O   UNL     1     -11.519  13.572  69.813  1.00  0.00    -0.248 OA 
BRANCH  36  37
HETATM   37  P   UNL     1     -11.830  14.124  68.204  1.00  0.00    -0.288 P  
HETATM   38  O   UNL     1     -11.812  15.658  68.759  1.00  0.00    -0.370 OA 
HETATM   39  O   UNL     1     -10.439  13.645  67.840  1.00  0.00    -0.238 OA 
BRANCH  37  40
HETATM   40  O   UNL     1     -12.140  14.678  66.594  1.00  0.00    -0.347 OA 
BRANCH  40  41
HETATM   41  C   UNL     1     -12.816  13.752  65.695  1.00  0.00    -0.408 C  
BRANCH  41  42
HETATM   42  C   UNL     1     -12.250  13.588  64.259  1.00  0.00    -0.396 C  
HETATM   43  H   UNL     1     -12.096  14.687  62.619  1.00  0.00     0.000 HD 
HETATM   44  O   UNL     1     -12.443  14.787  63.499  1.00  0.00    -0.642 OA 
BRANCH  42  45
HETATM   45  C   UNL     1     -10.768  13.188  64.228  1.00  0.00    -0.409 C  
HETATM   46  O   UNL     1      -9.963  14.144  64.930  1.00  0.00    -0.577 OA 
HETATM   47  H   UNL     1      -9.047  13.897  64.911  1.00  0.00     0.000 HD 
ENDBRANCH  42  45
ENDBRANCH  41  42
ENDBRANCH  40  41
ENDBRANCH  37  40
ENDBRANCH  36  37
ENDBRANCH  35  36
ENDBRANCH  18  35
ENDBRANCH  17  18
ENDBRANCH  16  17
ENDBRANCH  14  16
ENDBRANCH  13  14
ENDBRANCH  12  13
ENDBRANCH  11  12
ENDBRANCH  10  11
ENDBRANCH   9  10
ENDBRANCH   8   9
ENDBRANCH   7   8
ENDBRANCH   6   7
ENDBRANCH   5   6
ENDBRANCH   4   5
ENDBRANCH   3   4
ENDBRANCH   2   3
TORSDOF 36
ENDMDL
MODEL       27
REMARK 921   NORMALIZED FREE ENERGY PREDICTED BY IDOCK:   -3.65 KCAL/MOL
REMARK 922        TOTAL FREE ENERGY PREDICTED BY IDOCK:  -16.82 KCAL/MOL
REMARK 923 INTER-LIGAND FREE ENERGY PREDICTED BY IDOCK:  -10.96 KCAL/MOL
REMARK 924 INTRA-LIGAND FREE ENERGY PREDICTED BY IDOCK:   -5.86 KCAL/MOL
REMARK 927      BINDING AFFINITY PREDICTED BY RF-SCORE:    0.00 PKD
ROOT
HETATM    1  C   UNL     1     -10.901   5.809  66.922  1.00  0.00    -0.337 C  
HETATM    2  C   UNL     1      -9.530   5.449  66.374  1.00  0.00    -0.164 C  
ENDROOT
BRANCH   2   3
HETATM    3  C   UNL     1      -8.455   5.558  67.453  1.00  0.00    -0.109 C  
BRANCH   3   4
HETATM    4  C   UNL     1      -7.620   4.281  67.541  1.00  0.00    -0.073 C  
BRANCH   4   5
HETATM    5  C   UNL     1      -6.894   4.194  68.882  1.00  0.00    -0.047 C  
BRANCH   5   6
HETATM    6  C   UNL     1      -7.212   5.400  69.766  1.00  0.00    -0.064 C  
BRANCH   6   7
HETATM    7  C   UNL     1      -6.118   5.616  70.811  1.00  0.00    -0.030 C  
BRANCH   7   8
HETATM    8  C   UNL     1      -5.710   7.085  70.885  1.00  0.00    -0.027 C  
BRANCH   8   9
HETATM    9  C   UNL     1      -6.594   7.951  69.991  1.00  0.00    -0.037 C  
BRANCH   9  10
HETATM   10  C   UNL     1      -6.264   9.432  70.176  1.00  0.00    -0.055 C  
BRANCH  10  11
HETATM   11  C   UNL     1      -7.453  10.327  69.835  1.00  0.00    -0.165 C  
BRANCH  11  12
HETATM   12  C   UNL     1      -7.048  11.368  68.792  1.00  0.00    -0.102 C  
BRANCH  12  13
HETATM   13  C   UNL     1      -5.765  10.979  68.066  1.00  0.00    -0.042 C  
BRANCH  13  14
HETATM   14  C   UNL     1      -6.027  10.814  66.588  1.00  0.00    -0.089 C  
HETATM   15  O   UNL     1      -5.314  11.252  65.694  1.00  0.00    -0.238 OA 
BRANCH  14  16
HETATM   16  O   UNL     1      -7.144  10.057  66.393  1.00  0.00    -0.095 OA 
BRANCH  16  17
HETATM   17  C   UNL     1      -7.820  10.291  65.146  1.00  0.00    -0.138 C  
BRANCH  17  18
HETATM   18  C   UNL     1      -9.271  10.737  65.371  1.00  0.00    -0.205 C  
BRANCH  18  19
HETATM   19  O   UNL     1     -10.009   9.629  65.938  1.00  0.00    -0.285 OA 
BRANCH  19  20
HETATM   20  C   UNL     1     -10.108   9.604  67.294  1.00  0.00    -0.211 C  
HETATM   21  O   UNL     1      -9.763   8.689  68.026  1.00  0.00    -0.150 OA 
BRANCH  20  22
HETATM   22  C   UNL     1     -10.695  10.901  67.792  1.00  0.00    -0.279 C  
BRANCH  22  23
HETATM   23  C   UNL     1     -11.778  10.662  68.838  1.00  0.00    -0.282 C  
BRANCH  23  24
HETATM   24  C   UNL     1     -11.259  10.829  70.268  1.00  0.00    -0.326 C  
BRANCH  24  25
HETATM   25  C   UNL     1     -12.412  10.984  71.257  1.00  0.00    -0.475 C  
BRANCH  25  26
HETATM   26  C   UNL     1     -13.502   9.950  70.991  1.00  0.00    -0.257 C  
BRANCH  26  27
HETATM   27  C   UNL     1     -13.728   9.056  72.207  1.00  0.00    -0.550 C  
BRANCH  27  28
HETATM   28  C   UNL     1     -14.124   7.645  71.779  1.00  0.00    -0.510 C  
BRANCH  28  29
HETATM   29  C   UNL     1     -12.931   6.694  71.851  1.00  0.00    -0.163 C  
BRANCH  29  30
HETATM   30  C   UNL     1     -12.124   6.731  70.556  1.00  0.00    -0.332 C  
BRANCH  30  31
HETATM   31  C   UNL     1     -10.672   6.322  70.801  1.00  0.00    -0.312 C  
BRANCH  31  32
HETATM   32  C   UNL     1      -9.909   7.425  71.533  1.00  0.00    -0.185 C  
BRANCH  32  33
HETATM   33  C   UNL     1      -9.084   6.855  72.686  1.00  0.00    -0.150 C  
HETATM   34  C   UNL     1      -8.696   7.941  73.674  1.00  0.00    -0.329 C  
ENDBRANCH  32  33
ENDBRANCH  31  32
ENDBRANCH  30  31
ENDBRANCH  29  30
ENDBRANCH  28  29
ENDBRANCH  27  28
ENDBRANCH  26  27
ENDBRANCH  25  26
ENDBRANCH  24  25
ENDBRANCH  23  24
ENDBRANCH  22  23
ENDBRANCH  20  22
ENDBRANCH  19  20
ENDBRANCH  18  19
BRANCH  18  35
HETATM   35  C   UNL     1      -9.911  11.084  64.029  1.00  0.00    -0.313 C  
BRANCH  35  36
HETATM   36  O   UNL     1     -11.339  11.166  64.143  1.00  0.00    -0.191 OA 
BRANCH  36  37
HETATM   37  P   UNL     1     -11.895  12.664  64.802  1.00  0.00    -0.426 P  
HETATM   38  O   UNL     1     -11.190  13.442  63.553  1.00  0.00    -0.115 OA 
HETATM   39  O   UNL     1     -13.302  12.217  64.461  1.00  0.00    -0.769 OA 
BRANCH  37  40
HETATM   40  O   UNL     1     -12.452  14.164  65.461  1.00  0.00    -0.457 OA 
BRANCH  40  41
HETATM   41  C   UNL     1     -11.725  14.692  66.609  1.00  0.00    -0.333 C  
BRANCH  41  42
HETATM   42  C   UNL     1     -10.656  15.787  66.352  1.00  0.00    -0.307 C  
HETATM   43  H   UNL     1     -10.177  17.044  64.901  1.00  0.00     0.000 HD 
HETATM   44  O   UNL     1     -10.831  16.374  65.058  1.00  0.00    -0.591 OA 
BRANCH  42  45
HETATM   45  C   UNL     1     -10.640  16.889  67.422  1.00  0.00    -0.294 C  
HETATM   46  O   UNL     1     -10.289  18.155  66.850  1.00  0.00    -0.350 OA 
HETATM   47  H   UNL     1     -10.279  18.836  67.512  1.00  0.00     0.000 HD 
ENDBRANCH  42  45
ENDBRANCH  41  42
ENDBRANCH  40  41
ENDBRANCH  37  40
ENDBRANCH  36  37
ENDBRANCH  35  36
ENDBRANCH  18  35
ENDBRANCH  17  18
ENDBRANCH  16  17
ENDBRANCH  14  16
ENDBRANCH  13  14
ENDBRANCH  12  13
ENDBRANCH  11  12
ENDBRANCH  10  11
ENDBRANCH   9  10
ENDBRANCH   8   9
ENDBRANCH   7   8
ENDBRANCH   6   7
ENDBRANCH   5   6
ENDBRANCH   4   5
ENDBRANCH   3   4
ENDBRANCH   2   3
TORSDOF 36
ENDMDL
MODEL       28
REMARK 921   NORMALIZED FREE ENERGY PREDICTED BY IDOCK:   -3.62 KCAL/MOL
REMARK 922        TOTAL FREE ENERGY PREDICTED BY IDOCK:  -16.71 KCAL/MOL
REMARK 923 INTER-LIGAND FREE ENERGY PREDICTED BY IDOCK:  -12.25 KCAL/MOL
REMARK 924 INTRA-LIGAND FREE ENERGY PREDICTED BY IDOCK:   -4.45 KCAL/MOL
REMARK 927      BINDING AFFINITY PREDICTED BY RF-SCORE:    0.00 PKD
ROOT
HETATM    1  C   UNL     1     -10.855  15.581  65.398  1.00  0.00    -0.402 C  
HETATM    2  C   UNL     1     -11.903  14.866  64.562  1.00  0.00    -0.404 C  
ENDROOT
BRANCH   2   3
HETATM    3  C   UNL     1     -12.711  13.882  65.406  1.00  0.00    -0.525 C  
BRANCH   3   4
HETATM    4  C   UNL     1     -11.825  13.155  66.417  1.00  0.00    -0.455 C  
BRANCH   4   5
HETATM    5  C   UNL     1     -11.348  11.815  65.859  1.00  0.00    -0.324 C  
BRANCH   5   6
HETATM    6  C   UNL     1     -10.086  11.981  65.013  1.00  0.00    -0.293 C  
BRANCH   6   7
HETATM    7  C   UNL     1     -10.241  11.291  63.658  1.00  0.00    -0.446 C  
BRANCH   7   8
HETATM    8  C   UNL     1      -9.524   9.944  63.641  1.00  0.00    -0.154 C  
BRANCH   8   9
HETATM    9  C   UNL     1      -8.021  10.115  63.845  1.00  0.00    -0.153 C  
BRANCH   9  10
HETATM   10  C   UNL     1      -7.443   8.930  64.619  1.00  0.00    -0.104 C  
BRANCH  10  11
HETATM   11  C   UNL     1      -8.300   8.567  65.830  1.00  0.00    -0.144 C  
BRANCH  11  12
HETATM   12  C   UNL     1      -8.026   9.536  66.980  1.00  0.00    -0.109 C  
BRANCH  12  13
HETATM   13  C   UNL     1      -9.233   9.680  67.901  1.00  0.00    -0.134 C  
BRANCH  13  14
HETATM   14  C   UNL     1      -9.102  10.926  68.745  1.00  0.00    -0.171 C  
HETATM   15  O   UNL     1      -8.057  11.528  68.953  1.00  0.00    -0.123 OA 
BRANCH  14  16
HETATM   16  O   UNL     1     -10.329  11.316  69.195  1.00  0.00    -0.202 OA 
BRANCH  16  17
HETATM   17  C   UNL     1     -11.275  10.246  69.365  1.00  0.00    -0.239 C  
BRANCH  17  18
HETATM   18  C   UNL     1     -12.297  10.573  70.462  1.00  0.00    -0.343 C  
BRANCH  18  19
HETATM   19  O   UNL     1     -12.007  11.892  70.981  1.00  0.00    -0.158 OA 
BRANCH  19  20
HETATM   20  C   UNL     1     -13.057  12.572  71.515  1.00  0.00    -0.277 C  
HETATM   21  O   UNL     1     -13.901  12.117  72.272  1.00  0.00    -0.245 OA 
BRANCH  20  22
HETATM   22  C   UNL     1     -13.030  14.008  71.055  1.00  0.00    -0.378 C  
BRANCH  22  23
HETATM   23  C   UNL     1     -12.336  14.154  69.706  1.00  0.00    -0.350 C  
BRANCH  23  24
HETATM   24  C   UNL     1     -11.813  15.573  69.466  1.00  0.00    -0.390 C  
BRANCH  24  25
HETATM   25  C   UNL     1     -10.455  15.548  68.767  1.00  0.00    -0.234 C  
BRANCH  25  26
HETATM   26  C   UNL     1      -9.792  16.921  68.816  1.00  0.00    -0.269 C  
BRANCH  26  27
HETATM   27  C   UNL     1      -8.272  16.806  68.744  1.00  0.00    -0.250 C  
BRANCH  27  28
HETATM   28  C   UNL     1      -7.757  17.246  67.376  1.00  0.00    -0.194 C  
BRANCH  28  29
HETATM   29  C   UNL     1      -6.543  18.161  67.515  1.00  0.00    -0.197 C  
BRANCH  29  30
HETATM   30  C   UNL     1      -6.970  19.598  67.802  1.00  0.00    -0.284 C  
BRANCH  30  31
HETATM   31  C   UNL     1      -7.925  20.114  66.726  1.00  0.00    -0.343 C  
BRANCH  31  32
HETATM   32  C   UNL     1      -9.136  20.802  67.354  1.00  0.00    -0.321 C  
BRANCH  32  33
HETATM   33  C   UNL     1     -10.368  19.901  67.312  1.00  0.00    -0.574 C  
HETATM   34  C   UNL     1     -10.489  19.195  65.972  1.00  0.00    -0.546 C  
ENDBRANCH  32  33
ENDBRANCH  31  32
ENDBRANCH  30  31
ENDBRANCH  29  30
ENDBRANCH  28  29
ENDBRANCH  27  28
ENDBRANCH  26  27
ENDBRANCH  25  26
ENDBRANCH  24  25
ENDBRANCH  23  24
ENDBRANCH  22  23
ENDBRANCH  20  22
ENDBRANCH  19  20
ENDBRANCH  18  19
BRANCH  18  35
HETATM   35  C   UNL     1     -12.146   9.579  71.611  1.00  0.00    -0.398 C  
BRANCH  35  36
HETATM   36  O   UNL     1     -10.851   8.961  71.593  1.00  0.00    -0.296 OA 
BRANCH  36  37
HETATM   37  P   UNL     1     -10.849   7.378  70.897  1.00  0.00    -0.250 P  
HETATM   38  O   UNL     1      -9.296   7.206  71.364  1.00  0.00    -0.154 OA 
HETATM   39  O   UNL     1     -11.812   6.965  71.992  1.00  0.00    -0.291 OA 
BRANCH  37  40
HETATM   40  O   UNL     1     -10.847   5.794  70.200  1.00  0.00    -0.303 OA 
BRANCH  40  41
HETATM   41  C   UNL     1     -10.970   5.709  68.750  1.00  0.00    -0.035 C  
BRANCH  41  42
HETATM   42  C   UNL     1      -9.673   5.507  67.921  1.00  0.00    -0.131 C  
HETATM   43  H   UNL     1      -7.848   4.803  68.218  1.00  0.00     0.000 HD 
HETATM   44  O   UNL     1      -8.641   4.926  68.726  1.00  0.00    -0.089 OA 
BRANCH  42  45
HETATM   45  C   UNL     1      -9.882   4.661  66.657  1.00  0.00    -0.221 C  
HETATM   46  O   UNL     1     -10.295   5.479  65.554  1.00  0.00    -0.353 OA 
HETATM   47  H   UNL     1     -10.424   4.956  64.772  1.00  0.00     0.000 HD 
ENDBRANCH  42  45
ENDBRANCH  41  42
ENDBRANCH  40  41
ENDBRANCH  37  40
ENDBRANCH  36  37
ENDBRANCH  35  36
ENDBRANCH  18  35
ENDBRANCH  17  18
ENDBRANCH  16  17
ENDBRANCH  14  16
ENDBRANCH  13  14
ENDBRANCH  12  13
ENDBRANCH  11  12
ENDBRANCH  10  11
ENDBRANCH   9  10
ENDBRANCH   8   9
ENDBRANCH   7   8
ENDBRANCH   6   7
ENDBRANCH   5   6
ENDBRANCH   4   5
ENDBRANCH   3   4
ENDBRANCH   2   3
TORSDOF 36
ENDMDL
MODEL       29
REMARK 921   NORMALIZED FREE ENERGY PREDICTED BY IDOCK:   -3.59 KCAL/MOL
REMARK 922        TOTAL FREE ENERGY PREDICTED BY IDOCK:  -16.62 KCAL/MOL
REMARK 923 INTER-LIGAND FREE ENERGY PREDICTED BY IDOCK:  -11.22 KCAL/MOL
REMARK 924 INTRA-LIGAND FREE ENERGY PREDICTED BY IDOCK:   -5.40 KCAL/MOL
REMARK 927      BINDING AFFINITY PREDICTED BY RF-SCORE:    0.00 PKD
ROOT
HETATM    1  C   UNL     1      -5.421   7.770  69.416  1.00  0.00    -0.023 C  
HETATM    2  C   UNL     1      -6.848   7.998  69.886  1.00  0.00    -0.041 C  
ENDROOT
BRANCH   2   3
HETATM    3  C   UNL     1      -6.899   8.303  71.382  1.00  0.00    -0.062 C  
BRANCH   3   4
HETATM    4  C   UNL     1      -7.790   7.309  72.125  1.00  0.00    -0.092 C  
BRANCH   4   5
HETATM    5  C   UNL     1      -7.198   5.902  72.076  1.00  0.00    -0.092 C  
BRANCH   5   6
HETATM    6  C   UNL     1      -8.247   4.845  72.419  1.00  0.00    -0.119 C  
BRANCH   6   7
HETATM    7  C   UNL     1      -8.320   3.773  71.333  1.00  0.00    -0.085 C  
BRANCH   7   8
HETATM    8  C   UNL     1      -8.288   4.396  69.940  1.00  0.00    -0.075 C  
BRANCH   8   9
HETATM    9  C   UNL     1      -9.665   4.355  69.283  1.00  0.00    -0.252 C  
BRANCH   9  10
HETATM   10  C   UNL     1     -10.296   5.746  69.263  1.00  0.00    -0.326 C  
BRANCH  10  11
HETATM   11  C   UNL     1     -10.965   6.089  70.593  1.00  0.00    -0.376 C  
BRANCH  11  12
HETATM   12  C   UNL     1     -11.986   7.209  70.398  1.00  0.00    -0.190 C  
BRANCH  12  13
HETATM   13  C   UNL     1     -13.091   7.160  71.447  1.00  0.00    -0.408 C  
BRANCH  13  14
HETATM   14  C   UNL     1     -13.396   8.550  71.955  1.00  0.00    -0.372 C  
HETATM   15  O   UNL     1     -14.308   8.835  72.719  1.00  0.00    -0.569 OA 
BRANCH  14  16
HETATM   16  O   UNL     1     -12.470   9.432  71.483  1.00  0.00    -0.323 OA 
BRANCH  16  17
HETATM   17  C   UNL     1     -12.992  10.728  71.144  1.00  0.00    -0.371 C  
BRANCH  17  18
HETATM   18  C   UNL     1     -12.366  11.261  69.847  1.00  0.00    -0.233 C  
BRANCH  18  19
HETATM   19  O   UNL     1     -11.337  10.336  69.421  1.00  0.00    -0.239 OA 
BRANCH  19  20
HETATM   20  C   UNL     1     -11.063  10.315  68.089  1.00  0.00    -0.264 C  
HETATM   21  O   UNL     1     -11.659  10.933  67.220  1.00  0.00    -0.475 OA 
BRANCH  20  22
HETATM   22  C   UNL     1      -9.878   9.421  67.819  1.00  0.00    -0.207 C  
BRANCH  22  23
HETATM   23  C   UNL     1     -10.120   8.514  66.619  1.00  0.00    -0.364 C  
BRANCH  23  24
HETATM   24  C   UNL     1      -8.946   8.516  65.637  1.00  0.00    -0.209 C  
BRANCH  24  25
HETATM   25  C   UNL     1      -7.628   8.233  66.355  1.00  0.00    -0.091 C  
BRANCH  25  26
HETATM   26  C   UNL     1      -6.470   8.959  65.677  1.00  0.00    -0.063 C  
BRANCH  26  27
HETATM   27  C   UNL     1      -6.576  10.470  65.866  1.00  0.00    -0.129 C  
BRANCH  27  28
HETATM   28  C   UNL     1      -6.382  10.850  67.332  1.00  0.00    -0.064 C  
BRANCH  28  29
HETATM   29  C   UNL     1      -5.975  12.315  67.471  1.00  0.00    -0.136 C  
BRANCH  29  30
HETATM   30  C   UNL     1      -6.777  13.003  68.572  1.00  0.00    -0.092 C  
BRANCH  30  31
HETATM   31  C   UNL     1      -6.089  14.286  69.035  1.00  0.00    -0.092 C  
BRANCH  31  32
HETATM   32  C   UNL     1      -5.784  15.202  67.850  1.00  0.00    -0.149 C  
BRANCH  32  33
HETATM   33  C   UNL     1      -7.048  15.897  67.349  1.00  0.00    -0.230 C  
HETATM   34  C   UNL     1      -7.452  17.036  68.270  1.00  0.00    -0.207 C  
ENDBRANCH  32  33
ENDBRANCH  31  32
ENDBRANCH  30  31
ENDBRANCH  29  30
ENDBRANCH  28  29
ENDBRANCH  27  28
ENDBRANCH  26  27
ENDBRANCH  25  26
ENDBRANCH  24  25
ENDBRANCH  23  24
ENDBRANCH  22  23
ENDBRANCH  20  22
ENDBRANCH  19  20
ENDBRANCH  18  19
BRANCH  18  35
HETATM   35  C   UNL     1     -11.697  12.606  70.120  1.00  0.00    -0.168 C  
BRANCH  35  36
HETATM   36  O   UNL     1     -12.352  13.664  69.405  1.00  0.00    -0.292 OA 
BRANCH  36  37
HETATM   37  P   UNL     1     -11.380  14.360  68.156  1.00  0.00    -0.330 P  
HETATM   38  O   UNL     1     -11.732  15.839  68.748  1.00  0.00    -0.382 OA 
HETATM   39  O   UNL     1     -10.175  13.754  68.846  1.00  0.00    -0.201 OA 
BRANCH  37  40
HETATM   40  O   UNL     1     -10.407  15.059  66.907  1.00  0.00    -0.259 OA 
BRANCH  40  41
HETATM   41  C   UNL     1     -11.020  15.198  65.592  1.00  0.00    -0.355 C  
BRANCH  41  42
HETATM   42  C   UNL     1     -11.751  13.965  64.996  1.00  0.00    -0.359 C  
HETATM   43  H   UNL     1     -13.216  13.620  63.711  1.00  0.00     0.000 HD 
HETATM   44  O   UNL     1     -12.768  14.374  64.076  1.00  0.00    -0.739 OA 
BRANCH  42  45
HETATM   45  C   UNL     1     -10.807  12.965  64.313  1.00  0.00    -0.397 C  
HETATM   46  O   UNL     1     -11.217  12.711  62.964  1.00  0.00    -0.723 OA 
HETATM   47  H   UNL     1     -10.633  12.092  62.541  1.00  0.00     0.000 HD 
ENDBRANCH  42  45
ENDBRANCH  41  42
ENDBRANCH  40  41
ENDBRANCH  37  40
ENDBRANCH  36  37
ENDBRANCH  35  36
ENDBRANCH  18  35
ENDBRANCH  17  18
ENDBRANCH  16  17
ENDBRANCH  14  16
ENDBRANCH  13  14
ENDBRANCH  12  13
ENDBRANCH  11  12
ENDBRANCH  10  11
ENDBRANCH   9  10
ENDBRANCH   8   9
ENDBRANCH   7   8
ENDBRANCH   6   7
ENDBRANCH   5   6
ENDBRANCH   4   5
ENDBRANCH   3   4
ENDBRANCH   2   3
TORSDOF 36
ENDMDL
MODEL       30
REMARK 921   NORMALIZED FREE ENERGY PREDICTED BY IDOCK:   -3.59 KCAL/MOL
REMARK 922        TOTAL FREE ENERGY PREDICTED BY IDOCK:  -16.61 KCAL/MOL
REMARK 923 INTER-LIGAND FREE ENERGY PREDICTED BY IDOCK:  -11.16 KCAL/MOL
REMARK 924 INTRA-LIGAND FREE ENERGY PREDICTED BY IDOCK:   -5.45 KCAL/MOL
REMARK 927      BINDING AFFINITY PREDICTED BY RF-SCORE:    0.00 PKD
ROOT
HETATM    1  C   UNL     1     -10.351   5.557  66.770  1.00  0.00    -0.321 C  
HETATM    2  C   UNL     1     -10.557   4.579  65.625  1.00  0.00    -0.231 C  
ENDROOT
BRANCH   2   3
HETATM    3  C   UNL     1      -9.487   3.490  65.626  1.00  0.00    -0.142 C  
BRANCH   3   4
HETATM    4  C   UNL     1      -8.214   3.957  64.920  1.00  0.00    -0.093 C  
BRANCH   4   5
HETATM    5  C   UNL     1      -7.027   3.962  65.882  1.00  0.00    -0.065 C  
BRANCH   5   6
HETATM    6  C   UNL     1      -7.337   3.172  67.153  1.00  0.00    -0.062 C  
BRANCH   6   7
HETATM    7  C   UNL     1      -7.301   4.078  68.383  1.00  0.00    -0.059 C  
BRANCH   7   8
HETATM    8  C   UNL     1      -5.871   4.485  68.726  1.00  0.00    -0.025 C  
BRANCH   8   9
HETATM    9  C   UNL     1      -5.711   6.003  68.726  1.00  0.00    -0.012 C  
BRANCH   9  10
HETATM   10  C   UNL     1      -6.947   6.676  68.129  1.00  0.00    -0.077 C  
BRANCH  10  11
HETATM   11  C   UNL     1      -6.599   7.527  66.910  1.00  0.00    -0.061 C  
BRANCH  11  12
HETATM   12  C   UNL     1      -7.656   8.610  66.702  1.00  0.00    -0.089 C  
BRANCH  12  13
HETATM   13  C   UNL     1      -8.454   8.879  67.973  1.00  0.00    -0.126 C  
BRANCH  13  14
HETATM   14  C   UNL     1      -9.770   9.540  67.637  1.00  0.00    -0.154 C  
HETATM   15  O   UNL     1     -10.871   9.019  67.763  1.00  0.00    -0.194 OA 
BRANCH  14  16
HETATM   16  O   UNL     1      -9.557  10.823  67.228  1.00  0.00    -0.158 OA 
BRANCH  16  17
HETATM   17  C   UNL     1      -9.219  11.742  68.282  1.00  0.00    -0.188 C  
BRANCH  17  18
HETATM   18  C   UNL     1     -10.178  12.939  68.309  1.00  0.00    -0.245 C  
BRANCH  18  19
HETATM   19  O   UNL     1     -11.445  12.499  68.853  1.00  0.00    -0.263 OA 
BRANCH  19  20
HETATM   20  C   UNL     1     -11.960  13.252  69.861  1.00  0.00    -0.330 C  
HETATM   21  O   UNL     1     -12.012  14.473  69.897  1.00  0.00    -0.289 OA 
BRANCH  20  22
HETATM   22  C   UNL     1     -12.495  12.359  70.952  1.00  0.00    -0.367 C  
BRANCH  22  23
HETATM   23  C   UNL     1     -12.081  10.907  70.744  1.00  0.00    -0.469 C  
BRANCH  23  24
HETATM   24  C   UNL     1     -13.264   9.941  70.840  1.00  0.00    -0.309 C  
BRANCH  24  25
HETATM   25  C   UNL     1     -13.307   9.257  72.205  1.00  0.00    -0.547 C  
BRANCH  25  26
HETATM   26  C   UNL     1     -12.284   8.128  72.282  1.00  0.00    -0.397 C  
BRANCH  26  27
HETATM   27  C   UNL     1     -12.789   6.872  71.578  1.00  0.00    -0.384 C  
BRANCH  27  28
HETATM   28  C   UNL     1     -11.869   6.490  70.421  1.00  0.00    -0.378 C  
BRANCH  28  29
HETATM   29  C   UNL     1     -10.441   6.967  70.673  1.00  0.00    -0.229 C  
BRANCH  29  30
HETATM   30  C   UNL     1      -9.440   5.835  70.461  1.00  0.00    -0.201 C  
BRANCH  30  31
HETATM   31  C   UNL     1      -8.775   5.434  71.777  1.00  0.00    -0.138 C  
BRANCH  31  32
HETATM   32  C   UNL     1      -8.913   3.932  72.025  1.00  0.00    -0.150 C  
BRANCH  32  33
HETATM   33  C   UNL     1     -10.283   3.590  72.604  1.00  0.00    -0.241 C  
HETATM   34  C   UNL     1     -10.765   4.674  73.554  1.00  0.00    -0.334 C  
ENDBRANCH  32  33
ENDBRANCH  31  32
ENDBRANCH  30  31
ENDBRANCH  29  30
ENDBRANCH  28  29
ENDBRANCH  27  28
ENDBRANCH  26  27
ENDBRANCH  25  26
ENDBRANCH  24  25
ENDBRANCH  23  24
ENDBRANCH  22  23
ENDBRANCH  20  22
ENDBRANCH  19  20
ENDBRANCH  18  19
BRANCH  18  35
HETATM   35  C   UNL     1     -10.428  13.423  66.882  1.00  0.00    -0.273 C  
BRANCH  35  36
HETATM   36  O   UNL     1      -9.299  14.152  66.379  1.00  0.00    -0.275 OA 
BRANCH  36  37
HETATM   37  P   UNL     1      -9.638  15.817  66.059  1.00  0.00    -0.348 P  
HETATM   38  O   UNL     1     -11.231  15.485  66.170  1.00  0.00    -0.245 OA 
HETATM   39  O   UNL     1      -9.036  16.132  67.413  1.00  0.00    -0.193 OA 
BRANCH  37  40
HETATM   40  O   UNL     1      -9.978  17.484  65.739  1.00  0.00    -0.546 OA 
BRANCH  40  41
HETATM   41  C   UNL     1     -10.604  18.248  66.810  1.00  0.00    -0.312 C  
BRANCH  41  42
HETATM   42  C   UNL     1     -10.009  19.641  67.154  1.00  0.00    -0.387 C  
HETATM   43  H   UNL     1      -9.345  20.586  68.761  1.00  0.00     0.000 HD 
HETATM   44  O   UNL     1      -9.709  19.733  68.551  1.00  0.00    -0.371 OA 
BRANCH  42  45
HETATM   45  C   UNL     1      -8.761  19.992  66.331  1.00  0.00    -0.302 C  
HETATM   46  O   UNL     1      -8.103  21.148  66.865  1.00  0.00    -0.583 OA 
HETATM   47  H   UNL     1      -7.331  21.365  66.356  1.00  0.00     0.000 HD 
ENDBRANCH  42  45
ENDBRANCH  41  42
ENDBRANCH  40  41
ENDBRANCH  37  40
ENDBRANCH  36  37
ENDBRANCH  35  36
ENDBRANCH  18  35
ENDBRANCH  17  18
ENDBRANCH  16  17
ENDBRANCH  14  16
ENDBRANCH  13  14
ENDBRANCH  12  13
ENDBRANCH  11  12
ENDBRANCH  10  11
ENDBRANCH   9  10
ENDBRANCH   8   9
ENDBRANCH   7   8
ENDBRANCH   6   7
ENDBRANCH   5   6
ENDBRANCH   4   5
ENDBRANCH   3   4
ENDBRANCH   2   3
TORSDOF 36
ENDMDL
MODEL       31
REMARK 921   NORMALIZED FREE ENERGY PREDICTED BY IDOCK:   -3.57 KCAL/MOL
REMARK 922        TOTAL FREE ENERGY PREDICTED BY IDOCK:  -16.56 KCAL/MOL
REMARK 923 INTER-LIGAND FREE ENERGY PREDICTED BY IDOCK:  -11.65 KCAL/MOL
REMARK 924 INTRA-LIGAND FREE ENERGY PREDICTED BY IDOCK:   -4.91 KCAL/MOL
REMARK 927      BINDING AFFINITY PREDICTED BY RF-SCORE:    0.00 PKD
ROOT
HETATM    1  C   UNL     1     -11.846  14.863  64.458  1.00  0.00    -0.404 C  
HETATM    2  C   UNL     1     -12.124  13.515  63.813  1.00  0.00    -0.482 C  
ENDROOT
BRANCH   2   3
HETATM    3  C   UNL     1     -12.532  12.476  64.856  1.00  0.00    -0.524 C  
BRANCH   3   4
HETATM    4  C   UNL     1     -11.776  12.675  66.169  1.00  0.00    -0.461 C  
BRANCH   4   5
HETATM    5  C   UNL     1     -10.955  11.436  66.520  1.00  0.00    -0.328 C  
BRANCH   5   6
HETATM    6  C   UNL     1      -9.650  11.391  65.726  1.00  0.00    -0.260 C  
BRANCH   6   7
HETATM    7  C   UNL     1      -9.756  10.417  64.553  1.00  0.00    -0.393 C  
BRANCH   7   8
HETATM    8  C   UNL     1      -8.576   9.450  64.531  1.00  0.00    -0.219 C  
BRANCH   8   9
HETATM    9  C   UNL     1      -7.246  10.199  64.539  1.00  0.00    -0.119 C  
BRANCH   9  10
HETATM   10  C   UNL     1      -6.191   9.420  65.323  1.00  0.00    -0.066 C  
BRANCH  10  11
HETATM   11  C   UNL     1      -6.808   8.615  66.464  1.00  0.00    -0.072 C  
BRANCH  11  12
HETATM   12  C   UNL     1      -6.958   9.489  67.708  1.00  0.00    -0.080 C  
BRANCH  12  13
HETATM   13  C   UNL     1      -7.694   8.764  68.829  1.00  0.00    -0.097 C  
BRANCH  13  14
HETATM   14  C   UNL     1      -8.025   9.724  69.948  1.00  0.00    -0.175 C  
HETATM   15  O   UNL     1      -7.203  10.361  70.593  1.00  0.00    -0.259 OA 
BRANCH  14  16
HETATM   16  O   UNL     1      -9.377   9.821  70.094  1.00  0.00    -0.234 OA 
BRANCH  16  17
HETATM   17  C   UNL     1     -10.124   8.736  69.517  1.00  0.00    -0.202 C  
BRANCH  17  18
HETATM   18  C   UNL     1     -11.291   8.318  70.422  1.00  0.00    -0.175 C  
BRANCH  18  19
HETATM   19  O   UNL     1     -11.419   9.292  71.485  1.00  0.00    -0.331 OA 
BRANCH  19  20
HETATM   20  C   UNL     1     -12.684   9.561  71.904  1.00  0.00    -0.411 C  
HETATM   21  O   UNL     1     -13.512   8.741  72.272  1.00  0.00    -0.388 OA 
BRANCH  20  22
HETATM   22  C   UNL     1     -12.932  11.048  71.878  1.00  0.00    -0.485 C  
BRANCH  22  23
HETATM   23  C   UNL     1     -12.346  11.694  70.627  1.00  0.00    -0.437 C  
BRANCH  23  24
HETATM   24  C   UNL     1     -12.322  13.222  70.714  1.00  0.00    -0.425 C  
BRANCH  24  25
HETATM   25  C   UNL     1     -11.597  13.828  69.514  1.00  0.00    -0.355 C  
BRANCH  25  26
HETATM   26  C   UNL     1     -10.943  15.156  69.886  1.00  0.00    -0.291 C  
BRANCH  26  27
HETATM   27  C   UNL     1      -9.531  15.258  69.316  1.00  0.00    -0.242 C  
BRANCH  27  28
HETATM   28  C   UNL     1      -9.260  14.128  68.326  1.00  0.00    -0.198 C  
BRANCH  28  29
HETATM   29  C   UNL     1      -8.279  14.570  67.243  1.00  0.00    -0.230 C  
BRANCH  29  30
HETATM   30  C   UNL     1      -7.646  15.913  67.594  1.00  0.00    -0.171 C  
BRANCH  30  31
HETATM   31  C   UNL     1      -8.031  16.987  66.577  1.00  0.00    -0.330 C  
BRANCH  31  32
HETATM   32  C   UNL     1      -8.334  18.314  67.270  1.00  0.00    -0.246 C  
BRANCH  32  33
HETATM   33  C   UNL     1      -9.838  18.560  67.361  1.00  0.00    -0.330 C  
HETATM   34  C   UNL     1     -10.605  17.625  66.442  1.00  0.00    -0.208 C  
ENDBRANCH  32  33
ENDBRANCH  31  32
ENDBRANCH  30  31
ENDBRANCH  29  30
ENDBRANCH  28  29
ENDBRANCH  27  28
ENDBRANCH  26  27
ENDBRANCH  25  26
ENDBRANCH  24  25
ENDBRANCH  23  24
ENDBRANCH  22  23
ENDBRANCH  20  22
ENDBRANCH  19  20
ENDBRANCH  18  19
BRANCH  18  35
HETATM   35  C   UNL     1     -10.979   6.968  71.063  1.00  0.00    -0.251 C  
BRANCH  35  36
HETATM   36  O   UNL     1      -9.591   6.635  70.919  1.00  0.00    -0.174 OA 
BRANCH  36  37
HETATM   37  P   UNL     1      -9.319   5.134  70.105  1.00  0.00    -0.180 P  
HETATM   38  O   UNL     1      -7.714   5.357  70.291  1.00  0.00    -0.073 OA 
HETATM   39  O   UNL     1      -9.932   4.445  71.307  1.00  0.00    -0.187 OA 
BRANCH  37  40
HETATM   40  O   UNL     1      -9.047   3.633  69.289  1.00  0.00    -0.105 OA 
BRANCH  40  41
HETATM   41  C   UNL     1      -9.773   3.415  68.044  1.00  0.00     0.007 C  
BRANCH  41  42
HETATM   42  C   UNL     1      -9.056   3.768  66.713  1.00  0.00    -0.159 C  
HETATM   43  H   UNL     1      -8.838   2.964  64.918  1.00  0.00     0.000 HD 
HETATM   44  O   UNL     1      -9.277   2.748  65.733  1.00  0.00    -0.149 OA 
BRANCH  42  45
HETATM   45  C   UNL     1      -9.466   5.133  66.142  1.00  0.00    -0.159 C  
HETATM   46  O   UNL     1     -10.871   5.362  66.317  1.00  0.00    -0.589 OA 
HETATM   47  H   UNL     1     -11.124   6.206  65.964  1.00  0.00     0.000 HD 
ENDBRANCH  42  45
ENDBRANCH  41  42
ENDBRANCH  40  41
ENDBRANCH  37  40
ENDBRANCH  36  37
ENDBRANCH  35  36
ENDBRANCH  18  35
ENDBRANCH  17  18
ENDBRANCH  16  17
ENDBRANCH  14  16
ENDBRANCH  13  14
ENDBRANCH  12  13
ENDBRANCH  11  12
ENDBRANCH  10  11
ENDBRANCH   9  10
ENDBRANCH   8   9
ENDBRANCH   7   8
ENDBRANCH   6   7
ENDBRANCH   5   6
ENDBRANCH   4   5
ENDBRANCH   3   4
ENDBRANCH   2   3
TORSDOF 36
ENDMDL
MODEL       32
REMARK 921   NORMALIZED FREE ENERGY PREDICTED BY IDOCK:   -3.56 KCAL/MOL
REMARK 922        TOTAL FREE ENERGY PREDICTED BY IDOCK:  -16.53 KCAL/MOL
REMARK 923 INTER-LIGAND FREE ENERGY PREDICTED BY IDOCK:  -12.06 KCAL/MOL
REMARK 924 INTRA-LIGAND FREE ENERGY PREDICTED BY IDOCK:   -4.46 KCAL/MOL
REMARK 927      BINDING AFFINITY PREDICTED BY RF-SCORE:    0.00 PKD
ROOT
HETATM    1  C   UNL     1     -10.332   4.525  66.110  1.00  0.00    -0.258 C  
HETATM    2  C   UNL     1     -10.331   3.951  64.703  1.00  0.00    -0.213 C  
ENDROOT
BRANCH   2   3
HETATM    3  C   UNL     1      -8.923   3.937  64.111  1.00  0.00    -0.129 C  
BRANCH   3   4
HETATM    4  C   UNL     1      -8.873   4.669  62.770  1.00  0.00    -0.127 C  
BRANCH   4   5
HETATM    5  C   UNL     1      -8.009   5.925  62.864  1.00  0.00    -0.108 C  
BRANCH   5   6
HETATM    6  C   UNL     1      -7.272   5.993  64.201  1.00  0.00    -0.057 C  
BRANCH   6   7
HETATM    7  C   UNL     1      -7.445   7.365  64.853  1.00  0.00    -0.087 C  
BRANCH   7   8
HETATM    8  C   UNL     1      -6.614   8.424  64.135  1.00  0.00    -0.071 C  
BRANCH   8   9
HETATM    9  C   UNL     1      -7.359   9.754  64.059  1.00  0.00    -0.128 C  
BRANCH   9  10
HETATM   10  C   UNL     1      -8.789   9.602  64.575  1.00  0.00    -0.257 C  
BRANCH  10  11
HETATM   11  C   UNL     1      -9.781  10.424  63.755  1.00  0.00    -0.351 C  
BRANCH  11  12
HETATM   12  C   UNL     1     -10.671  11.256  64.679  1.00  0.00    -0.371 C  
BRANCH  12  13
HETATM   13  C   UNL     1     -10.099  11.347  66.090  1.00  0.00    -0.271 C  
BRANCH  13  14
HETATM   14  C   UNL     1     -11.162  11.810  67.058  1.00  0.00    -0.322 C  
HETATM   15  O   UNL     1     -11.960  11.079  67.628  1.00  0.00    -0.583 OA 
BRANCH  14  16
HETATM   16  O   UNL     1     -11.062  13.157  67.250  1.00  0.00    -0.265 OA 
BRANCH  16  17
HETATM   17  C   UNL     1     -10.294  13.545  68.401  1.00  0.00    -0.248 C  
BRANCH  17  18
HETATM   18  C   UNL     1     -11.099  14.469  69.325  1.00  0.00    -0.270 C  
BRANCH  18  19
HETATM   19  O   UNL     1     -12.295  13.770  69.743  1.00  0.00    -0.319 OA 
BRANCH  19  20
HETATM   20  C   UNL     1     -12.725  14.019  71.009  1.00  0.00    -0.361 C  
HETATM   21  O   UNL     1     -12.857  15.119  71.523  1.00  0.00    -0.315 OA 
BRANCH  20  22
HETATM   22  C   UNL     1     -13.048  12.723  71.709  1.00  0.00    -0.455 C  
BRANCH  22  23
HETATM   23  C   UNL     1     -12.524  11.519  70.935  1.00  0.00    -0.464 C  
BRANCH  23  24
HETATM   24  C   UNL     1     -13.259  10.226  71.295  1.00  0.00    -0.447 C  
BRANCH  24  25
HETATM   25  C   UNL     1     -12.307   9.210  71.926  1.00  0.00    -0.455 C  
BRANCH  25  26
HETATM   26  C   UNL     1     -11.445   8.537  70.863  1.00  0.00    -0.302 C  
BRANCH  26  27
HETATM   27  C   UNL     1     -11.109   7.099  71.249  1.00  0.00    -0.275 C  
BRANCH  27  28
HETATM   28  C   UNL     1     -11.275   6.163  70.054  1.00  0.00    -0.471 C  
BRANCH  28  29
HETATM   29  C   UNL     1     -10.884   6.859  68.753  1.00  0.00    -0.238 C  
BRANCH  29  30
HETATM   30  C   UNL     1      -9.367   6.932  68.606  1.00  0.00    -0.135 C  
BRANCH  30  31
HETATM   31  C   UNL     1      -8.931   8.287  68.051  1.00  0.00    -0.138 C  
BRANCH  31  32
HETATM   32  C   UNL     1      -7.556   8.683  68.589  1.00  0.00    -0.097 C  
BRANCH  32  33
HETATM   33  C   UNL     1      -6.987   9.877  67.827  1.00  0.00    -0.085 C  
HETATM   34  C   UNL     1      -7.176  11.168  68.606  1.00  0.00    -0.098 C  
ENDBRANCH  32  33
ENDBRANCH  31  32
ENDBRANCH  30  31
ENDBRANCH  29  30
ENDBRANCH  28  29
ENDBRANCH  27  28
ENDBRANCH  26  27
ENDBRANCH  25  26
ENDBRANCH  24  25
ENDBRANCH  23  24
ENDBRANCH  22  23
ENDBRANCH  20  22
ENDBRANCH  19  20
ENDBRANCH  18  19
BRANCH  18  35
HETATM   35  C   UNL     1     -11.534  15.711  68.549  1.00  0.00    -0.375 C  
BRANCH  35  36
HETATM   36  O   UNL     1     -10.611  16.010  67.492  1.00  0.00    -0.302 OA 
BRANCH  36  37
HETATM   37  P   UNL     1     -10.138  17.672  67.436  1.00  0.00    -0.359 P  
HETATM   38  O   UNL     1     -10.500  17.799  69.022  1.00  0.00    -0.332 OA 
HETATM   39  O   UNL     1      -8.716  17.194  67.223  1.00  0.00    -0.197 OA 
BRANCH  37  40
HETATM   40  O   UNL     1      -9.666  19.336  67.381  1.00  0.00    -0.307 OA 
BRANCH  40  41
HETATM   41  C   UNL     1      -8.353  19.669  67.919  1.00  0.00    -0.313 C  
BRANCH  41  42
HETATM   42  C   UNL     1      -7.436  20.598  67.079  1.00  0.00    -0.297 C  
HETATM   43  H   UNL     1      -5.757  21.613  67.341  1.00  0.00     0.000 HD 
HETATM   44  O   UNL     1      -6.319  21.044  67.855  1.00  0.00    -0.324 OA 
BRANCH  42  45
HETATM   45  C   UNL     1      -6.938  19.951  65.778  1.00  0.00    -0.296 C  
HETATM   46  O   UNL     1      -6.445  18.627  66.020  1.00  0.00    -0.192 OA 
HETATM   47  H   UNL     1      -6.137  18.227  65.215  1.00  0.00     0.000 HD 
ENDBRANCH  42  45
ENDBRANCH  41  42
ENDBRANCH  40  41
ENDBRANCH  37  40
ENDBRANCH  36  37
ENDBRANCH  35  36
ENDBRANCH  18  35
ENDBRANCH  17  18
ENDBRANCH  16  17
ENDBRANCH  14  16
ENDBRANCH  13  14
ENDBRANCH  12  13
ENDBRANCH  11  12
ENDBRANCH  10  11
ENDBRANCH   9  10
ENDBRANCH   8   9
ENDBRANCH   7   8
ENDBRANCH   6   7
ENDBRANCH   5   6
ENDBRANCH   4   5
ENDBRANCH   3   4
ENDBRANCH   2   3
TORSDOF 36
ENDMDL
MODEL       33
REMARK 921   NORMALIZED FREE ENERGY PREDICTED BY IDOCK:   -3.50 KCAL/MOL
REMARK 922        TOTAL FREE ENERGY PREDICTED BY IDOCK:  -16.32 KCAL/MOL
REMARK 923 INTER-LIGAND FREE ENERGY PREDICTED BY IDOCK:  -12.24 KCAL/MOL
REMARK 924 INTRA-LIGAND FREE ENERGY PREDICTED BY IDOCK:   -4.08 KCAL/MOL
REMARK 927      BINDING AFFINITY PREDICTED BY RF-SCORE:    0.00 PKD
ROOT
HETATM    1  C   UNL     1     -10.173   3.166  63.424  1.00  0.00    -0.183 C  
HETATM    2  C   UNL     1     -10.834   4.076  64.445  1.00  0.00    -0.152 C  
ENDROOT
BRANCH   2   3
HETATM    3  C   UNL     1     -10.027   4.134  65.741  1.00  0.00    -0.200 C  
BRANCH   3   4
HETATM    4  C   UNL     1     -10.629   5.133  66.729  1.00  0.00    -0.266 C  
BRANCH   4   5
HETATM    5  C   UNL     1      -9.800   5.202  68.011  1.00  0.00    -0.199 C  
BRANCH   5   6
HETATM    6  C   UNL     1     -10.065   6.498  68.776  1.00  0.00    -0.178 C  
BRANCH   6   7
HETATM    7  C   UNL     1     -11.330   6.383  69.626  1.00  0.00    -0.479 C  
BRANCH   7   8
HETATM    8  C   UNL     1     -11.030   5.734  70.974  1.00  0.00    -0.300 C  
BRANCH   8   9
HETATM    9  C   UNL     1     -11.734   6.471  72.111  1.00  0.00    -0.353 C  
BRANCH   9  10
HETATM   10  C   UNL     1     -12.756   7.465  71.560  1.00  0.00    -0.409 C  
BRANCH  10  11
HETATM   11  C   UNL     1     -12.596   8.850  72.183  1.00  0.00    -0.467 C  
BRANCH  11  12
HETATM   12  C   UNL     1     -12.531   9.917  71.091  1.00  0.00    -0.464 C  
BRANCH  12  13
HETATM   13  C   UNL     1     -13.020  11.272  71.589  1.00  0.00    -0.537 C  
BRANCH  13  14
HETATM   14  C   UNL     1     -12.423  12.384  70.757  1.00  0.00    -0.267 C  
HETATM   15  O   UNL     1     -12.211  13.522  71.154  1.00  0.00    -0.330 OA 
BRANCH  14  16
HETATM   16  O   UNL     1     -12.102  11.917  69.517  1.00  0.00    -0.282 OA 
BRANCH  16  17
HETATM   17  C   UNL     1     -11.221  12.768  68.764  1.00  0.00    -0.283 C  
BRANCH  17  18
HETATM   18  C   UNL     1     -11.983  13.536  67.675  1.00  0.00    -0.336 C  
BRANCH  18  19
HETATM   19  O   UNL     1     -11.726  12.901  66.400  1.00  0.00    -0.355 OA 
BRANCH  19  20
HETATM   20  C   UNL     1     -10.486  13.091  65.874  1.00  0.00    -0.281 C  
HETATM   21  O   UNL     1      -9.423  12.891  66.442  1.00  0.00    -0.251 OA 
BRANCH  20  22
HETATM   22  C   UNL     1     -10.598  13.573  64.449  1.00  0.00    -0.394 C  
BRANCH  22  23
HETATM   23  C   UNL     1     -11.155  12.492  63.531  1.00  0.00    -0.497 C  
BRANCH  23  24
HETATM   24  C   UNL     1     -10.581  11.107  63.841  1.00  0.00    -0.431 C  
BRANCH  24  25
HETATM   25  C   UNL     1      -9.641  10.641  62.731  1.00  0.00    -0.333 C  
BRANCH  25  26
HETATM   26  C   UNL     1      -8.182  10.810  63.144  1.00  0.00    -0.017 C  
BRANCH  26  27
HETATM   27  C   UNL     1      -7.656   9.562  63.848  1.00  0.00    -0.122 C  
BRANCH  27  28
HETATM   28  C   UNL     1      -7.924   9.631  65.349  1.00  0.00    -0.120 C  
BRANCH  28  29
HETATM   29  C   UNL     1      -8.603   8.357  65.845  1.00  0.00    -0.179 C  
BRANCH  29  30
HETATM   30  C   UNL     1      -7.880   7.116  65.331  1.00  0.00    -0.119 C  
BRANCH  30  31
HETATM   31  C   UNL     1      -6.966   6.525  66.404  1.00  0.00    -0.066 C  
BRANCH  31  32
HETATM   32  C   UNL     1      -5.853   5.688  65.776  1.00  0.00    -0.024 C  
BRANCH  32  33
HETATM   33  C   UNL     1      -6.145   4.194  65.904  1.00  0.00    -0.031 C  
HETATM   34  C   UNL     1      -6.501   3.586  64.558  1.00  0.00    -0.035 C  
ENDBRANCH  32  33
ENDBRANCH  31  32
ENDBRANCH  30  31
ENDBRANCH  29  30
ENDBRANCH  28  29
ENDBRANCH  27  28
ENDBRANCH  26  27
ENDBRANCH  25  26
ENDBRANCH  24  25
ENDBRANCH  23  24
ENDBRANCH  22  23
ENDBRANCH  20  22
ENDBRANCH  19  20
ENDBRANCH  18  19
BRANCH  18  35
HETATM   35  C   UNL     1     -11.455  14.966  67.596  1.00  0.00    -0.352 C  
BRANCH  35  36
HETATM   36  O   UNL     1     -10.721  15.312  68.779  1.00  0.00    -0.227 OA 
BRANCH  36  37
HETATM   37  P   UNL     1      -9.589  16.598  68.541  1.00  0.00    -0.257 P  
HETATM   38  O   UNL     1      -8.463  15.712  69.320  1.00  0.00    -0.237 OA 
HETATM   39  O   UNL     1      -9.632  16.274  67.061  1.00  0.00    -0.224 OA 
BRANCH  37  40
HETATM   40  O   UNL     1      -8.457  17.885  68.302  1.00  0.00    -0.262 OA 
BRANCH  40  41
HETATM   41  C   UNL     1      -8.999  19.177  67.901  1.00  0.00    -0.303 C  
BRANCH  41  42
HETATM   42  C   UNL     1      -8.223  19.990  66.830  1.00  0.00    -0.318 C  
HETATM   43  H   UNL     1      -7.192  21.677  66.744  1.00  0.00     0.000 HD 
HETATM   44  O   UNL     1      -7.667  21.179  67.400  1.00  0.00    -0.341 OA 
BRANCH  42  45
HETATM   45  C   UNL     1      -7.118  19.184  66.132  1.00  0.00    -0.252 C  
HETATM   46  O   UNL     1      -7.655  18.008  65.512  1.00  0.00    -0.530 OA 
HETATM   47  H   UNL     1      -6.971  17.509  65.080  1.00  0.00     0.000 HD 
ENDBRANCH  42  45
ENDBRANCH  41  42
ENDBRANCH  40  41
ENDBRANCH  37  40
ENDBRANCH  36  37
ENDBRANCH  35  36
ENDBRANCH  18  35
ENDBRANCH  17  18
ENDBRANCH  16  17
ENDBRANCH  14  16
ENDBRANCH  13  14
ENDBRANCH  12  13
ENDBRANCH  11  12
ENDBRANCH  10  11
ENDBRANCH   9  10
ENDBRANCH   8   9
ENDBRANCH   7   8
ENDBRANCH   6   7
ENDBRANCH   5   6
ENDBRANCH   4   5
ENDBRANCH   3   4
ENDBRANCH   2   3
TORSDOF 36
ENDMDL
MODEL       34
REMARK 921   NORMALIZED FREE ENERGY PREDICTED BY IDOCK:   -3.48 KCAL/MOL
REMARK 922        TOTAL FREE ENERGY PREDICTED BY IDOCK:  -16.26 KCAL/MOL
REMARK 923 INTER-LIGAND FREE ENERGY PREDICTED BY IDOCK:  -11.27 KCAL/MOL
REMARK 924 INTRA-LIGAND FREE ENERGY PREDICTED BY IDOCK:   -5.00 KCAL/MOL
REMARK 927      BINDING AFFINITY PREDICTED BY RF-SCORE:    0.00 PKD
ROOT
HETATM    1  C   UNL     1      -7.396   6.894  68.907  1.00  0.00    -0.094 C  
HETATM    2  C   UNL     1      -8.548   7.484  69.703  1.00  0.00    -0.136 C  
ENDROOT
BRANCH   2   3
HETATM    3  C   UNL     1      -8.062   8.572  70.659  1.00  0.00    -0.119 C  
BRANCH   3   4
HETATM    4  C   UNL     1      -8.898   8.605  71.938  1.00  0.00    -0.275 C  
BRANCH   4   5
HETATM    5  C   UNL     1      -8.102   8.067  73.126  1.00  0.00    -0.231 C  
BRANCH   5   6
HETATM    6  C   UNL     1      -9.010   7.351  74.125  1.00  0.00    -0.270 C  
BRANCH   6   7
HETATM    7  C   UNL     1      -8.539   5.917  74.362  1.00  0.00    -0.115 C  
BRANCH   7   8
HETATM    8  C   UNL     1      -8.342   5.176  73.043  1.00  0.00    -0.112 C  
BRANCH   8   9
HETATM    9  C   UNL     1      -9.556   4.315  72.705  1.00  0.00    -0.175 C  
BRANCH   9  10
HETATM   10  C   UNL     1     -10.312   4.893  71.509  1.00  0.00    -0.228 C  
BRANCH  10  11
HETATM   11  C   UNL     1     -11.354   5.923  71.938  1.00  0.00    -0.307 C  
BRANCH  11  12
HETATM   12  C   UNL     1     -11.831   6.727  70.729  1.00  0.00    -0.446 C  
BRANCH  12  13
HETATM   13  C   UNL     1     -13.131   7.471  71.016  1.00  0.00    -0.145 C  
BRANCH  13  14
HETATM   14  C   UNL     1     -12.866   8.669  71.899  1.00  0.00    -0.369 C  
HETATM   15  O   UNL     1     -13.196   8.763  73.073  1.00  0.00    -0.292 OA 
BRANCH  14  16
HETATM   16  O   UNL     1     -12.153   9.606  71.211  1.00  0.00    -0.319 OA 
BRANCH  16  17
HETATM   17  C   UNL     1     -12.910  10.760  70.807  1.00  0.00    -0.320 C  
BRANCH  17  18
HETATM   18  C   UNL     1     -12.343  11.378  69.522  1.00  0.00    -0.145 C  
BRANCH  18  19
HETATM   19  O   UNL     1     -11.308  10.504  69.011  1.00  0.00    -0.249 OA 
BRANCH  19  20
HETATM   20  C   UNL     1     -10.968  10.676  67.706  1.00  0.00    -0.306 C  
HETATM   21  O   UNL     1     -11.655  11.205  66.844  1.00  0.00    -0.428 OA 
BRANCH  20  22
HETATM   22  C   UNL     1      -9.583  10.133  67.457  1.00  0.00    -0.180 C  
BRANCH  22  23
HETATM   23  C   UNL     1      -8.780  11.043  66.534  1.00  0.00    -0.169 C  
BRANCH  23  24
HETATM   24  C   UNL     1      -7.446  11.471  67.150  1.00  0.00    -0.142 C  
BRANCH  24  25
HETATM   25  C   UNL     1      -7.578  11.679  68.658  1.00  0.00    -0.133 C  
BRANCH  25  26
HETATM   26  C   UNL     1      -6.462  12.576  69.184  1.00  0.00    -0.099 C  
BRANCH  26  27
HETATM   27  C   UNL     1      -6.857  14.048  69.125  1.00  0.00    -0.112 C  
BRANCH  27  28
HETATM   28  C   UNL     1      -5.624  14.938  68.998  1.00  0.00    -0.096 C  
BRANCH  28  29
HETATM   29  C   UNL     1      -5.380  15.726  70.283  1.00  0.00    -0.146 C  
BRANCH  29  30
HETATM   30  C   UNL     1      -5.707  17.204  70.089  1.00  0.00    -0.221 C  
BRANCH  30  31
HETATM   31  C   UNL     1      -6.310  17.458  68.709  1.00  0.00    -0.188 C  
BRANCH  31  32
HETATM   32  C   UNL     1      -6.882  18.872  68.613  1.00  0.00    -0.302 C  
BRANCH  32  33
HETATM   33  C   UNL     1      -6.464  19.551  67.311  1.00  0.00    -0.210 C  
HETATM   34  C   UNL     1      -7.199  20.866  67.115  1.00  0.00    -0.395 C  
ENDBRANCH  32  33
ENDBRANCH  31  32
ENDBRANCH  30  31
ENDBRANCH  29  30
ENDBRANCH  28  29
ENDBRANCH  27  28
ENDBRANCH  26  27
ENDBRANCH  25  26
ENDBRANCH  24  25
ENDBRANCH  23  24
ENDBRANCH  22  23
ENDBRANCH  20  22
ENDBRANCH  19  20
ENDBRANCH  18  19
BRANCH  18  35
HETATM   35  C   UNL     1     -11.696  12.723  69.847  1.00  0.00    -0.251 C  
BRANCH  35  36
HETATM   36  O   UNL     1     -12.433  13.806  69.262  1.00  0.00    -0.241 OA 
BRANCH  36  37
HETATM   37  P   UNL     1     -11.440  14.941  68.415  1.00  0.00    -0.330 P  
HETATM   38  O   UNL     1     -11.712  16.022  69.606  1.00  0.00    -0.328 OA 
HETATM   39  O   UNL     1     -10.260  14.045  68.731  1.00  0.00    -0.231 OA 
BRANCH  37  40
HETATM   40  O   UNL     1     -10.447  16.077  67.568  1.00  0.00    -0.284 OA 
BRANCH  40  41
HETATM   41  C   UNL     1     -10.193  17.352  68.226  1.00  0.00    -0.362 C  
BRANCH  41  42
HETATM   42  C   UNL     1     -10.767  18.636  67.569  1.00  0.00    -0.394 C  
HETATM   43  H   UNL     1     -10.849  20.571  67.978  1.00  0.00     0.000 HD 
HETATM   44  O   UNL     1     -10.497  19.785  68.381  1.00  0.00    -0.431 OA 
BRANCH  42  45
HETATM   45  C   UNL     1     -10.250  18.876  66.143  1.00  0.00    -0.433 C  
HETATM   46  O   UNL     1      -9.306  17.867  65.763  1.00  0.00    -0.507 OA 
HETATM   47  H   UNL     1      -8.987  18.015  64.881  1.00  0.00     0.000 HD 
ENDBRANCH  42  45
ENDBRANCH  41  42
ENDBRANCH  40  41
ENDBRANCH  37  40
ENDBRANCH  36  37
ENDBRANCH  35  36
ENDBRANCH  18  35
ENDBRANCH  17  18
ENDBRANCH  16  17
ENDBRANCH  14  16
ENDBRANCH  13  14
ENDBRANCH  12  13
ENDBRANCH  11  12
ENDBRANCH  10  11
ENDBRANCH   9  10
ENDBRANCH   8   9
ENDBRANCH   7   8
ENDBRANCH   6   7
ENDBRANCH   5   6
ENDBRANCH   4   5
ENDBRANCH   3   4
ENDBRANCH   2   3
TORSDOF 36
ENDMDL
MODEL       35
REMARK 921   NORMALIZED FREE ENERGY PREDICTED BY IDOCK:   -3.42 KCAL/MOL
REMARK 922        TOTAL FREE ENERGY PREDICTED BY IDOCK:  -16.07 KCAL/MOL
REMARK 923 INTER-LIGAND FREE ENERGY PREDICTED BY IDOCK:  -11.65 KCAL/MOL
REMARK 924 INTRA-LIGAND FREE ENERGY PREDICTED BY IDOCK:   -4.42 KCAL/MOL
REMARK 927      BINDING AFFINITY PREDICTED BY RF-SCORE:    0.00 PKD
ROOT
HETATM    1  C   UNL     1      -8.291   3.783  63.228  1.00  0.00    -0.090 C  
HETATM    2  C   UNL     1      -9.582   4.160  63.936  1.00  0.00    -0.141 C  
ENDROOT
BRANCH   2   3
HETATM    3  C   UNL     1      -9.363   4.326  65.438  1.00  0.00    -0.164 C  
BRANCH   3   4
HETATM    4  C   UNL     1     -10.524   5.075  66.092  1.00  0.00    -0.334 C  
BRANCH   4   5
HETATM    5  C   UNL     1     -10.016   6.061  67.143  1.00  0.00    -0.186 C  
BRANCH   5   6
HETATM    6  C   UNL     1     -11.153   6.558  68.035  1.00  0.00    -0.332 C  
BRANCH   6   7
HETATM    7  C   UNL     1     -11.100   5.894  69.410  1.00  0.00    -0.369 C  
BRANCH   7   8
HETATM    8  C   UNL     1      -9.702   5.988  70.015  1.00  0.00    -0.202 C  
BRANCH   8   9
HETATM    9  C   UNL     1      -9.758   6.437  71.473  1.00  0.00    -0.182 C  
BRANCH   9  10
HETATM   10  C   UNL     1     -11.179   6.313  72.021  1.00  0.00    -0.327 C  
BRANCH  10  11
HETATM   11  C   UNL     1     -11.661   7.617  72.654  1.00  0.00    -0.323 C  
BRANCH  11  12
HETATM   12  C   UNL     1     -12.426   8.452  71.627  1.00  0.00    -0.363 C  
BRANCH  12  13
HETATM   13  C   UNL     1     -13.308   9.503  72.292  1.00  0.00    -0.526 C  
BRANCH  13  14
HETATM   14  C   UNL     1     -13.151  10.836  71.598  1.00  0.00    -0.446 C  
HETATM   15  O   UNL     1     -13.383  11.925  72.106  1.00  0.00    -0.503 OA 
BRANCH  14  16
HETATM   16  O   UNL     1     -12.657  10.651  70.340  1.00  0.00    -0.335 OA 
BRANCH  16  17
HETATM   17  C   UNL     1     -11.742  11.668  69.898  1.00  0.00    -0.337 C  
BRANCH  17  18
HETATM   18  C   UNL     1     -12.014  12.069  68.442  1.00  0.00    -0.194 C  
BRANCH  18  19
HETATM   19  O   UNL     1     -11.445  11.060  67.574  1.00  0.00    -0.468 OA 
BRANCH  19  20
HETATM   20  C   UNL     1     -10.193  10.633  67.889  1.00  0.00    -0.177 C  
HETATM   21  O   UNL     1      -9.905   9.813  68.748  1.00  0.00    -0.160 OA 
BRANCH  20  22
HETATM   22  C   UNL     1      -9.178  11.306  66.999  1.00  0.00    -0.173 C  
BRANCH  22  23
HETATM   23  C   UNL     1      -9.363  10.914  65.538  1.00  0.00    -0.237 C  
BRANCH  23  24
HETATM   24  C   UNL     1      -9.210   9.408  65.312  1.00  0.00    -0.299 C  
BRANCH  24  25
HETATM   25  C   UNL     1      -8.642   9.116  63.924  1.00  0.00    -0.188 C  
BRANCH  25  26
HETATM   26  C   UNL     1      -7.301   8.396  64.025  1.00  0.00    -0.105 C  
BRANCH  26  27
HETATM   27  C   UNL     1      -6.950   8.073  65.474  1.00  0.00    -0.059 C  
BRANCH  27  28
HETATM   28  C   UNL     1      -6.691   6.579  65.651  1.00  0.00    -0.048 C  
BRANCH  28  29
HETATM   29  C   UNL     1      -6.557   6.216  67.128  1.00  0.00    -0.055 C  
BRANCH  29  30
HETATM   30  C   UNL     1      -6.265   4.728  67.301  1.00  0.00    -0.035 C  
BRANCH  30  31
HETATM   31  C   UNL     1      -7.057   4.142  68.469  1.00  0.00    -0.055 C  
BRANCH  31  32
HETATM   32  C   UNL     1      -7.855   2.916  68.030  1.00  0.00    -0.059 C  
BRANCH  32  33
HETATM   33  C   UNL     1      -8.994   2.620  69.003  1.00  0.00    -0.171 C  
HETATM   34  C   UNL     1      -8.486   2.522  70.431  1.00  0.00    -0.090 C  
ENDBRANCH  32  33
ENDBRANCH  31  32
ENDBRANCH  30  31
ENDBRANCH  29  30
ENDBRANCH  28  29
ENDBRANCH  27  28
ENDBRANCH  26  27
ENDBRANCH  25  26
ENDBRANCH  24  25
ENDBRANCH  23  24
ENDBRANCH  22  23
ENDBRANCH  20  22
ENDBRANCH  19  20
ENDBRANCH  18  19
BRANCH  18  35
HETATM   35  C   UNL     1     -11.313  13.391  68.139  1.00  0.00    -0.287 C  
BRANCH  35  36
HETATM   36  O   UNL     1     -11.655  13.870  66.831  1.00  0.00    -0.339 OA 
BRANCH  36  37
HETATM   37  P   UNL     1     -10.712  15.228  66.323  1.00  0.00    -0.303 P  
HETATM   38  O   UNL     1      -9.672  14.926  67.543  1.00  0.00    -0.211 OA 
HETATM   39  O   UNL     1     -10.361  14.437  65.079  1.00  0.00    -0.402 OA 
BRANCH  37  40
HETATM   40  O   UNL     1      -9.768  16.587  65.815  1.00  0.00    -0.469 OA 
BRANCH  40  41
HETATM   41  C   UNL     1     -10.322  17.910  66.072  1.00  0.00    -0.318 C  
BRANCH  41  42
HETATM   42  C   UNL     1      -9.546  18.849  67.034  1.00  0.00    -0.312 C  
HETATM   43  H   UNL     1      -9.645  20.736  67.624  1.00  0.00     0.000 HD 
HETATM   44  O   UNL     1     -10.120  20.161  67.035  1.00  0.00    -0.428 OA 
BRANCH  42  45
HETATM   45  C   UNL     1      -9.465  18.318  68.473  1.00  0.00    -0.331 C  
HETATM   46  O   UNL     1     -10.106  19.217  69.388  1.00  0.00    -0.522 OA 
HETATM   47  H   UNL     1     -10.056  18.889  70.278  1.00  0.00     0.000 HD 
ENDBRANCH  42  45
ENDBRANCH  41  42
ENDBRANCH  40  41
ENDBRANCH  37  40
ENDBRANCH  36  37
ENDBRANCH  35  36
ENDBRANCH  18  35
ENDBRANCH  17  18
ENDBRANCH  16  17
ENDBRANCH  14  16
ENDBRANCH  13  14
ENDBRANCH  12  13
ENDBRANCH  11  12
ENDBRANCH  10  11
ENDBRANCH   9  10
ENDBRANCH   8   9
ENDBRANCH   7   8
ENDBRANCH   6   7
ENDBRANCH   5   6
ENDBRANCH   4   5
ENDBRANCH   3   4
ENDBRANCH   2   3
TORSDOF 36
ENDMDL
MODEL       36
REMARK 921   NORMALIZED FREE ENERGY PREDICTED BY IDOCK:   -3.40 KCAL/MOL
REMARK 922        TOTAL FREE ENERGY PREDICTED BY IDOCK:  -16.04 KCAL/MOL
REMARK 923 INTER-LIGAND FREE ENERGY PREDICTED BY IDOCK:  -11.00 KCAL/MOL
REMARK 924 INTRA-LIGAND FREE ENERGY PREDICTED BY IDOCK:   -5.04 KCAL/MOL
REMARK 927      BINDING AFFINITY PREDICTED BY RF-SCORE:    0.00 PKD
ROOT
HETATM    1  C   UNL     1     -12.060  13.400  67.013  1.00  0.00    -0.390 C  
HETATM    2  C   UNL     1     -11.684  14.856  67.238  1.00  0.00    -0.308 C  
ENDROOT
BRANCH   2   3
HETATM    3  C   UNL     1     -10.473  14.980  68.161  1.00  0.00    -0.245 C  
BRANCH   3   4
HETATM    4  C   UNL     1     -10.887  14.937  69.632  1.00  0.00    -0.269 C  
BRANCH   4   5
HETATM    5  C   UNL     1     -12.166  15.739  69.863  1.00  0.00    -0.271 C  
BRANCH   5   6
HETATM    6  C   UNL     1     -12.741  15.480  71.255  1.00  0.00    -0.526 C  
BRANCH   6   7
HETATM    7  C   UNL     1     -13.681  14.275  71.244  1.00  0.00    -0.328 C  
BRANCH   7   8
HETATM    8  C   UNL     1     -13.298  13.266  72.322  1.00  0.00    -0.630 C  
BRANCH   8   9
HETATM    9  C   UNL     1     -13.041  11.886  71.722  1.00  0.00    -0.465 C  
BRANCH   9  10
HETATM   10  C   UNL     1     -12.285  12.004  70.399  1.00  0.00    -0.379 C  
BRANCH  10  11
HETATM   11  C   UNL     1     -11.688  10.668  69.962  1.00  0.00    -0.405 C  
BRANCH  11  12
HETATM   12  C   UNL     1     -10.532  10.898  68.989  1.00  0.00    -0.244 C  
BRANCH  12  13
HETATM   13  C   UNL     1     -10.630   9.995  67.765  1.00  0.00    -0.311 C  
BRANCH  13  14
HETATM   14  C   UNL     1      -9.259   9.508  67.360  1.00  0.00    -0.133 C  
HETATM   15  O   UNL     1      -8.204  10.059  67.647  1.00  0.00    -0.113 OA 
BRANCH  14  16
HETATM   16  O   UNL     1      -9.364   8.333  66.676  1.00  0.00    -0.166 OA 
BRANCH  16  17
HETATM   17  C   UNL     1     -10.579   7.604  66.918  1.00  0.00    -0.289 C  
BRANCH  17  18
HETATM   18  C   UNL     1     -10.295   6.124  67.206  1.00  0.00    -0.219 C  
BRANCH  18  19
HETATM   19  O   UNL     1     -11.052   5.320  66.271  1.00  0.00    -0.156 OA 
BRANCH  19  20
HETATM   20  C   UNL     1     -10.328   4.528  65.436  1.00  0.00    -0.199 C  
HETATM   21  O   UNL     1     -10.768   3.861  64.512  1.00  0.00    -0.252 OA 
BRANCH  20  22
HETATM   22  C   UNL     1      -8.865   4.600  65.795  1.00  0.00    -0.127 C  
BRANCH  22  23
HETATM   23  C   UNL     1      -7.976   4.466  64.564  1.00  0.00    -0.091 C  
BRANCH  23  24
HETATM   24  C   UNL     1      -6.539   4.921  64.827  1.00  0.00    -0.043 C  
BRANCH  24  25
HETATM   25  C   UNL     1      -5.973   5.674  63.625  1.00  0.00    -0.024 C  
BRANCH  25  26
HETATM   26  C   UNL     1      -5.349   6.998  64.055  1.00  0.00    -0.028 C  
BRANCH  26  27
HETATM   27  C   UNL     1      -6.351   7.864  64.814  1.00  0.00    -0.048 C  
BRANCH  27  28
HETATM   28  C   UNL     1      -7.351   8.505  63.855  1.00  0.00    -0.104 C  
BRANCH  28  29
HETATM   29  C   UNL     1      -7.405  10.019  64.048  1.00  0.00    -0.132 C  
BRANCH  29  30
HETATM   30  C   UNL     1      -8.189  10.686  62.922  1.00  0.00    -0.129 C  
BRANCH  30  31
HETATM   31  C   UNL     1      -9.684  10.392  63.040  1.00  0.00    -0.288 C  
BRANCH  31  32
HETATM   32  C   UNL     1     -10.312  11.198  64.177  1.00  0.00    -0.423 C  
BRANCH  32  33
HETATM   33  C   UNL     1     -10.947  12.485  63.657  1.00  0.00    -0.507 C  
HETATM   34  C   UNL     1     -12.442  12.317  63.449  1.00  0.00    -0.592 C  
ENDBRANCH  32  33
ENDBRANCH  31  32
ENDBRANCH  30  31
ENDBRANCH  29  30
ENDBRANCH  28  29
ENDBRANCH  27  28
ENDBRANCH  26  27
ENDBRANCH  25  26
ENDBRANCH  24  25
ENDBRANCH  23  24
ENDBRANCH  22  23
ENDBRANCH  20  22
ENDBRANCH  19  20
ENDBRANCH  18  19
BRANCH  18  35
HETATM   35  C   UNL     1     -10.777   5.778  68.613  1.00  0.00    -0.233 C  
BRANCH  35  36
HETATM   36  O   UNL     1     -10.829   6.946  69.444  1.00  0.00    -0.236 OA 
BRANCH  36  37
HETATM   37  P   UNL     1     -10.050   6.743  70.974  1.00  0.00    -0.189 P  
HETATM   38  O   UNL     1      -9.044   7.969  70.592  1.00  0.00    -0.149 OA 
HETATM   39  O   UNL     1     -11.326   7.246  71.618  1.00  0.00    -0.245 OA 
BRANCH  37  40
HETATM   40  O   UNL     1      -9.270   6.540  72.506  1.00  0.00    -0.137 OA 
BRANCH  40  41
HETATM   41  C   UNL     1      -8.811   5.198  72.841  1.00  0.00    -0.117 C  
BRANCH  41  42
HETATM   42  C   UNL     1      -9.711   3.999  72.437  1.00  0.00    -0.151 C  
HETATM   43  H   UNL     1      -9.477   2.082  72.006  1.00  0.00     0.000 HD 
HETATM   44  O   UNL     1      -8.926   2.816  72.253  1.00  0.00    -0.082 OA 
BRANCH  42  45
HETATM   45  C   UNL     1     -10.841   3.720  73.438  1.00  0.00    -0.222 C  
HETATM   46  O   UNL     1     -11.684   4.870  73.594  1.00  0.00    -0.399 OA 
HETATM   47  H   UNL     1     -12.383   4.697  74.213  1.00  0.00     0.000 HD 
ENDBRANCH  42  45
ENDBRANCH  41  42
ENDBRANCH  40  41
ENDBRANCH  37  40
ENDBRANCH  36  37
ENDBRANCH  35  36
ENDBRANCH  18  35
ENDBRANCH  17  18
ENDBRANCH  16  17
ENDBRANCH  14  16
ENDBRANCH  13  14
ENDBRANCH  12  13
ENDBRANCH  11  12
ENDBRANCH  10  11
ENDBRANCH   9  10
ENDBRANCH   8   9
ENDBRANCH   7   8
ENDBRANCH   6   7
ENDBRANCH   5   6
ENDBRANCH   4   5
ENDBRANCH   3   4
ENDBRANCH   2   3
TORSDOF 36
ENDMDL
MODEL       37
REMARK 921   NORMALIZED FREE ENERGY PREDICTED BY IDOCK:   -3.36 KCAL/MOL
REMARK 922        TOTAL FREE ENERGY PREDICTED BY IDOCK:  -15.91 KCAL/MOL
REMARK 923 INTER-LIGAND FREE ENERGY PREDICTED BY IDOCK:  -10.45 KCAL/MOL
REMARK 924 INTRA-LIGAND FREE ENERGY PREDICTED BY IDOCK:   -5.46 KCAL/MOL
REMARK 927      BINDING AFFINITY PREDICTED BY RF-SCORE:    0.00 PKD
ROOT
HETATM    1  C   UNL     1      -6.206  20.682  68.207  1.00  0.00    -0.363 C  
HETATM    2  C   UNL     1      -7.124  19.771  69.005  1.00  0.00    -0.358 C  
ENDROOT
BRANCH   2   3
HETATM    3  C   UNL     1      -6.610  18.333  69.012  1.00  0.00    -0.263 C  
BRANCH   3   4
HETATM    4  C   UNL     1      -6.807  17.662  67.653  1.00  0.00    -0.185 C  
BRANCH   4   5
HETATM    5  C   UNL     1      -6.887  16.144  67.800  1.00  0.00    -0.165 C  
BRANCH   5   6
HETATM    6  C   UNL     1      -6.050  15.654  68.981  1.00  0.00    -0.107 C  
BRANCH   6   7
HETATM    7  C   UNL     1      -6.070  14.129  69.072  1.00  0.00    -0.093 C  
BRANCH   7   8
HETATM    8  C   UNL     1      -6.948  13.523  67.981  1.00  0.00    -0.133 C  
BRANCH   8   9
HETATM    9  C   UNL     1      -6.193  12.459  67.189  1.00  0.00    -0.085 C  
BRANCH   9  10
HETATM   10  C   UNL     1      -7.123  11.310  66.804  1.00  0.00    -0.143 C  
BRANCH  10  11
HETATM   11  C   UNL     1      -8.225  11.097  67.840  1.00  0.00    -0.121 C  
BRANCH  11  12
HETATM   12  C   UNL     1      -9.219  10.046  67.346  1.00  0.00    -0.153 C  
BRANCH  12  13
HETATM   13  C   UNL     1      -9.566   9.036  68.434  1.00  0.00    -0.163 C  
BRANCH  13  14
HETATM   14  C   UNL     1     -10.206   7.809  67.827  1.00  0.00    -0.212 C  
HETATM   15  O   UNL     1     -10.741   7.767  66.727  1.00  0.00    -0.311 OA 
BRANCH  14  16
HETATM   16  O   UNL     1     -10.047   6.741  68.658  1.00  0.00    -0.149 OA 
BRANCH  16  17
HETATM   17  C   UNL     1     -11.271   6.208  69.193  1.00  0.00    -0.339 C  
BRANCH  17  18
HETATM   18  C   UNL     1     -11.217   6.111  70.723  1.00  0.00    -0.306 C  
BRANCH  18  19
HETATM   19  O   UNL     1     -10.721   7.366  71.245  1.00  0.00    -0.221 OA 
BRANCH  19  20
HETATM   20  C   UNL     1     -11.594   8.095  71.990  1.00  0.00    -0.330 C  
HETATM   21  O   UNL     1     -11.738   8.031  73.202  1.00  0.00    -0.268 OA 
BRANCH  20  22
HETATM   22  C   UNL     1     -12.370   9.036  71.103  1.00  0.00    -0.306 C  
BRANCH  22  23
HETATM   23  C   UNL     1     -12.977  10.186  71.897  1.00  0.00    -0.549 C  
BRANCH  23  24
HETATM   24  C   UNL     1     -12.769  11.542  71.217  1.00  0.00    -0.469 C  
BRANCH  24  25
HETATM   25  C   UNL     1     -11.906  11.401  69.965  1.00  0.00    -0.440 C  
BRANCH  25  26
HETATM   26  C   UNL     1     -11.780  12.736  69.236  1.00  0.00    -0.376 C  
BRANCH  26  27
HETATM   27  C   UNL     1     -11.872  12.555  67.724  1.00  0.00    -0.375 C  
BRANCH  27  28
HETATM   28  C   UNL     1     -11.062  13.626  66.998  1.00  0.00    -0.313 C  
BRANCH  28  29
HETATM   29  C   UNL     1     -10.435  14.606  67.986  1.00  0.00    -0.236 C  
BRANCH  29  30
HETATM   30  C   UNL     1     -10.785  16.047  67.625  1.00  0.00    -0.320 C  
BRANCH  30  31
HETATM   31  C   UNL     1     -10.502  16.992  68.792  1.00  0.00    -0.347 C  
BRANCH  31  32
HETATM   32  C   UNL     1     -10.391  18.438  68.311  1.00  0.00    -0.384 C  
BRANCH  32  33
HETATM   33  C   UNL     1     -10.178  18.504  66.800  1.00  0.00    -0.423 C  
HETATM   34  C   UNL     1     -10.269  19.933  66.293  1.00  0.00    -0.614 C  
ENDBRANCH  32  33
ENDBRANCH  31  32
ENDBRANCH  30  31
ENDBRANCH  29  30
ENDBRANCH  28  29
ENDBRANCH  27  28
ENDBRANCH  26  27
ENDBRANCH  25  26
ENDBRANCH  24  25
ENDBRANCH  23  24
ENDBRANCH  22  23
ENDBRANCH  20  22
ENDBRANCH  19  20
ENDBRANCH  18  19
BRANCH  18  35
HETATM   35  C   UNL     1     -10.233   5.017  71.130  1.00  0.00    -0.211 C  
BRANCH  35  36
HETATM   36  O   UNL     1      -9.044   5.578  71.704  1.00  0.00    -0.141 OA 
BRANCH  36  37
HETATM   37  P   UNL     1      -7.604   5.197  70.826  1.00  0.00    -0.082 P  
HETATM   38  O   UNL     1      -7.264   6.790  70.748  1.00  0.00    -0.067 OA 
HETATM   39  O   UNL     1      -7.071   4.572  72.099  1.00  0.00    -0.057 OA 
BRANCH  37  40
HETATM   40  O   UNL     1      -6.163   4.816  69.947  1.00  0.00    -0.024 OA 
BRANCH  40  41
HETATM   41  C   UNL     1      -5.822   5.685  68.828  1.00  0.00    -0.019 C  
BRANCH  41  42
HETATM   42  C   UNL     1      -6.013   5.129  67.391  1.00  0.00    -0.026 C  
HETATM   43  H   UNL     1      -5.697   3.426  66.433  1.00  0.00     0.000 HD 
HETATM   44  O   UNL     1      -5.580   3.766  67.312  1.00  0.00    -0.020 OA 
BRANCH  42  45
HETATM   45  C   UNL     1      -7.455   5.246  66.877  1.00  0.00    -0.088 C  
HETATM   46  O   UNL     1      -7.769   6.602  66.533  1.00  0.00    -0.098 OA 
HETATM   47  H   UNL     1      -8.661   6.673  66.215  1.00  0.00     0.000 HD 
ENDBRANCH  42  45
ENDBRANCH  41  42
ENDBRANCH  40  41
ENDBRANCH  37  40
ENDBRANCH  36  37
ENDBRANCH  35  36
ENDBRANCH  18  35
ENDBRANCH  17  18
ENDBRANCH  16  17
ENDBRANCH  14  16
ENDBRANCH  13  14
ENDBRANCH  12  13
ENDBRANCH  11  12
ENDBRANCH  10  11
ENDBRANCH   9  10
ENDBRANCH   8   9
ENDBRANCH   7   8
ENDBRANCH   6   7
ENDBRANCH   5   6
ENDBRANCH   4   5
ENDBRANCH   3   4
ENDBRANCH   2   3
TORSDOF 36
ENDMDL
MODEL       38
REMARK 921   NORMALIZED FREE ENERGY PREDICTED BY IDOCK:   -3.34 KCAL/MOL
REMARK 922        TOTAL FREE ENERGY PREDICTED BY IDOCK:  -15.84 KCAL/MOL
REMARK 923 INTER-LIGAND FREE ENERGY PREDICTED BY IDOCK:  -11.65 KCAL/MOL
REMARK 924 INTRA-LIGAND FREE ENERGY PREDICTED BY IDOCK:   -4.19 KCAL/MOL
REMARK 927      BINDING AFFINITY PREDICTED BY RF-SCORE:    0.00 PKD
ROOT
HETATM    1  C   UNL     1     -11.033   5.997  69.036  1.00  0.00    -0.409 C  
HETATM    2  C   UNL     1      -9.953   5.066  69.564  1.00  0.00    -0.302 C  
ENDROOT
BRANCH   2   3
HETATM    3  C   UNL     1      -8.955   5.817  70.444  1.00  0.00    -0.154 C  
BRANCH   3   4
HETATM    4  C   UNL     1      -9.158   7.329  70.353  1.00  0.00    -0.155 C  
BRANCH   4   5
HETATM    5  C   UNL     1      -9.336   7.940  71.742  1.00  0.00    -0.196 C  
BRANCH   5   6
HETATM    6  C   UNL     1     -10.521   7.316  72.477  1.00  0.00    -0.273 C  
BRANCH   6   7
HETATM    7  C   UNL     1     -11.631   8.343  72.699  1.00  0.00    -0.367 C  
BRANCH   7   8
HETATM    8  C   UNL     1     -12.558   8.424  71.490  1.00  0.00    -0.334 C  
BRANCH   8   9
HETATM    9  C   UNL     1     -13.430   9.675  71.543  1.00  0.00    -0.430 C  
BRANCH   9  10
HETATM   10  C   UNL     1     -12.601  10.924  71.244  1.00  0.00    -0.526 C  
BRANCH  10  11
HETATM   11  C   UNL     1     -11.902  10.833  69.889  1.00  0.00    -0.413 C  
BRANCH  11  12
HETATM   12  C   UNL     1     -11.834  12.212  69.235  1.00  0.00    -0.370 C  
BRANCH  12  13
HETATM   13  C   UNL     1     -11.859  13.334  70.267  1.00  0.00    -0.307 C  
BRANCH  13  14
HETATM   14  C   UNL     1     -11.305  14.607  69.671  1.00  0.00    -0.280 C  
HETATM   15  O   UNL     1     -11.477  15.730  70.128  1.00  0.00    -0.303 OA 
BRANCH  14  16
HETATM   16  O   UNL     1     -10.536  14.317  68.583  1.00  0.00    -0.238 OA 
BRANCH  16  17
HETATM   17  C   UNL     1      -9.377  15.153  68.426  1.00  0.00    -0.197 C  
BRANCH  17  18
HETATM   18  C   UNL     1      -8.619  14.820  67.134  1.00  0.00    -0.226 C  
BRANCH  18  19
HETATM   19  O   UNL     1      -7.203  14.777  67.431  1.00  0.00    -0.195 OA 
BRANCH  19  20
HETATM   20  C   UNL     1      -6.863  14.360  68.680  1.00  0.00    -0.096 C  
HETATM   21  O   UNL     1      -6.409  15.057  69.575  1.00  0.00    -0.112 OA 
BRANCH  20  22
HETATM   22  C   UNL     1      -7.150  12.887  68.828  1.00  0.00    -0.096 C  
BRANCH  22  23
HETATM   23  C   UNL     1      -6.364  12.056  67.821  1.00  0.00    -0.081 C  
BRANCH  23  24
HETATM   24  C   UNL     1      -7.076  10.752  67.456  1.00  0.00    -0.089 C  
BRANCH  24  25
HETATM   25  C   UNL     1      -8.553  10.805  67.840  1.00  0.00    -0.125 C  
BRANCH  25  26
HETATM   26  C   UNL     1      -9.414  11.200  66.644  1.00  0.00    -0.204 C  
BRANCH  26  27
HETATM   27  C   UNL     1      -9.990   9.972  65.944  1.00  0.00    -0.339 C  
BRANCH  27  28
HETATM   28  C   UNL     1      -9.858  10.099  64.429  1.00  0.00    -0.307 C  
BRANCH  28  29
HETATM   29  C   UNL     1      -8.397  10.010  63.994  1.00  0.00    -0.170 C  
BRANCH  29  30
HETATM   30  C   UNL     1      -7.951   8.556  63.869  1.00  0.00    -0.160 C  
BRANCH  30  31
HETATM   31  C   UNL     1      -7.036   8.158  65.026  1.00  0.00    -0.071 C  
BRANCH  31  32
HETATM   32  C   UNL     1      -7.228   6.689  65.397  1.00  0.00    -0.073 C  
BRANCH  32  33
HETATM   33  C   UNL     1      -8.509   6.484  66.203  1.00  0.00    -0.137 C  
HETATM   34  C   UNL     1      -8.987   5.044  66.121  1.00  0.00    -0.131 C  
ENDBRANCH  32  33
ENDBRANCH  31  32
ENDBRANCH  30  31
ENDBRANCH  29  30
ENDBRANCH  28  29
ENDBRANCH  27  28
ENDBRANCH  26  27
ENDBRANCH  25  26
ENDBRANCH  24  25
ENDBRANCH  23  24
ENDBRANCH  22  23
ENDBRANCH  20  22
ENDBRANCH  19  20
ENDBRANCH  18  19
BRANCH  18  35
HETATM   35  C   UNL     1      -8.846  15.930  66.111  1.00  0.00    -0.328 C  
BRANCH  35  36
HETATM   36  O   UNL     1      -7.706  16.799  66.028  1.00  0.00    -0.276 OA 
BRANCH  36  37
HETATM   37  P   UNL     1      -7.936  18.318  66.821  1.00  0.00    -0.262 P  
HETATM   38  O   UNL     1      -6.694  17.954  67.815  1.00  0.00    -0.185 OA 
HETATM   39  O   UNL     1      -7.456  18.982  65.546  1.00  0.00    -0.476 OA 
BRANCH  37  40
HETATM   40  O   UNL     1      -8.165  19.839  67.615  1.00  0.00    -0.290 OA 
BRANCH  40  41
HETATM   41  C   UNL     1      -9.420  20.534  67.363  1.00  0.00    -0.411 C  
BRANCH  41  42
HETATM   42  C   UNL     1     -10.684  19.675  67.086  1.00  0.00    -0.464 C  
HETATM   43  H   UNL     1     -11.524  18.776  65.536  1.00  0.00     0.000 HD 
HETATM   44  O   UNL     1     -10.751  19.301  65.705  1.00  0.00    -0.467 OA 
BRANCH  42  45
HETATM   45  C   UNL     1     -10.776  18.422  67.968  1.00  0.00    -0.249 C  
HETATM   46  O   UNL     1     -10.501  18.737  69.339  1.00  0.00    -0.375 OA 
HETATM   47  H   UNL     1     -10.558  17.961  69.884  1.00  0.00     0.000 HD 
ENDBRANCH  42  45
ENDBRANCH  41  42
ENDBRANCH  40  41
ENDBRANCH  37  40
ENDBRANCH  36  37
ENDBRANCH  35  36
ENDBRANCH  18  35
ENDBRANCH  17  18
ENDBRANCH  16  17
ENDBRANCH  14  16
ENDBRANCH  13  14
ENDBRANCH  12  13
ENDBRANCH  11  12
ENDBRANCH  10  11
ENDBRANCH   9  10
ENDBRANCH   8   9
ENDBRANCH   7   8
ENDBRANCH   6   7
ENDBRANCH   5   6
ENDBRANCH   4   5
ENDBRANCH   3   4
ENDBRANCH   2   3
TORSDOF 36
ENDMDL
MODEL       39
REMARK 921   NORMALIZED FREE ENERGY PREDICTED BY IDOCK:   -3.33 KCAL/MOL
REMARK 922        TOTAL FREE ENERGY PREDICTED BY IDOCK:  -15.82 KCAL/MOL
REMARK 923 INTER-LIGAND FREE ENERGY PREDICTED BY IDOCK:  -10.80 KCAL/MOL
REMARK 924 INTRA-LIGAND FREE ENERGY PREDICTED BY IDOCK:   -5.02 KCAL/MOL
REMARK 927      BINDING AFFINITY PREDICTED BY RF-SCORE:    0.00 PKD
ROOT
HETATM    1  C   UNL     1     -12.191  14.844  64.393  1.00  0.00    -0.399 C  
HETATM    2  C   UNL     1     -12.196  13.467  63.749  1.00  0.00    -0.449 C  
ENDROOT
BRANCH   2   3
HETATM    3  C   UNL     1     -12.439  12.371  64.784  1.00  0.00    -0.480 C  
BRANCH   3   4
HETATM    4  C   UNL     1     -11.609  12.602  66.047  1.00  0.00    -0.443 C  
BRANCH   4   5
HETATM    5  C   UNL     1     -10.882  11.325  66.465  1.00  0.00    -0.319 C  
BRANCH   5   6
HETATM    6  C   UNL     1      -9.518  11.214  65.785  1.00  0.00    -0.248 C  
BRANCH   6   7
HETATM    7  C   UNL     1      -9.641  10.543  64.417  1.00  0.00    -0.357 C  
BRANCH   7   8
HETATM    8  C   UNL     1      -8.784   9.283  64.343  1.00  0.00    -0.211 C  
BRANCH   8   9
HETATM    9  C   UNL     1      -7.352   9.560  64.792  1.00  0.00    -0.112 C  
BRANCH   9  10
HETATM   10  C   UNL     1      -6.739   8.320  65.440  1.00  0.00    -0.052 C  
BRANCH  10  11
HETATM   11  C   UNL     1      -7.515   7.882  66.680  1.00  0.00    -0.089 C  
BRANCH  11  12
HETATM   12  C   UNL     1      -7.306   8.883  67.816  1.00  0.00    -0.085 C  
BRANCH  12  13
HETATM   13  C   UNL     1      -8.090   8.498  69.066  1.00  0.00    -0.115 C  
BRANCH  13  14
HETATM   14  C   UNL     1      -8.272   9.700  69.962  1.00  0.00    -0.184 C  
HETATM   15  O   UNL     1      -7.370  10.281  70.552  1.00  0.00    -0.281 OA 
BRANCH  14  16
HETATM   16  O   UNL     1      -9.582  10.080  69.973  1.00  0.00    -0.231 OA 
BRANCH  16  17
HETATM   17  C   UNL     1     -10.492   9.115  69.416  1.00  0.00    -0.219 C  
BRANCH  17  18
HETATM   18  C   UNL     1     -11.660   8.833  70.371  1.00  0.00    -0.088 C  
BRANCH  18  19
HETATM   19  O   UNL     1     -11.663   9.848  71.404  1.00  0.00    -0.369 OA 
BRANCH  19  20
HETATM   20  C   UNL     1     -12.863  10.105  71.989  1.00  0.00    -0.376 C  
HETATM   21  O   UNL     1     -13.530   9.318  72.644  1.00  0.00    -0.444 OA 
BRANCH  20  22
HETATM   22  C   UNL     1     -13.264  11.537  71.737  1.00  0.00    -0.456 C  
BRANCH  22  23
HETATM   23  C   UNL     1     -12.197  12.291  70.953  1.00  0.00    -0.296 C  
BRANCH  23  24
HETATM   24  C   UNL     1     -12.402  13.807  70.993  1.00  0.00    -0.452 C  
BRANCH  24  25
HETATM   25  C   UNL     1     -11.685  14.490  69.829  1.00  0.00    -0.356 C  
BRANCH  25  26
HETATM   26  C   UNL     1     -10.764  15.598  70.331  1.00  0.00    -0.336 C  
BRANCH  26  27
HETATM   27  C   UNL     1     -10.667  16.739  69.322  1.00  0.00    -0.324 C  
BRANCH  27  28
HETATM   28  C   UNL     1     -11.023  16.256  67.919  1.00  0.00    -0.310 C  
BRANCH  28  29
HETATM   29  C   UNL     1     -10.376  17.137  66.853  1.00  0.00    -0.308 C  
BRANCH  29  30
HETATM   30  C   UNL     1      -8.890  17.338  67.138  1.00  0.00    -0.237 C  
BRANCH  30  31
HETATM   31  C   UNL     1      -8.054  16.216  66.524  1.00  0.00    -0.331 C  
BRANCH  31  32
HETATM   32  C   UNL     1      -7.190  15.534  67.584  1.00  0.00    -0.203 C  
BRANCH  32  33
HETATM   33  C   UNL     1      -7.324  14.014  67.513  1.00  0.00    -0.187 C  
HETATM   34  C   UNL     1      -8.539  13.532  68.286  1.00  0.00    -0.168 C  
ENDBRANCH  32  33
ENDBRANCH  31  32
ENDBRANCH  30  31
ENDBRANCH  29  30
ENDBRANCH  28  29
ENDBRANCH  27  28
ENDBRANCH  26  27
ENDBRANCH  25  26
ENDBRANCH  24  25
ENDBRANCH  23  24
ENDBRANCH  22  23
ENDBRANCH  20  22
ENDBRANCH  19  20
ENDBRANCH  18  19
BRANCH  18  35
HETATM   35  C   UNL     1     -11.448   7.482  71.049  1.00  0.00    -0.278 C  
BRANCH  35  36
HETATM   36  O   UNL     1     -10.273   7.494  71.872  1.00  0.00    -0.185 OA 
BRANCH  36  37
HETATM   37  P   UNL     1      -9.394   6.004  71.846  1.00  0.00    -0.148 P  
HETATM   38  O   UNL     1     -10.250   5.511  73.144  1.00  0.00    -0.173 OA 
HETATM   39  O   UNL     1     -10.108   5.681  70.549  1.00  0.00    -0.191 OA 
BRANCH  37  40
HETATM   40  O   UNL     1      -8.516   4.514  71.820  1.00  0.00    -0.107 OA 
BRANCH  40  41
HETATM   41  C   UNL     1      -8.693   3.662  70.651  1.00  0.00    -0.074 C  
BRANCH  41  42
HETATM   42  C   UNL     1      -7.491   3.497  69.682  1.00  0.00    -0.045 C  
HETATM   43  H   UNL     1      -6.319   4.669  68.601  1.00  0.00     0.000 HD 
HETATM   44  O   UNL     1      -7.055   4.770  69.194  1.00  0.00    -0.050 OA 
BRANCH  42  45
HETATM   45  C   UNL     1      -6.305   2.746  70.303  1.00  0.00    -0.028 C  
HETATM   46  O   UNL     1      -5.303   3.661  70.765  1.00  0.00    -0.007 OA 
HETATM   47  H   UNL     1      -4.569   3.196  71.149  1.00  0.00     0.000 HD 
ENDBRANCH  42  45
ENDBRANCH  41  42
ENDBRANCH  40  41
ENDBRANCH  37  40
ENDBRANCH  36  37
ENDBRANCH  35  36
ENDBRANCH  18  35
ENDBRANCH  17  18
ENDBRANCH  16  17
ENDBRANCH  14  16
ENDBRANCH  13  14
ENDBRANCH  12  13
ENDBRANCH  11  12
ENDBRANCH  10  11
ENDBRANCH   9  10
ENDBRANCH   8   9
ENDBRANCH   7   8
ENDBRANCH   6   7
ENDBRANCH   5   6
ENDBRANCH   4   5
ENDBRANCH   3   4
ENDBRANCH   2   3
TORSDOF 36
ENDMDL
MODEL       40
REMARK 921   NORMALIZED FREE ENERGY PREDICTED BY IDOCK:   -3.32 KCAL/MOL
REMARK 922        TOTAL FREE ENERGY PREDICTED BY IDOCK:  -15.79 KCAL/MOL
REMARK 923 INTER-LIGAND FREE ENERGY PREDICTED BY IDOCK:  -11.36 KCAL/MOL
REMARK 924 INTRA-LIGAND FREE ENERGY PREDICTED BY IDOCK:   -4.43 KCAL/MOL
REMARK 927      BINDING AFFINITY PREDICTED BY RF-SCORE:    0.00 PKD
ROOT
HETATM    1  C   UNL     1     -14.274  14.935  71.463  1.00  0.00    -0.617 C  
HETATM    2  C   UNL     1     -12.844  14.418  71.450  1.00  0.00    -0.410 C  
ENDROOT
BRANCH   2   3
HETATM    3  C   UNL     1     -12.064  14.973  70.260  1.00  0.00    -0.378 C  
BRANCH   3   4
HETATM    4  C   UNL     1     -12.328  14.162  68.992  1.00  0.00    -0.145 C  
BRANCH   4   5
HETATM    5  C   UNL     1     -11.846  12.722  69.155  1.00  0.00    -0.352 C  
BRANCH   5   6
HETATM    6  C   UNL     1     -10.913  12.316  68.015  1.00  0.00    -0.265 C  
BRANCH   6   7
HETATM    7  C   UNL     1      -9.585  13.068  68.101  1.00  0.00    -0.227 C  
BRANCH   7   8
HETATM    8  C   UNL     1      -8.722  12.804  66.870  1.00  0.00    -0.169 C  
BRANCH   8   9
HETATM    9  C   UNL     1      -7.237  12.824  67.221  1.00  0.00    -0.088 C  
BRANCH   9  10
HETATM   10  C   UNL     1      -7.040  12.879  68.735  1.00  0.00    -0.096 C  
BRANCH  10  11
HETATM   11  C   UNL     1      -6.133  11.757  69.234  1.00  0.00    -0.084 C  
BRANCH  11  12
HETATM   12  C   UNL     1      -6.721  10.396  68.861  1.00  0.00    -0.058 C  
BRANCH  12  13
HETATM   13  C   UNL     1      -7.923  10.038  69.729  1.00  0.00    -0.190 C  
BRANCH  13  14
HETATM   14  C   UNL     1      -7.636   8.794  70.536  1.00  0.00    -0.085 C  
HETATM   15  O   UNL     1      -7.563   8.750  71.757  1.00  0.00    -0.220 OA 
BRANCH  14  16
HETATM   16  O   UNL     1      -7.528   7.716  69.709  1.00  0.00    -0.086 OA 
BRANCH  16  17
HETATM   17  C   UNL     1      -8.705   7.433  68.933  1.00  0.00    -0.132 C  
BRANCH  17  18
HETATM   18  C   UNL     1      -8.417   6.394  67.840  1.00  0.00    -0.118 C  
BRANCH  18  19
HETATM   19  O   UNL     1      -8.837   6.939  66.567  1.00  0.00    -0.129 OA 
BRANCH  19  20
HETATM   20  C   UNL     1      -9.686   7.999  66.619  1.00  0.00    -0.243 C  
HETATM   21  O   UNL     1     -10.837   7.983  67.029  1.00  0.00    -0.283 OA 
BRANCH  20  22
HETATM   22  C   UNL     1      -8.996   9.240  66.109  1.00  0.00    -0.202 C  
BRANCH  22  23
HETATM   23  C   UNL     1      -9.960  10.154  65.362  1.00  0.00    -0.377 C  
BRANCH  23  24
HETATM   24  C   UNL     1      -9.456  10.520  63.964  1.00  0.00    -0.337 C  
BRANCH  24  25
HETATM   25  C   UNL     1     -10.173  11.757  63.428  1.00  0.00    -0.482 C  
BRANCH  25  26
HETATM   26  C   UNL     1     -11.652  11.735  63.800  1.00  0.00    -0.508 C  
BRANCH  26  27
HETATM   27  C   UNL     1     -12.263  13.132  63.737  1.00  0.00    -0.528 C  
BRANCH  27  28
HETATM   28  C   UNL     1     -11.943  13.924  65.002  1.00  0.00    -0.403 C  
BRANCH  28  29
HETATM   29  C   UNL     1     -10.857  14.964  64.739  1.00  0.00    -0.382 C  
BRANCH  29  30
HETATM   30  C   UNL     1     -10.644  15.853  65.961  1.00  0.00    -0.331 C  
BRANCH  30  31
HETATM   31  C   UNL     1     -10.647  17.331  65.574  1.00  0.00    -0.136 C  
BRANCH  31  32
HETATM   32  C   UNL     1     -10.381  18.216  66.790  1.00  0.00    -0.376 C  
BRANCH  32  33
HETATM   33  C   UNL     1     -10.333  19.692  66.401  1.00  0.00    -0.609 C  
HETATM   34  C   UNL     1      -9.634  20.520  67.466  1.00  0.00    -0.545 C  
ENDBRANCH  32  33
ENDBRANCH  31  32
ENDBRANCH  30  31
ENDBRANCH  29  30
ENDBRANCH  28  29
ENDBRANCH  27  28
ENDBRANCH  26  27
ENDBRANCH  25  26
ENDBRANCH  24  25
ENDBRANCH  23  24
ENDBRANCH  22  23
ENDBRANCH  20  22
ENDBRANCH  19  20
ENDBRANCH  18  19
BRANCH  18  35
HETATM   35  C   UNL     1      -9.243   5.137  68.102  1.00  0.00    -0.116 C  
BRANCH  35  36
HETATM   36  O   UNL     1      -8.482   4.160  68.828  1.00  0.00    -0.081 OA 
BRANCH  36  37
HETATM   37  P   UNL     1      -9.310   3.523  70.206  1.00  0.00    -0.169 P  
HETATM   38  O   UNL     1      -7.950   3.732  71.083  1.00  0.00    -0.061 OA 
HETATM   39  O   UNL     1     -10.164   4.774  70.190  1.00  0.00    -0.249 OA 
BRANCH  37  40
HETATM   40  O   UNL     1     -10.137   2.885  71.585  1.00  0.00    -0.138 OA 
BRANCH  40  41
HETATM   41  C   UNL     1      -9.544   3.145  72.891  1.00  0.00    -0.108 C  
BRANCH  41  42
HETATM   42  C   UNL     1     -10.053   4.376  73.689  1.00  0.00    -0.157 C  
HETATM   43  H   UNL     1      -9.470   6.237  74.026  1.00  0.00     0.000 HD 
HETATM   44  O   UNL     1      -9.159   5.484  73.537  1.00  0.00    -0.129 OA 
BRANCH  42  45
HETATM   45  C   UNL     1     -11.477   4.804  73.308  1.00  0.00    -0.273 C  
HETATM   46  O   UNL     1     -11.457   5.784  72.262  1.00  0.00    -0.288 OA 
HETATM   47  H   UNL     1     -12.338   6.049  72.027  1.00  0.00     0.000 HD 
ENDBRANCH  42  45
ENDBRANCH  41  42
ENDBRANCH  40  41
ENDBRANCH  37  40
ENDBRANCH  36  37
ENDBRANCH  35  36
ENDBRANCH  18  35
ENDBRANCH  17  18
ENDBRANCH  16  17
ENDBRANCH  14  16
ENDBRANCH  13  14
ENDBRANCH  12  13
ENDBRANCH  11  12
ENDBRANCH  10  11
ENDBRANCH   9  10
ENDBRANCH   8   9
ENDBRANCH   7   8
ENDBRANCH   6   7
ENDBRANCH   5   6
ENDBRANCH   4   5
ENDBRANCH   3   4
ENDBRANCH   2   3
TORSDOF 36
ENDMDL
MODEL       41
REMARK 921   NORMALIZED FREE ENERGY PREDICTED BY IDOCK:   -3.22 KCAL/MOL
REMARK 922        TOTAL FREE ENERGY PREDICTED BY IDOCK:  -15.48 KCAL/MOL
REMARK 923 INTER-LIGAND FREE ENERGY PREDICTED BY IDOCK:  -10.54 KCAL/MOL
REMARK 924 INTRA-LIGAND FREE ENERGY PREDICTED BY IDOCK:   -4.94 KCAL/MOL
REMARK 927      BINDING AFFINITY PREDICTED BY RF-SCORE:    0.00 PKD
ROOT
HETATM    1  C   UNL     1      -7.120  19.638  68.346  1.00  0.00    -0.344 C  
HETATM    2  C   UNL     1      -8.145  18.573  68.700  1.00  0.00    -0.336 C  
ENDROOT
BRANCH   2   3
HETATM    3  C   UNL     1      -7.480  17.216  68.926  1.00  0.00    -0.241 C  
BRANCH   3   4
HETATM    4  C   UNL     1      -6.587  16.829  67.747  1.00  0.00    -0.161 C  
BRANCH   4   5
HETATM    5  C   UNL     1      -6.879  15.402  67.286  1.00  0.00    -0.143 C  
BRANCH   5   6
HETATM    6  C   UNL     1      -6.120  14.379  68.131  1.00  0.00    -0.139 C  
BRANCH   6   7
HETATM    7  C   UNL     1      -6.997  13.168  68.442  1.00  0.00    -0.104 C  
BRANCH   7   8
HETATM    8  C   UNL     1      -7.490  12.500  67.162  1.00  0.00    -0.077 C  
BRANCH   8   9
HETATM    9  C   UNL     1      -6.865  11.119  66.981  1.00  0.00    -0.119 C  
BRANCH   9  10
HETATM   10  C   UNL     1      -7.604  10.328  65.903  1.00  0.00    -0.134 C  
BRANCH  10  11
HETATM   11  C   UNL     1      -9.104  10.255  66.178  1.00  0.00    -0.181 C  
BRANCH  11  12
HETATM   12  C   UNL     1      -9.577   8.802  66.153  1.00  0.00    -0.323 C  
BRANCH  12  13
HETATM   13  C   UNL     1     -10.400   8.449  67.387  1.00  0.00    -0.355 C  
BRANCH  13  14
HETATM   14  C   UNL     1     -10.699   6.968  67.413  1.00  0.00    -0.313 C  
HETATM   15  O   UNL     1     -11.184   6.333  66.486  1.00  0.00    -0.142 OA 
BRANCH  14  16
HETATM   16  O   UNL     1     -10.296   6.432  68.600  1.00  0.00    -0.166 OA 
BRANCH  16  17
HETATM   17  C   UNL     1     -11.363   5.972  69.446  1.00  0.00    -0.212 C  
BRANCH  17  18
HETATM   18  C   UNL     1     -11.164   6.432  70.897  1.00  0.00    -0.326 C  
BRANCH  18  19
HETATM   19  O   UNL     1     -10.024   7.321  70.943  1.00  0.00    -0.185 OA 
BRANCH  19  20
HETATM   20  C   UNL     1     -10.265   8.585  71.384  1.00  0.00    -0.235 C  
HETATM   21  O   UNL     1      -9.587   9.212  72.184  1.00  0.00    -0.276 OA 
BRANCH  20  22
HETATM   22  C   UNL     1     -11.502   9.136  70.719  1.00  0.00    -0.337 C  
BRANCH  22  23
HETATM   23  C   UNL     1     -12.101  10.290  71.514  1.00  0.00    -0.407 C  
BRANCH  23  24
HETATM   24  C   UNL     1     -12.314  11.542  70.660  1.00  0.00    -0.457 C  
BRANCH  24  25
HETATM   25  C   UNL     1     -12.146  11.228  69.174  1.00  0.00    -0.348 C  
BRANCH  25  26
HETATM   26  C   UNL     1     -11.168  12.199  68.519  1.00  0.00    -0.307 C  
BRANCH  26  27
HETATM   27  C   UNL     1     -11.841  13.002  67.410  1.00  0.00    -0.411 C  
BRANCH  27  28
HETATM   28  C   UNL     1     -10.982  14.198  67.007  1.00  0.00    -0.303 C  
BRANCH  28  29
HETATM   29  C   UNL     1     -10.294  14.815  68.222  1.00  0.00    -0.238 C  
BRANCH  29  30
HETATM   30  C   UNL     1     -11.042  16.055  68.704  1.00  0.00    -0.349 C  
BRANCH  30  31
HETATM   31  C   UNL     1     -11.985  15.716  69.857  1.00  0.00    -0.376 C  
BRANCH  31  32
HETATM   32  C   UNL     1     -11.202  15.395  71.129  1.00  0.00    -0.410 C  
BRANCH  32  33
HETATM   33  C   UNL     1     -12.099  14.754  72.185  1.00  0.00    -0.378 C  
HETATM   34  C   UNL     1     -12.296  15.678  73.375  1.00  0.00    -0.633 C  
ENDBRANCH  32  33
ENDBRANCH  31  32
ENDBRANCH  30  31
ENDBRANCH  29  30
ENDBRANCH  28  29
ENDBRANCH  27  28
ENDBRANCH  26  27
ENDBRANCH  25  26
ENDBRANCH  24  25
ENDBRANCH  23  24
ENDBRANCH  22  23
ENDBRANCH  20  22
ENDBRANCH  19  20
ENDBRANCH  18  19
BRANCH  18  35
HETATM   35  C   UNL     1     -10.848   5.223  71.774  1.00  0.00    -0.128 C  
BRANCH  35  36
HETATM   36  O   UNL     1      -9.450   4.904  71.730  1.00  0.00    -0.143 OA 
BRANCH  36  37
HETATM   37  P   UNL     1      -9.116   3.356  71.036  1.00  0.00    -0.138 P  
HETATM   38  O   UNL     1      -7.539   3.565  71.399  1.00  0.00    -0.049 OA 
HETATM   39  O   UNL     1      -9.880   2.744  72.192  1.00  0.00    -0.149 OA 
BRANCH  37  40
HETATM   40  O   UNL     1      -8.780   1.806  70.341  1.00  0.00    -0.053 OA 
BRANCH  40  41
HETATM   41  C   UNL     1      -7.724   1.746  69.339  1.00  0.00    -0.042 C  
BRANCH  41  42
HETATM   42  C   UNL     1      -8.106   2.031  67.861  1.00  0.00    -0.059 C  
HETATM   43  H   UNL     1      -9.750   2.421  66.830  1.00  0.00     0.000 HD 
HETATM   44  O   UNL     1      -9.516   2.247  67.735  1.00  0.00    -0.188 OA 
BRANCH  42  45
HETATM   45  C   UNL     1      -7.344   3.217  67.251  1.00  0.00    -0.058 C  
HETATM   46  O   UNL     1      -7.358   4.345  68.135  1.00  0.00    -0.063 OA 
HETATM   47  H   UNL     1      -6.887   5.079  67.758  1.00  0.00     0.000 HD 
ENDBRANCH  42  45
ENDBRANCH  41  42
ENDBRANCH  40  41
ENDBRANCH  37  40
ENDBRANCH  36  37
ENDBRANCH  35  36
ENDBRANCH  18  35
ENDBRANCH  17  18
ENDBRANCH  16  17
ENDBRANCH  14  16
ENDBRANCH  13  14
ENDBRANCH  12  13
ENDBRANCH  11  12
ENDBRANCH  10  11
ENDBRANCH   9  10
ENDBRANCH   8   9
ENDBRANCH   7   8
ENDBRANCH   6   7
ENDBRANCH   5   6
ENDBRANCH   4   5
ENDBRANCH   3   4
ENDBRANCH   2   3
TORSDOF 36
ENDMDL
MODEL       42
REMARK 921   NORMALIZED FREE ENERGY PREDICTED BY IDOCK:   -3.22 KCAL/MOL
REMARK 922        TOTAL FREE ENERGY PREDICTED BY IDOCK:  -15.46 KCAL/MOL
REMARK 923 INTER-LIGAND FREE ENERGY PREDICTED BY IDOCK:   -9.67 KCAL/MOL
REMARK 924 INTRA-LIGAND FREE ENERGY PREDICTED BY IDOCK:   -5.78 KCAL/MOL
REMARK 927      BINDING AFFINITY PREDICTED BY RF-SCORE:    0.00 PKD
ROOT
HETATM    1  C   UNL     1     -12.687  14.165  71.863  1.00  0.00    -0.406 C  
HETATM    2  C   UNL     1     -11.638  14.945  71.088  1.00  0.00    -0.347 C  
ENDROOT
BRANCH   2   3
HETATM    3  C   UNL     1     -12.280  15.835  70.026  1.00  0.00    -0.309 C  
BRANCH   3   4
HETATM    4  C   UNL     1     -11.708  15.550  68.638  1.00  0.00    -0.363 C  
BRANCH   4   5
HETATM    5  C   UNL     1     -10.875  14.269  68.643  1.00  0.00    -0.265 C  
BRANCH   5   6
HETATM    6  C   UNL     1     -11.083  13.465  67.361  1.00  0.00    -0.297 C  
BRANCH   6   7
HETATM    7  C   UNL     1     -11.612  12.065  67.673  1.00  0.00    -0.392 C  
BRANCH   7   8
HETATM    8  C   UNL     1     -11.653  11.814  69.177  1.00  0.00    -0.372 C  
BRANCH   8   9
HETATM    9  C   UNL     1     -10.635  10.753  69.589  1.00  0.00    -0.222 C  
BRANCH   9  10
HETATM   10  C   UNL     1     -11.341   9.482  70.061  1.00  0.00    -0.204 C  
BRANCH  10  11
HETATM   11  C   UNL     1     -11.806   9.594  71.511  1.00  0.00    -0.483 C  
BRANCH  11  12
HETATM   12  C   UNL     1     -11.226   8.450  72.343  1.00  0.00    -0.438 C  
BRANCH  12  13
HETATM   13  C   UNL     1     -10.135   7.696  71.591  1.00  0.00    -0.212 C  
BRANCH  13  14
HETATM   14  C   UNL     1      -8.773   8.233  71.965  1.00  0.00    -0.182 C  
HETATM   15  O   UNL     1      -8.353   8.350  73.109  1.00  0.00    -0.298 OA 
BRANCH  14  16
HETATM   16  O   UNL     1      -8.057   8.515  70.840  1.00  0.00    -0.103 OA 
BRANCH  16  17
HETATM   17  C   UNL     1      -6.995   7.589  70.554  1.00  0.00    -0.052 C  
BRANCH  17  18
HETATM   18  C   UNL     1      -7.171   6.946  69.172  1.00  0.00    -0.090 C  
BRANCH  18  19
HETATM   19  O   UNL     1      -8.389   7.458  68.580  1.00  0.00    -0.124 OA 
BRANCH  19  20
HETATM   20  C   UNL     1      -8.365   7.655  67.235  1.00  0.00    -0.115 C  
HETATM   21  O   UNL     1      -8.100   6.816  66.387  1.00  0.00    -0.103 OA 
BRANCH  20  22
HETATM   22  C   UNL     1      -8.743   9.080  66.915  1.00  0.00    -0.132 C  
BRANCH  22  23
HETATM   23  C   UNL     1      -7.597  10.043  67.199  1.00  0.00    -0.092 C  
BRANCH  23  24
HETATM   24  C   UNL     1      -7.980  11.502  66.938  1.00  0.00    -0.164 C  
BRANCH  24  25
HETATM   25  C   UNL     1      -7.592  12.392  68.117  1.00  0.00    -0.129 C  
BRANCH  25  26
HETATM   26  C   UNL     1      -7.313  13.819  67.656  1.00  0.00    -0.182 C  
BRANCH  26  27
HETATM   27  C   UNL     1      -6.199  14.461  68.477  1.00  0.00    -0.090 C  
BRANCH  27  28
HETATM   28  C   UNL     1      -6.406  15.969  68.589  1.00  0.00    -0.116 C  
BRANCH  28  29
HETATM   29  C   UNL     1      -7.861  16.302  68.909  1.00  0.00    -0.224 C  
BRANCH  29  30
HETATM   30  C   UNL     1      -8.328  17.523  68.122  1.00  0.00    -0.249 C  
BRANCH  30  31
HETATM   31  C   UNL     1      -8.748  17.138  66.704  1.00  0.00    -0.281 C  
BRANCH  31  32
HETATM   32  C   UNL     1     -10.128  17.701  66.370  1.00  0.00    -0.356 C  
BRANCH  32  33
HETATM   33  C   UNL     1     -10.487  18.868  67.287  1.00  0.00    -0.510 C  
HETATM   34  C   UNL     1      -9.963  20.183  66.736  1.00  0.00    -0.604 C  
ENDBRANCH  32  33
ENDBRANCH  31  32
ENDBRANCH  30  31
ENDBRANCH  29  30
ENDBRANCH  28  29
ENDBRANCH  27  28
ENDBRANCH  26  27
ENDBRANCH  25  26
ENDBRANCH  24  25
ENDBRANCH  23  24
ENDBRANCH  22  23
ENDBRANCH  20  22
ENDBRANCH  19  20
ENDBRANCH  18  19
BRANCH  18  35
HETATM   35  C   UNL     1      -7.330   5.436  69.330  1.00  0.00    -0.065 C  
BRANCH  35  36
HETATM   36  O   UNL     1      -8.619   5.104  69.866  1.00  0.00    -0.097 OA 
BRANCH  36  37
HETATM   37  P   UNL     1      -8.552   3.999  71.194  1.00  0.00    -0.084 P  
HETATM   38  O   UNL     1      -9.082   2.819  70.200  1.00  0.00    -0.093 OA 
HETATM   39  O   UNL     1      -7.044   4.135  71.148  1.00  0.00    -0.035 OA 
BRANCH  37  40
HETATM   40  O   UNL     1      -8.486   2.892  72.523  1.00  0.00    -0.072 OA 
BRANCH  40  41
HETATM   41  C   UNL     1      -9.031   3.352  73.794  1.00  0.00    -0.087 C  
BRANCH  41  42
HETATM   42  C   UNL     1     -10.546   3.134  74.057  1.00  0.00    -0.190 C  
HETATM   43  H   UNL     1     -12.255   3.968  73.510  1.00  0.00     0.000 HD 
HETATM   44  O   UNL     1     -11.328   4.102  73.349  1.00  0.00    -0.265 OA 
BRANCH  42  45
HETATM   45  C   UNL     1     -11.029   1.719  73.705  1.00  0.00    -0.164 C  
HETATM   46  O   UNL     1     -11.120   1.546  72.285  1.00  0.00    -0.012 OA 
HETATM   47  H   UNL     1     -11.419   0.671  72.068  1.00  0.00     0.000 HD 
ENDBRANCH  42  45
ENDBRANCH  41  42
ENDBRANCH  40  41
ENDBRANCH  37  40
ENDBRANCH  36  37
ENDBRANCH  35  36
ENDBRANCH  18  35
ENDBRANCH  17  18
ENDBRANCH  16  17
ENDBRANCH  14  16
ENDBRANCH  13  14
ENDBRANCH  12  13
ENDBRANCH  11  12
ENDBRANCH  10  11
ENDBRANCH   9  10
ENDBRANCH   8   9
ENDBRANCH   7   8
ENDBRANCH   6   7
ENDBRANCH   5   6
ENDBRANCH   4   5
ENDBRANCH   3   4
ENDBRANCH   2   3
TORSDOF 36
ENDMDL
MODEL       43
REMARK 921   NORMALIZED FREE ENERGY PREDICTED BY IDOCK:   -3.21 KCAL/MOL
REMARK 922        TOTAL FREE ENERGY PREDICTED BY IDOCK:  -15.44 KCAL/MOL
REMARK 923 INTER-LIGAND FREE ENERGY PREDICTED BY IDOCK:  -10.97 KCAL/MOL
REMARK 924 INTRA-LIGAND FREE ENERGY PREDICTED BY IDOCK:   -4.48 KCAL/MOL
REMARK 927      BINDING AFFINITY PREDICTED BY RF-SCORE:    0.00 PKD
ROOT
HETATM    1  C   UNL     1     -12.067  13.378  68.140  1.00  0.00    -0.267 C  
HETATM    2  C   UNL     1     -11.419  14.734  67.915  1.00  0.00    -0.361 C  
ENDROOT
BRANCH   2   3
HETATM    3  C   UNL     1     -10.004  14.775  68.490  1.00  0.00    -0.228 C  
BRANCH   3   4
HETATM    4  C   UNL     1      -9.993  15.354  69.904  1.00  0.00    -0.229 C  
BRANCH   4   5
HETATM    5  C   UNL     1     -11.228  16.219  70.150  1.00  0.00    -0.340 C  
BRANCH   5   6
HETATM    6  C   UNL     1     -11.823  15.959  71.534  1.00  0.00    -0.536 C  
BRANCH   6   7
HETATM    7  C   UNL     1     -13.153  15.215  71.426  1.00  0.00    -0.499 C  
BRANCH   7   8
HETATM    8  C   UNL     1     -13.356  14.275  72.611  1.00  0.00    -0.619 C  
BRANCH   8   9
HETATM    9  C   UNL     1     -13.781  12.884  72.147  1.00  0.00    -0.505 C  
BRANCH   9  10
HETATM   10  C   UNL     1     -12.606  12.146  71.505  1.00  0.00    -0.267 C  
BRANCH  10  11
HETATM   11  C   UNL     1     -12.793  10.631  71.547  1.00  0.00    -0.567 C  
BRANCH  11  12
HETATM   12  C   UNL     1     -11.499   9.927  71.138  1.00  0.00    -0.459 C  
BRANCH  12  13
HETATM   13  C   UNL     1     -11.037  10.349  69.748  1.00  0.00    -0.352 C  
BRANCH  13  14
HETATM   14  C   UNL     1      -9.582   9.992  69.547  1.00  0.00    -0.230 C  
HETATM   15  O   UNL     1      -8.761   9.860  70.445  1.00  0.00    -0.138 OA 
BRANCH  14  16
HETATM   16  O   UNL     1      -9.332   9.781  68.224  1.00  0.00    -0.129 OA 
BRANCH  16  17
HETATM   17  C   UNL     1      -9.919   8.583  67.685  1.00  0.00    -0.198 C  
BRANCH  17  18
HETATM   18  C   UNL     1      -8.866   7.484  67.492  1.00  0.00    -0.127 C  
BRANCH  18  19
HETATM   19  O   UNL     1      -9.231   6.698  66.332  1.00  0.00    -0.156 OA 
BRANCH  19  20
HETATM   20  C   UNL     1      -8.202   6.244  65.567  1.00  0.00    -0.145 C  
HETATM   21  O   UNL     1      -8.204   5.232  64.882  1.00  0.00    -0.122 OA 
BRANCH  20  22
HETATM   22  C   UNL     1      -7.032   7.191  65.659  1.00  0.00    -0.060 C  
BRANCH  22  23
HETATM   23  C   UNL     1      -6.209   7.195  64.377  1.00  0.00    -0.037 C  
BRANCH  23  24
HETATM   24  C   UNL     1      -5.151   8.301  64.363  1.00  0.00    -0.036 C  
BRANCH  24  25
HETATM   25  C   UNL     1      -5.763   9.642  63.958  1.00  0.00    -0.087 C  
BRANCH  25  26
HETATM   26  C   UNL     1      -6.519   9.520  62.639  1.00  0.00    -0.098 C  
BRANCH  26  27
HETATM   27  C   UNL     1      -7.893  10.178  62.723  1.00  0.00    -0.150 C  
BRANCH  27  28
HETATM   28  C   UNL     1      -8.908   9.237  63.368  1.00  0.00    -0.150 C  
BRANCH  28  29
HETATM   29  C   UNL     1      -9.757   9.970  64.404  1.00  0.00    -0.277 C  
BRANCH  29  30
HETATM   30  C   UNL     1      -9.241  11.389  64.628  1.00  0.00    -0.030 C  
BRANCH  30  31
HETATM   31  C   UNL     1      -9.940  12.382  63.702  1.00  0.00    -0.199 C  
BRANCH  31  32
HETATM   32  C   UNL     1     -10.523  13.553  64.493  1.00  0.00    -0.426 C  
BRANCH  32  33
HETATM   33  C   UNL     1     -12.046  13.587  64.389  1.00  0.00    -0.468 C  
HETATM   34  C   UNL     1     -12.601  12.232  63.984  1.00  0.00    -0.521 C  
ENDBRANCH  32  33
ENDBRANCH  31  32
ENDBRANCH  30  31
ENDBRANCH  29  30
ENDBRANCH  28  29
ENDBRANCH  27  28
ENDBRANCH  26  27
ENDBRANCH  25  26
ENDBRANCH  24  25
ENDBRANCH  23  24
ENDBRANCH  22  23
ENDBRANCH  20  22
ENDBRANCH  19  20
ENDBRANCH  18  19
BRANCH  18  35
HETATM   35  C   UNL     1      -8.873   6.554  68.703  1.00  0.00    -0.121 C  
BRANCH  35  36
HETATM   36  O   UNL     1     -10.090   5.797  68.767  1.00  0.00    -0.150 OA 
BRANCH  36  37
HETATM   37  P   UNL     1     -10.895   5.909  70.294  1.00  0.00    -0.276 P  
HETATM   38  O   UNL     1     -10.483   4.360  70.592  1.00  0.00    -0.004 OA 
HETATM   39  O   UNL     1      -9.806   6.871  70.724  1.00  0.00    -0.182 OA 
BRANCH  37  40
HETATM   40  O   UNL     1     -11.701   6.021  71.821  1.00  0.00    -0.277 OA 
BRANCH  40  41
HETATM   41  C   UNL     1     -11.029   6.779  72.869  1.00  0.00    -0.263 C  
BRANCH  41  42
HETATM   42  C   UNL     1     -10.588   6.019  74.148  1.00  0.00    -0.134 C  
HETATM   43  H   UNL     1     -10.734   4.184  74.877  1.00  0.00     0.000 HD 
HETATM   44  O   UNL     1     -11.004   4.650  74.093  1.00  0.00    -0.282 OA 
BRANCH  42  45
HETATM   45  C   UNL     1      -9.077   6.091  74.412  1.00  0.00    -0.138 C  
HETATM   46  O   UNL     1      -8.488   7.200  73.720  1.00  0.00    -0.129 OA 
HETATM   47  H   UNL     1      -7.553   7.245  73.883  1.00  0.00     0.000 HD 
ENDBRANCH  42  45
ENDBRANCH  41  42
ENDBRANCH  40  41
ENDBRANCH  37  40
ENDBRANCH  36  37
ENDBRANCH  35  36
ENDBRANCH  18  35
ENDBRANCH  17  18
ENDBRANCH  16  17
ENDBRANCH  14  16
ENDBRANCH  13  14
ENDBRANCH  12  13
ENDBRANCH  11  12
ENDBRANCH  10  11
ENDBRANCH   9  10
ENDBRANCH   8   9
ENDBRANCH   7   8
ENDBRANCH   6   7
ENDBRANCH   5   6
ENDBRANCH   4   5
ENDBRANCH   3   4
ENDBRANCH   2   3
TORSDOF 36
ENDMDL
MODEL       44
REMARK 921   NORMALIZED FREE ENERGY PREDICTED BY IDOCK:   -3.17 KCAL/MOL
REMARK 922        TOTAL FREE ENERGY PREDICTED BY IDOCK:  -15.32 KCAL/MOL
REMARK 923 INTER-LIGAND FREE ENERGY PREDICTED BY IDOCK:  -10.59 KCAL/MOL
REMARK 924 INTRA-LIGAND FREE ENERGY PREDICTED BY IDOCK:   -4.73 KCAL/MOL
REMARK 927      BINDING AFFINITY PREDICTED BY RF-SCORE:    0.00 PKD
ROOT
HETATM    1  C   UNL     1      -6.860   7.874  67.188  1.00  0.00    -0.073 C  
HETATM    2  C   UNL     1      -7.831   9.012  67.458  1.00  0.00    -0.100 C  
ENDROOT
BRANCH   2   3
HETATM    3  C   UNL     1      -7.318   9.928  68.567  1.00  0.00    -0.078 C  
BRANCH   3   4
HETATM    4  C   UNL     1      -7.932   9.565  69.919  1.00  0.00    -0.154 C  
BRANCH   4   5
HETATM    5  C   UNL     1      -6.844   9.285  70.955  1.00  0.00    -0.103 C  
BRANCH   5   6
HETATM    6  C   UNL     1      -7.327   8.295  72.015  1.00  0.00    -0.117 C  
BRANCH   6   7
HETATM    7  C   UNL     1      -6.482   7.022  72.002  1.00  0.00    -0.052 C  
BRANCH   7   8
HETATM    8  C   UNL     1      -6.399   6.430  70.598  1.00  0.00    -0.040 C  
BRANCH   8   9
HETATM    9  C   UNL     1      -7.149   5.103  70.512  1.00  0.00    -0.060 C  
BRANCH   9  10
HETATM   10  C   UNL     1      -8.425   5.255  69.686  1.00  0.00    -0.098 C  
BRANCH  10  11
HETATM   11  C   UNL     1      -9.580   5.808  70.517  1.00  0.00    -0.214 C  
BRANCH  11  12
HETATM   12  C   UNL     1     -10.379   6.825  69.703  1.00  0.00    -0.223 C  
BRANCH  12  13
HETATM   13  C   UNL     1     -11.734   7.122  70.336  1.00  0.00    -0.273 C  
BRANCH  13  14
HETATM   14  C   UNL     1     -11.609   8.240  71.345  1.00  0.00    -0.280 C  
HETATM   15  O   UNL     1     -11.705   8.106  72.557  1.00  0.00    -0.378 OA 
BRANCH  14  16
HETATM   16  O   UNL     1     -11.316   9.410  70.710  1.00  0.00    -0.261 OA 
BRANCH  16  17
HETATM   17  C   UNL     1     -12.309  10.439  70.856  1.00  0.00    -0.381 C  
BRANCH  17  18
HETATM   18  C   UNL     1     -12.245  11.446  69.700  1.00  0.00    -0.249 C  
BRANCH  18  19
HETATM   19  O   UNL     1     -11.341  10.931  68.693  1.00  0.00    -0.250 OA 
BRANCH  19  20
HETATM   20  C   UNL     1     -11.284  11.626  67.526  1.00  0.00    -0.293 C  
HETATM   21  O   UNL     1     -12.231  11.915  66.810  1.00  0.00    -0.489 OA 
BRANCH  20  22
HETATM   22  C   UNL     1      -9.860  12.026  67.232  1.00  0.00    -0.200 C  
BRANCH  22  23
HETATM   23  C   UNL     1      -9.777  12.990  66.054  1.00  0.00    -0.223 C  
BRANCH  23  24
HETATM   24  C   UNL     1      -8.915  14.217  66.360  1.00  0.00    -0.069 C  
BRANCH  24  25
HETATM   25  C   UNL     1      -7.907  13.918  67.468  1.00  0.00    -0.193 C  
BRANCH  25  26
HETATM   26  C   UNL     1      -6.787  14.954  67.481  1.00  0.00    -0.189 C  
BRANCH  26  27
HETATM   27  C   UNL     1      -7.344  16.372  67.568  1.00  0.00    -0.170 C  
BRANCH  27  28
HETATM   28  C   UNL     1      -6.929  17.194  66.350  1.00  0.00    -0.296 C  
BRANCH  28  29
HETATM   29  C   UNL     1      -6.295  18.518  66.771  1.00  0.00    -0.201 C  
BRANCH  29  30
HETATM   30  C   UNL     1      -7.253  19.333  67.635  1.00  0.00    -0.254 C  
BRANCH  30  31
HETATM   31  C   UNL     1      -6.668  20.707  67.960  1.00  0.00    -0.327 C  
BRANCH  31  32
HETATM   32  C   UNL     1      -5.589  20.603  69.036  1.00  0.00    -0.383 C  
BRANCH  32  33
HETATM   33  C   UNL     1      -5.971  19.581  70.105  1.00  0.00    -0.301 C  
HETATM   34  C   UNL     1      -5.865  20.177  71.499  1.00  0.00    -0.359 C  
ENDBRANCH  32  33
ENDBRANCH  31  32
ENDBRANCH  30  31
ENDBRANCH  29  30
ENDBRANCH  28  29
ENDBRANCH  27  28
ENDBRANCH  26  27
ENDBRANCH  25  26
ENDBRANCH  24  25
ENDBRANCH  23  24
ENDBRANCH  22  23
ENDBRANCH  20  22
ENDBRANCH  19  20
ENDBRANCH  18  19
BRANCH  18  35
HETATM   35  C   UNL     1     -11.671  12.767  70.207  1.00  0.00    -0.107 C  
BRANCH  35  36
HETATM   36  O   UNL     1     -12.595  13.845  70.000  1.00  0.00    -0.294 OA 
BRANCH  36  37
HETATM   37  P   UNL     1     -11.876  15.247  69.287  1.00  0.00    -0.286 P  
HETATM   38  O   UNL     1     -12.283  16.097  70.619  1.00  0.00    -0.263 OA 
HETATM   39  O   UNL     1     -10.534  14.561  69.449  1.00  0.00    -0.212 OA 
BRANCH  37  40
HETATM   40  O   UNL     1     -11.156  16.650  68.574  1.00  0.00    -0.349 OA 
BRANCH  40  41
HETATM   41  C   UNL     1     -11.070  16.682  67.120  1.00  0.00     0.095 C  
BRANCH  41  42
HETATM   42  C   UNL     1     -10.534  17.976  66.451  1.00  0.00    -0.339 C  
HETATM   43  H   UNL     1     -10.576  18.817  64.660  1.00  0.00     0.000 HD 
HETATM   44  O   UNL     1     -10.904  18.024  65.069  1.00  0.00    -0.738 OA 
BRANCH  42  45
HETATM   45  C   UNL     1     -10.991  19.262  67.155  1.00  0.00    -0.336 C  
HETATM   46  O   UNL     1     -10.624  19.247  68.541  1.00  0.00    -0.433 OA 
HETATM   47  H   UNL     1     -10.907  20.042  68.976  1.00  0.00     0.000 HD 
ENDBRANCH  42  45
ENDBRANCH  41  42
ENDBRANCH  40  41
ENDBRANCH  37  40
ENDBRANCH  36  37
ENDBRANCH  35  36
ENDBRANCH  18  35
ENDBRANCH  17  18
ENDBRANCH  16  17
ENDBRANCH  14  16
ENDBRANCH  13  14
ENDBRANCH  12  13
ENDBRANCH  11  12
ENDBRANCH  10  11
ENDBRANCH   9  10
ENDBRANCH   8   9
ENDBRANCH   7   8
ENDBRANCH   6   7
ENDBRANCH   5   6
ENDBRANCH   4   5
ENDBRANCH   3   4
ENDBRANCH   2   3
TORSDOF 36
ENDMDL
MODEL       45
REMARK 921   NORMALIZED FREE ENERGY PREDICTED BY IDOCK:   -3.14 KCAL/MOL
REMARK 922        TOTAL FREE ENERGY PREDICTED BY IDOCK:  -15.22 KCAL/MOL
REMARK 923 INTER-LIGAND FREE ENERGY PREDICTED BY IDOCK:  -11.56 KCAL/MOL
REMARK 924 INTRA-LIGAND FREE ENERGY PREDICTED BY IDOCK:   -3.65 KCAL/MOL
REMARK 927      BINDING AFFINITY PREDICTED BY RF-SCORE:    0.00 PKD
ROOT
HETATM    1  C   UNL     1      -5.643   9.062  72.113  1.00  0.00    -0.068 C  
HETATM    2  C   UNL     1      -6.877   8.195  71.922  1.00  0.00    -0.076 C  
ENDROOT
BRANCH   2   3
HETATM    3  C   UNL     1      -6.554   6.716  72.131  1.00  0.00    -0.058 C  
BRANCH   3   4
HETATM    4  C   UNL     1      -7.598   6.036  73.016  1.00  0.00    -0.098 C  
BRANCH   4   5
HETATM    5  C   UNL     1      -8.134   4.769  72.353  1.00  0.00    -0.107 C  
BRANCH   5   6
HETATM    6  C   UNL     1      -7.107   3.638  72.403  1.00  0.00    -0.047 C  
BRANCH   6   7
HETATM    7  C   UNL     1      -7.796   2.274  72.441  1.00  0.00    -0.053 C  
BRANCH   7   8
HETATM    8  C   UNL     1      -9.146   2.319  71.731  1.00  0.00    -0.145 C  
BRANCH   8   9
HETATM    9  C   UNL     1      -9.123   1.494  70.447  1.00  0.00    -0.142 C  
BRANCH   9  10
HETATM   10  C   UNL     1      -9.217   2.402  69.221  1.00  0.00    -0.193 C  
BRANCH  10  11
HETATM   11  C   UNL     1      -7.856   2.610  68.560  1.00  0.00    -0.058 C  
BRANCH  11  12
HETATM   12  C   UNL     1      -7.441   4.078  68.654  1.00  0.00    -0.055 C  
BRANCH  12  13
HETATM   13  C   UNL     1      -7.308   4.721  67.278  1.00  0.00    -0.077 C  
BRANCH  13  14
HETATM   14  C   UNL     1      -8.660   5.168  66.774  1.00  0.00    -0.109 C  
HETATM   15  O   UNL     1      -9.551   4.420  66.394  1.00  0.00    -0.163 OA 
BRANCH  14  16
HETATM   16  O   UNL     1      -8.764   6.525  66.859  1.00  0.00    -0.112 OA 
BRANCH  16  17
HETATM   17  C   UNL     1      -7.812   7.147  67.738  1.00  0.00    -0.114 C  
BRANCH  17  18
HETATM   18  C   UNL     1      -8.500   8.110  68.715  1.00  0.00    -0.126 C  
BRANCH  18  19
HETATM   19  O   UNL     1      -9.872   7.683  68.889  1.00  0.00    -0.158 OA 
BRANCH  19  20
HETATM   20  C   UNL     1     -10.110   6.835  69.925  1.00  0.00    -0.180 C  
HETATM   21  O   UNL     1     -10.225   5.620  69.852  1.00  0.00    -0.205 OA 
BRANCH  20  22
HETATM   22  C   UNL     1     -10.193   7.608  71.218  1.00  0.00    -0.204 C  
BRANCH  22  23
HETATM   23  C   UNL     1     -11.466   7.279  71.988  1.00  0.00    -0.305 C  
BRANCH  23  24
HETATM   24  C   UNL     1     -12.717   7.341  71.108  1.00  0.00    -0.349 C  
BRANCH  24  25
HETATM   25  C   UNL     1     -13.908   7.900  71.884  1.00  0.00    -0.402 C  
BRANCH  25  26
HETATM   26  C   UNL     1     -13.714   9.383  72.188  1.00  0.00    -0.490 C  
BRANCH  26  27
HETATM   27  C   UNL     1     -12.838  10.056  71.136  1.00  0.00    -0.480 C  
BRANCH  27  28
HETATM   28  C   UNL     1     -12.914  11.576  71.256  1.00  0.00    -0.397 C  
BRANCH  28  29
HETATM   29  C   UNL     1     -11.990  12.254  70.248  1.00  0.00    -0.373 C  
BRANCH  29  30
HETATM   30  C   UNL     1     -12.340  13.731  70.093  1.00  0.00    -0.390 C  
BRANCH  30  31
HETATM   31  C   UNL     1     -12.145  14.485  71.408  1.00  0.00    -0.420 C  
BRANCH  31  32
HETATM   32  C   UNL     1     -13.216  15.560  71.587  1.00  0.00    -0.575 C  
BRANCH  32  33
HETATM   33  C   UNL     1     -13.728  15.597  73.025  1.00  0.00    -0.560 C  
HETATM   34  C   UNL     1     -12.578  15.605  74.018  1.00  0.00    -0.767 C  
ENDBRANCH  32  33
ENDBRANCH  31  32
ENDBRANCH  30  31
ENDBRANCH  29  30
ENDBRANCH  28  29
ENDBRANCH  27  28
ENDBRANCH  26  27
ENDBRANCH  25  26
ENDBRANCH  24  25
ENDBRANCH  23  24
ENDBRANCH  22  23
ENDBRANCH  20  22
ENDBRANCH  19  20
ENDBRANCH  18  19
BRANCH  18  35
HETATM   35  C   UNL     1      -8.523   9.514  68.115  1.00  0.00    -0.119 C  
BRANCH  35  36
HETATM   36  O   UNL     1      -8.195   9.485  66.719  1.00  0.00    -0.112 OA 
BRANCH  36  37
HETATM   37  P   UNL     1      -9.367  10.268  65.716  1.00  0.00    -0.222 P  
HETATM   38  O   UNL     1     -10.513   9.289  66.341  1.00  0.00    -0.208 OA 
HETATM   39  O   UNL     1      -9.167  11.508  66.564  1.00  0.00    -0.183 OA 
BRANCH  37  40
HETATM   40  O   UNL     1     -10.540  11.051  64.714  1.00  0.00    -0.319 OA 
BRANCH  40  41
HETATM   41  C   UNL     1     -10.357  12.476  64.471  1.00  0.00    -0.336 C  
BRANCH  41  42
HETATM   42  C   UNL     1     -11.616  13.330  64.165  1.00  0.00    -0.405 C  
HETATM   43  H   UNL     1     -13.338  13.100  63.216  1.00  0.00     0.000 HD 
HETATM   44  O   UNL     1     -12.567  12.577  63.403  1.00  0.00    -0.690 OA 
BRANCH  42  45
HETATM   45  C   UNL     1     -12.292  13.894  65.423  1.00  0.00    -0.470 C  
HETATM   46  O   UNL     1     -12.342  12.909  66.464  1.00  0.00    -0.440 OA 
HETATM   47  H   UNL     1     -12.760  13.258  67.242  1.00  0.00     0.000 HD 
ENDBRANCH  42  45
ENDBRANCH  41  42
ENDBRANCH  40  41
ENDBRANCH  37  40
ENDBRANCH  36  37
ENDBRANCH  35  36
ENDBRANCH  18  35
ENDBRANCH  17  18
ENDBRANCH  16  17
ENDBRANCH  14  16
ENDBRANCH  13  14
ENDBRANCH  12  13
ENDBRANCH  11  12
ENDBRANCH  10  11
ENDBRANCH   9  10
ENDBRANCH   8   9
ENDBRANCH   7   8
ENDBRANCH   6   7
ENDBRANCH   5   6
ENDBRANCH   4   5
ENDBRANCH   3   4
ENDBRANCH   2   3
TORSDOF 36
ENDMDL
MODEL       46
REMARK 921   NORMALIZED FREE ENERGY PREDICTED BY IDOCK:   -3.11 KCAL/MOL
REMARK 922        TOTAL FREE ENERGY PREDICTED BY IDOCK:  -15.14 KCAL/MOL
REMARK 923 INTER-LIGAND FREE ENERGY PREDICTED BY IDOCK:   -8.75 KCAL/MOL
REMARK 924 INTRA-LIGAND FREE ENERGY PREDICTED BY IDOCK:   -6.39 KCAL/MOL
REMARK 927      BINDING AFFINITY PREDICTED BY RF-SCORE:    0.00 PKD
ROOT
HETATM    1  C   UNL     1      -7.379  13.532  67.729  1.00  0.00    -0.166 C  
HETATM    2  C   UNL     1      -7.182  12.026  67.775  1.00  0.00    -0.108 C  
ENDROOT
BRANCH   2   3
HETATM    3  C   UNL     1      -8.482  11.306  68.129  1.00  0.00    -0.145 C  
BRANCH   3   4
HETATM    4  C   UNL     1      -8.321  10.445  69.381  1.00  0.00    -0.152 C  
BRANCH   4   5
HETATM    5  C   UNL     1      -8.517   8.965  69.056  1.00  0.00    -0.133 C  
BRANCH   5   6
HETATM    6  C   UNL     1      -9.028   8.773  67.629  1.00  0.00    -0.141 C  
BRANCH   6   7
HETATM    7  C   UNL     1     -10.203   7.797  67.595  1.00  0.00    -0.282 C  
BRANCH   7   8
HETATM    8  C   UNL     1     -10.900   7.726  68.951  1.00  0.00    -0.022 C  
BRANCH   8   9
HETATM    9  C   UNL     1     -11.239   6.285  69.324  1.00  0.00    -0.458 C  
BRANCH   9  10
HETATM   10  C   UNL     1     -10.259   5.312  68.669  1.00  0.00    -0.223 C  
BRANCH  10  11
HETATM   11  C   UNL     1      -9.846   4.192  69.621  1.00  0.00    -0.208 C  
BRANCH  11  12
HETATM   12  C   UNL     1      -9.310   4.777  70.927  1.00  0.00    -0.209 C  
BRANCH  12  13
HETATM   13  C   UNL     1      -9.955   4.130  72.148  1.00  0.00    -0.243 C  
BRANCH  13  14
HETATM   14  C   UNL     1      -8.894   3.589  73.077  1.00  0.00    -0.092 C  
HETATM   15  O   UNL     1      -9.104   2.840  74.022  1.00  0.00    -0.074 OA 
BRANCH  14  16
HETATM   16  O   UNL     1      -7.662   4.011  72.674  1.00  0.00    -0.071 OA 
BRANCH  16  17
HETATM   17  C   UNL     1      -7.027   4.947  73.561  1.00  0.00    -0.072 C  
BRANCH  17  18
HETATM   18  C   UNL     1      -6.128   5.925  72.791  1.00  0.00    -0.045 C  
BRANCH  18  19
HETATM   19  O   UNL     1      -6.964   6.952  72.207  1.00  0.00    -0.062 OA 
BRANCH  19  20
HETATM   20  C   UNL     1      -7.415   7.914  73.055  1.00  0.00    -0.117 C  
HETATM   21  O   UNL     1      -6.797   8.397  73.992  1.00  0.00    -0.131 OA 
BRANCH  20  22
HETATM   22  C   UNL     1      -8.810   8.335  72.665  1.00  0.00    -0.304 C  
BRANCH  22  23
HETATM   23  C   UNL     1      -9.869   7.514  73.390  1.00  0.00    -0.365 C  
BRANCH  23  24
HETATM   24  C   UNL     1     -11.286   7.818  72.897  1.00  0.00    -0.434 C  
BRANCH  24  25
HETATM   25  C   UNL     1     -11.299   9.046  71.988  1.00  0.00    -0.395 C  
BRANCH  25  26
HETATM   26  C   UNL     1     -12.672   9.711  71.991  1.00  0.00    -0.470 C  
BRANCH  26  27
HETATM   27  C   UNL     1     -12.982  10.353  70.642  1.00  0.00    -0.357 C  
BRANCH  27  28
HETATM   28  C   UNL     1     -11.863  11.303  70.223  1.00  0.00    -0.446 C  
BRANCH  28  29
HETATM   29  C   UNL     1     -11.843  11.494  68.708  1.00  0.00    -0.394 C  
BRANCH  29  30
HETATM   30  C   UNL     1     -11.841  12.976  68.343  1.00  0.00    -0.370 C  
BRANCH  30  31
HETATM   31  C   UNL     1     -11.431  13.837  69.537  1.00  0.00    -0.327 C  
BRANCH  31  32
HETATM   32  C   UNL     1     -12.139  15.190  69.505  1.00  0.00    -0.316 C  
BRANCH  32  33
HETATM   33  C   UNL     1     -11.143  16.332  69.319  1.00  0.00    -0.325 C  
HETATM   34  C   UNL     1      -9.712  15.843  69.468  1.00  0.00    -0.255 C  
ENDBRANCH  32  33
ENDBRANCH  31  32
ENDBRANCH  30  31
ENDBRANCH  29  30
ENDBRANCH  28  29
ENDBRANCH  27  28
ENDBRANCH  26  27
ENDBRANCH  25  26
ENDBRANCH  24  25
ENDBRANCH  23  24
ENDBRANCH  22  23
ENDBRANCH  20  22
ENDBRANCH  19  20
ENDBRANCH  18  19
BRANCH  18  35
HETATM   35  C   UNL     1      -5.434   5.186  71.649  1.00  0.00    -0.005 C  
BRANCH  35  36
HETATM   36  O   UNL     1      -5.389   5.992  70.463  1.00  0.00    -0.012 OA 
BRANCH  36  37
HETATM   37  P   UNL     1      -5.581   5.085  69.003  1.00  0.00    -0.013 P  
HETATM   38  O   UNL     1      -6.004   3.788  69.898  1.00  0.00    -0.018 OA 
HETATM   39  O   UNL     1      -6.775   5.963  68.691  1.00  0.00    -0.059 OA 
BRANCH  37  40
HETATM   40  O   UNL     1      -5.772   4.177  67.543  1.00  0.00    -0.020 OA 
BRANCH  40  41
HETATM   41  C   UNL     1      -7.134   3.843  67.146  1.00  0.00    -0.063 C  
BRANCH  41  42
HETATM   42  C   UNL     1      -7.670   4.434  65.814  1.00  0.00    -0.090 C  
HETATM   43  H   UNL     1      -7.088   4.533  63.925  1.00  0.00     0.000 HD 
HETATM   44  O   UNL     1      -6.760   4.171  64.740  1.00  0.00    -0.042 OA 
BRANCH  42  45
HETATM   45  C   UNL     1      -9.071   3.929  65.442  1.00  0.00    -0.143 C  
HETATM   46  O   UNL     1      -9.925   5.017  65.064  1.00  0.00    -0.372 OA 
HETATM   47  H   UNL     1     -10.792   4.705  64.833  1.00  0.00     0.000 HD 
ENDBRANCH  42  45
ENDBRANCH  41  42
ENDBRANCH  40  41
ENDBRANCH  37  40
ENDBRANCH  36  37
ENDBRANCH  35  36
ENDBRANCH  18  35
ENDBRANCH  17  18
ENDBRANCH  16  17
ENDBRANCH  14  16
ENDBRANCH  13  14
ENDBRANCH  12  13
ENDBRANCH  11  12
ENDBRANCH  10  11
ENDBRANCH   9  10
ENDBRANCH   8   9
ENDBRANCH   7   8
ENDBRANCH   6   7
ENDBRANCH   5   6
ENDBRANCH   4   5
ENDBRANCH   3   4
ENDBRANCH   2   3
TORSDOF 36
ENDMDL
MODEL       47
REMARK 921   NORMALIZED FREE ENERGY PREDICTED BY IDOCK:   -3.07 KCAL/MOL
REMARK 922        TOTAL FREE ENERGY PREDICTED BY IDOCK:  -15.00 KCAL/MOL
REMARK 923 INTER-LIGAND FREE ENERGY PREDICTED BY IDOCK:   -9.74 KCAL/MOL
REMARK 924 INTRA-LIGAND FREE ENERGY PREDICTED BY IDOCK:   -5.26 KCAL/MOL
REMARK 927      BINDING AFFINITY PREDICTED BY RF-SCORE:    0.00 PKD
ROOT
HETATM    1  C   UNL     1     -11.893  12.973  68.661  1.00  0.00    -0.353 C  
HETATM    2  C   UNL     1     -11.748  14.418  68.211  1.00  0.00    -0.376 C  
ENDROOT
BRANCH   2   3
HETATM    3  C   UNL     1     -10.292  14.876  68.275  1.00  0.00    -0.232 C  
BRANCH   3   4
HETATM    4  C   UNL     1     -10.004  15.645  69.563  1.00  0.00    -0.285 C  
BRANCH   4   5
HETATM    5  C   UNL     1     -11.291  16.213  70.159  1.00  0.00    -0.347 C  
BRANCH   5   6
HETATM    6  C   UNL     1     -11.555  15.648  71.554  1.00  0.00    -0.507 C  
BRANCH   6   7
HETATM    7  C   UNL     1     -13.053  15.468  71.798  1.00  0.00    -0.548 C  
BRANCH   7   8
HETATM    8  C   UNL     1     -13.313  14.438  72.893  1.00  0.00    -0.575 C  
BRANCH   8   9
HETATM    9  C   UNL     1     -13.831  13.127  72.308  1.00  0.00    -0.586 C  
BRANCH   9  10
HETATM   10  C   UNL     1     -12.700  12.107  72.182  1.00  0.00     0.049 C  
BRANCH  10  11
HETATM   11  C   UNL     1     -13.169  10.814  71.518  1.00  0.00    -0.434 C  
BRANCH  11  12
HETATM   12  C   UNL     1     -12.039   9.785  71.508  1.00  0.00    -0.493 C  
BRANCH  12  13
HETATM   13  C   UNL     1     -11.503   9.543  70.101  1.00  0.00    -0.205 C  
BRANCH  13  14
HETATM   14  C   UNL     1     -10.858   8.180  70.012  1.00  0.00    -0.233 C  
HETATM   15  O   UNL     1     -10.915   7.317  70.879  1.00  0.00    -0.243 OA 
BRANCH  14  16
HETATM   16  O   UNL     1     -10.251   8.029  68.801  1.00  0.00    -0.198 OA 
BRANCH  16  17
HETATM   17  C   UNL     1     -10.160   6.670  68.339  1.00  0.00    -0.156 C  
BRANCH  17  18
HETATM   18  C   UNL     1      -8.882   6.443  67.520  1.00  0.00    -0.111 C  
BRANCH  18  19
HETATM   19  O   UNL     1      -9.171   5.486  66.474  1.00  0.00    -0.132 OA 
BRANCH  19  20
HETATM   20  C   UNL     1      -8.609   5.733  65.261  1.00  0.00    -0.129 C  
HETATM   21  O   UNL     1      -8.328   4.900  64.412  1.00  0.00    -0.120 OA 
BRANCH  20  22
HETATM   22  C   UNL     1      -8.390   7.215  65.085  1.00  0.00    -0.081 C  
BRANCH  22  23
HETATM   23  C   UNL     1      -8.143   7.578  63.625  1.00  0.00    -0.021 C  
BRANCH  23  24
HETATM   24  C   UNL     1      -7.128   8.713  63.468  1.00  0.00    -0.089 C  
BRANCH  24  25
HETATM   25  C   UNL     1      -7.784  10.073  63.697  1.00  0.00    -0.143 C  
BRANCH  25  26
HETATM   26  C   UNL     1      -9.083  10.193  62.906  1.00  0.00    -0.299 C  
BRANCH  26  27
HETATM   27  C   UNL     1     -10.213  10.742  63.773  1.00  0.00    -0.354 C  
BRANCH  27  28
HETATM   28  C   UNL     1      -9.969  10.429  65.247  1.00  0.00    -0.376 C  
BRANCH  28  29
HETATM   29  C   UNL     1      -9.853  11.711  66.069  1.00  0.00    -0.258 C  
BRANCH  29  30
HETATM   30  C   UNL     1      -9.060  11.468  67.350  1.00  0.00    -0.166 C  
BRANCH  30  31
HETATM   31  C   UNL     1      -7.852  10.570  67.090  1.00  0.00    -0.112 C  
BRANCH  31  32
HETATM   32  C   UNL     1      -6.720  10.876  68.069  1.00  0.00    -0.063 C  
BRANCH  32  33
HETATM   33  C   UNL     1      -7.231  10.927  69.507  1.00  0.00    -0.113 C  
HETATM   34  C   UNL     1      -7.552   9.535  70.027  1.00  0.00    -0.134 C  
ENDBRANCH  32  33
ENDBRANCH  31  32
ENDBRANCH  30  31
ENDBRANCH  29  30
ENDBRANCH  28  29
ENDBRANCH  27  28
ENDBRANCH  26  27
ENDBRANCH  25  26
ENDBRANCH  24  25
ENDBRANCH  23  24
ENDBRANCH  22  23
ENDBRANCH  20  22
ENDBRANCH  19  20
ENDBRANCH  18  19
BRANCH  18  35
HETATM   35  C   UNL     1      -7.803   5.840  68.416  1.00  0.00    -0.101 C  
BRANCH  35  36
HETATM   36  O   UNL     1      -8.240   4.598  68.987  1.00  0.00    -0.080 OA 
BRANCH  36  37
HETATM   37  P   UNL     1      -7.868   4.441  70.668  1.00  0.00    -0.057 P  
HETATM   38  O   UNL     1      -7.378   5.997  70.676  1.00  0.00    -0.080 OA 
HETATM   39  O   UNL     1      -9.358   4.322  70.920  1.00  0.00    -0.126 OA 
BRANCH  37  40
HETATM   40  O   UNL     1      -7.496   4.284  72.351  1.00  0.00    -0.069 OA 
BRANCH  40  41
HETATM   41  C   UNL     1      -8.603   3.976  73.247  1.00  0.00    -0.092 C  
BRANCH  41  42
HETATM   42  C   UNL     1      -8.921   4.983  74.385  1.00  0.00    -0.111 C  
HETATM   43  H   UNL     1      -8.107   6.614  75.156  1.00  0.00     0.000 HD 
HETATM   44  O   UNL     1      -7.913   5.997  74.460  1.00  0.00    -0.102 OA 
BRANCH  42  45
HETATM   45  C   UNL     1     -10.304   5.637  74.253  1.00  0.00    -0.272 C  
HETATM   46  O   UNL     1     -10.824   5.477  72.926  1.00  0.00    -0.231 OA 
HETATM   47  H   UNL     1     -11.679   5.881  72.845  1.00  0.00     0.000 HD 
ENDBRANCH  42  45
ENDBRANCH  41  42
ENDBRANCH  40  41
ENDBRANCH  37  40
ENDBRANCH  36  37
ENDBRANCH  35  36
ENDBRANCH  18  35
ENDBRANCH  17  18
ENDBRANCH  16  17
ENDBRANCH  14  16
ENDBRANCH  13  14
ENDBRANCH  12  13
ENDBRANCH  11  12
ENDBRANCH  10  11
ENDBRANCH   9  10
ENDBRANCH   8   9
ENDBRANCH   7   8
ENDBRANCH   6   7
ENDBRANCH   5   6
ENDBRANCH   4   5
ENDBRANCH   3   4
ENDBRANCH   2   3
TORSDOF 36
ENDMDL
MODEL       48
REMARK 921   NORMALIZED FREE ENERGY PREDICTED BY IDOCK:   -3.06 KCAL/MOL
REMARK 922        TOTAL FREE ENERGY PREDICTED BY IDOCK:  -14.99 KCAL/MOL
REMARK 923 INTER-LIGAND FREE ENERGY PREDICTED BY IDOCK:  -11.02 KCAL/MOL
REMARK 924 INTRA-LIGAND FREE ENERGY PREDICTED BY IDOCK:   -3.97 KCAL/MOL
REMARK 927      BINDING AFFINITY PREDICTED BY RF-SCORE:    0.00 PKD
ROOT
HETATM    1  C   UNL     1      -5.578   9.157  72.322  1.00  0.00    -0.071 C  
HETATM    2  C   UNL     1      -6.962   8.544  72.183  1.00  0.00    -0.096 C  
ENDROOT
BRANCH   2   3
HETATM    3  C   UNL     1      -6.916   7.026  72.352  1.00  0.00    -0.065 C  
BRANCH   3   4
HETATM    4  C   UNL     1      -7.653   6.583  73.615  1.00  0.00    -0.087 C  
BRANCH   4   5
HETATM    5  C   UNL     1      -8.472   5.320  73.355  1.00  0.00    -0.113 C  
BRANCH   5   6
HETATM    6  C   UNL     1      -7.641   4.060  73.589  1.00  0.00    -0.076 C  
BRANCH   6   7
HETATM    7  C   UNL     1      -8.539   2.852  73.857  1.00  0.00    -0.073 C  
BRANCH   7   8
HETATM    8  C   UNL     1      -9.754   2.855  72.934  1.00  0.00    -0.174 C  
BRANCH   8   9
HETATM    9  C   UNL     1      -9.512   1.994  71.697  1.00  0.00    -0.191 C  
BRANCH   9  10
HETATM   10  C   UNL     1      -9.600   2.837  70.426  1.00  0.00    -0.137 C  
BRANCH  10  11
HETATM   11  C   UNL     1      -8.223   3.294  69.948  1.00  0.00    -0.073 C  
BRANCH  11  12
HETATM   12  C   UNL     1      -8.180   4.818  69.838  1.00  0.00    -0.068 C  
BRANCH  12  13
HETATM   13  C   UNL     1      -7.920   5.279  68.408  1.00  0.00    -0.087 C  
BRANCH  13  14
HETATM   14  C   UNL     1      -9.224   5.601  67.716  1.00  0.00    -0.106 C  
HETATM   15  O   UNL     1     -10.065   4.778  67.383  1.00  0.00    -0.174 OA 
BRANCH  14  16
HETATM   16  O   UNL     1      -9.352   6.951  67.568  1.00  0.00    -0.122 OA 
BRANCH  16  17
HETATM   17  C   UNL     1      -8.525   7.733  68.447  1.00  0.00    -0.125 C  
BRANCH  17  18
HETATM   18  C   UNL     1      -9.364   8.451  69.512  1.00  0.00    -0.158 C  
BRANCH  18  19
HETATM   19  O   UNL     1     -10.706   7.908  69.482  1.00  0.00    -0.236 OA 
BRANCH  19  20
HETATM   20  C   UNL     1     -11.071   7.152  70.552  1.00  0.00    -0.271 C  
HETATM   21  O   UNL     1     -11.649   6.076  70.512  1.00  0.00    -0.270 OA 
BRANCH  20  22
HETATM   22  C   UNL     1     -10.638   7.824  71.831  1.00  0.00    -0.270 C  
BRANCH  22  23
HETATM   23  C   UNL     1     -11.815   8.466  72.556  1.00  0.00    -0.427 C  
BRANCH  23  24
HETATM   24  C   UNL     1     -13.120   8.363  71.761  1.00  0.00    -0.373 C  
BRANCH  24  25
HETATM   25  C   UNL     1     -13.731   9.743  71.526  1.00  0.00    -0.264 C  
BRANCH  25  26
HETATM   26  C   UNL     1     -12.648  10.776  71.231  1.00  0.00    -0.532 C  
BRANCH  26  27
HETATM   27  C   UNL     1     -13.076  12.172  71.675  1.00  0.00    -0.413 C  
BRANCH  27  28
HETATM   28  C   UNL     1     -12.440  13.242  70.792  1.00  0.00    -0.403 C  
BRANCH  28  29
HETATM   29  C   UNL     1     -12.088  14.487  71.603  1.00  0.00    -0.379 C  
BRANCH  29  30
HETATM   30  C   UNL     1     -11.275  15.472  70.768  1.00  0.00    -0.384 C  
BRANCH  30  31
HETATM   31  C   UNL     1     -12.017  15.853  69.488  1.00  0.00    -0.274 C  
BRANCH  31  32
HETATM   32  C   UNL     1     -11.364  15.211  68.265  1.00  0.00    -0.338 C  
BRANCH  32  33
HETATM   33  C   UNL     1     -10.505  16.219  67.504  1.00  0.00    -0.302 C  
HETATM   34  C   UNL     1     -10.694  17.625  68.047  1.00  0.00    -0.333 C  
ENDBRANCH  32  33
ENDBRANCH  31  32
ENDBRANCH  30  31
ENDBRANCH  29  30
ENDBRANCH  28  29
ENDBRANCH  27  28
ENDBRANCH  26  27
ENDBRANCH  25  26
ENDBRANCH  24  25
ENDBRANCH  23  24
ENDBRANCH  22  23
ENDBRANCH  20  22
ENDBRANCH  19  20
ENDBRANCH  18  19
BRANCH  18  35
HETATM   35  C   UNL     1      -9.457   9.936  69.170  1.00  0.00    -0.196 C  
BRANCH  35  36
HETATM   36  O   UNL     1      -8.938  10.199  67.859  1.00  0.00    -0.127 OA 
BRANCH  36  37
HETATM   37  P   UNL     1      -9.839  11.387  66.983  1.00  0.00    -0.197 P  
HETATM   38  O   UNL     1     -11.192  10.515  67.248  1.00  0.00    -0.307 OA 
HETATM   39  O   UNL     1      -9.559  12.346  68.123  1.00  0.00    -0.208 OA 
BRANCH  37  40
HETATM   40  O   UNL     1     -10.741  12.576  66.107  1.00  0.00    -0.254 OA 
BRANCH  40  41
HETATM   41  C   UNL     1     -10.210  12.989  64.814  1.00  0.00    -0.291 C  
BRANCH  41  42
HETATM   42  C   UNL     1     -10.878  12.415  63.536  1.00  0.00    -0.438 C  
HETATM   43  H   UNL     1     -11.188  10.635  62.726  1.00  0.00     0.000 HD 
HETATM   44  O   UNL     1     -10.778  10.987  63.509  1.00  0.00    -0.329 OA 
BRANCH  42  45
HETATM   45  C   UNL     1     -12.346  12.834  63.374  1.00  0.00    -0.437 C  
HETATM   46  O   UNL     1     -13.193  12.095  64.264  1.00  0.00    -0.768 OA 
HETATM   47  H   UNL     1     -14.101  12.355  64.164  1.00  0.00     0.000 HD 
ENDBRANCH  42  45
ENDBRANCH  41  42
ENDBRANCH  40  41
ENDBRANCH  37  40
ENDBRANCH  36  37
ENDBRANCH  35  36
ENDBRANCH  18  35
ENDBRANCH  17  18
ENDBRANCH  16  17
ENDBRANCH  14  16
ENDBRANCH  13  14
ENDBRANCH  12  13
ENDBRANCH  11  12
ENDBRANCH  10  11
ENDBRANCH   9  10
ENDBRANCH   8   9
ENDBRANCH   7   8
ENDBRANCH   6   7
ENDBRANCH   5   6
ENDBRANCH   4   5
ENDBRANCH   3   4
ENDBRANCH   2   3
TORSDOF 36
ENDMDL
MODEL       49
REMARK 921   NORMALIZED FREE ENERGY PREDICTED BY IDOCK:   -3.05 KCAL/MOL
REMARK 922        TOTAL FREE ENERGY PREDICTED BY IDOCK:  -14.95 KCAL/MOL
REMARK 923 INTER-LIGAND FREE ENERGY PREDICTED BY IDOCK:  -11.73 KCAL/MOL
REMARK 924 INTRA-LIGAND FREE ENERGY PREDICTED BY IDOCK:   -3.23 KCAL/MOL
REMARK 927      BINDING AFFINITY PREDICTED BY RF-SCORE:    0.00 PKD
ROOT
HETATM    1  C   UNL     1      -9.224   2.905  63.480  1.00  0.00    -0.096 C  
HETATM    2  C   UNL     1      -9.902   4.118  64.096  1.00  0.00    -0.133 C  
ENDROOT
BRANCH   2   3
HETATM    3  C   UNL     1      -9.013   4.774  65.151  1.00  0.00    -0.152 C  
BRANCH   3   4
HETATM    4  C   UNL     1      -9.750   5.895  65.883  1.00  0.00     0.060 C  
BRANCH   4   5
HETATM    5  C   UNL     1      -9.429   5.877  67.376  1.00  0.00    -0.112 C  
BRANCH   5   6
HETATM    6  C   UNL     1     -10.701   5.947  68.220  1.00  0.00    -0.319 C  
BRANCH   6   7
HETATM    7  C   UNL     1     -10.487   5.300  69.588  1.00  0.00    -0.320 C  
BRANCH   7   8
HETATM    8  C   UNL     1      -9.326   5.953  70.331  1.00  0.00    -0.181 C  
BRANCH   8   9
HETATM    9  C   UNL     1      -9.696   6.253  71.782  1.00  0.00    -0.168 C  
BRANCH   9  10
HETATM   10  C   UNL     1     -11.107   5.756  72.093  1.00  0.00    -0.327 C  
BRANCH  10  11
HETATM   11  C   UNL     1     -12.028   6.893  72.531  1.00  0.00    -0.087 C  
BRANCH  11  12
HETATM   12  C   UNL     1     -12.271   7.855  71.368  1.00  0.00    -0.337 C  
BRANCH  12  13
HETATM   13  C   UNL     1     -12.141   9.312  71.798  1.00  0.00    -0.457 C  
BRANCH  13  14
HETATM   14  C   UNL     1     -11.697  10.165  70.633  1.00  0.00    -0.338 C  
HETATM   15  O   UNL     1     -11.919  11.363  70.515  1.00  0.00    -0.348 OA 
BRANCH  14  16
HETATM   16  O   UNL     1     -10.962   9.418  69.761  1.00  0.00    -0.237 OA 
BRANCH  16  17
HETATM   17  C   UNL     1      -9.844  10.105  69.174  1.00  0.00    -0.214 C  
BRANCH  17  18
HETATM   18  C   UNL     1     -10.181  10.618  67.767  1.00  0.00    -0.180 C  
BRANCH  18  19
HETATM   19  O   UNL     1      -9.756   9.626  66.803  1.00  0.00    -0.174 OA 
BRANCH  19  20
HETATM   20  C   UNL     1      -8.442   9.652  66.454  1.00  0.00    -0.123 C  
HETATM   21  O   UNL     1      -7.498   9.365  67.175  1.00  0.00    -0.090 OA 
BRANCH  20  22
HETATM   22  C   UNL     1      -8.298  10.071  65.012  1.00  0.00    -0.158 C  
BRANCH  22  23
HETATM   23  C   UNL     1      -9.654  10.223  64.333  1.00  0.00    -0.378 C  
BRANCH  23  24
HETATM   24  C   UNL     1      -9.957  11.674  63.950  1.00  0.00    -0.358 C  
BRANCH  24  25
HETATM   25  C   UNL     1     -11.220  11.764  63.095  1.00  0.00    -0.224 C  
BRANCH  25  26
HETATM   26  C   UNL     1     -12.068  12.966  63.501  1.00  0.00    -0.633 C  
BRANCH  26  27
HETATM   27  C   UNL     1     -12.614  12.809  64.917  1.00  0.00    -0.541 C  
BRANCH  27  28
HETATM   28  C   UNL     1     -12.668  14.156  65.632  1.00  0.00    -0.469 C  
BRANCH  28  29
HETATM   29  C   UNL     1     -12.150  14.040  67.063  1.00  0.00    -0.455 C  
BRANCH  29  30
HETATM   30  C   UNL     1     -11.438  15.320  67.492  1.00  0.00    -0.271 C  
BRANCH  30  31
HETATM   31  C   UNL     1     -11.719  15.642  68.959  1.00  0.00    -0.408 C  
BRANCH  31  32
HETATM   32  C   UNL     1     -11.705  14.374  69.811  1.00  0.00    -0.361 C  
BRANCH  32  33
HETATM   33  C   UNL     1     -12.021  14.684  71.272  1.00  0.00    -0.401 C  
HETATM   34  C   UNL     1     -13.485  15.049  71.452  1.00  0.00    -0.525 C  
ENDBRANCH  32  33
ENDBRANCH  31  32
ENDBRANCH  30  31
ENDBRANCH  29  30
ENDBRANCH  28  29
ENDBRANCH  27  28
ENDBRANCH  26  27
ENDBRANCH  25  26
ENDBRANCH  24  25
ENDBRANCH  23  24
ENDBRANCH  22  23
ENDBRANCH  20  22
ENDBRANCH  19  20
ENDBRANCH  18  19
BRANCH  18  35
HETATM   35  C   UNL     1      -9.397  11.899  67.491  1.00  0.00    -0.177 C  
BRANCH  35  36
HETATM   36  O   UNL     1      -8.603  12.274  68.626  1.00  0.00    -0.102 OA 
BRANCH  36  37
HETATM   37  P   UNL     1      -7.977  13.883  68.531  1.00  0.00    -0.078 P  
HETATM   38  O   UNL     1      -6.591  13.352  69.208  1.00  0.00    -0.105 OA 
HETATM   39  O   UNL     1      -7.963  13.719  67.025  1.00  0.00    -0.093 OA 
BRANCH  37  40
HETATM   40  O   UNL     1      -7.349  15.493  68.436  1.00  0.00    -0.111 OA 
BRANCH  40  41
HETATM   41  C   UNL     1      -8.147  16.551  69.043  1.00  0.00    -0.214 C  
BRANCH  41  42
HETATM   42  C   UNL     1      -8.523  17.774  68.164  1.00  0.00    -0.262 C  
HETATM   43  H   UNL     1      -8.794  19.719  68.412  1.00  0.00     0.000 HD 
HETATM   44  O   UNL     1      -8.564  18.970  68.950  1.00  0.00    -0.333 OA 
BRANCH  42  45
HETATM   45  C   UNL     1      -7.586  17.975  66.964  1.00  0.00    -0.217 C  
HETATM   46  O   UNL     1      -8.318  17.954  65.732  1.00  0.00    -0.521 OA 
HETATM   47  H   UNL     1      -7.739  18.079  64.990  1.00  0.00     0.000 HD 
ENDBRANCH  42  45
ENDBRANCH  41  42
ENDBRANCH  40  41
ENDBRANCH  37  40
ENDBRANCH  36  37
ENDBRANCH  35  36
ENDBRANCH  18  35
ENDBRANCH  17  18
ENDBRANCH  16  17
ENDBRANCH  14  16
ENDBRANCH  13  14
ENDBRANCH  12  13
ENDBRANCH  11  12
ENDBRANCH  10  11
ENDBRANCH   9  10
ENDBRANCH   8   9
ENDBRANCH   7   8
ENDBRANCH   6   7
ENDBRANCH   5   6
ENDBRANCH   4   5
ENDBRANCH   3   4
ENDBRANCH   2   3
TORSDOF 36
ENDMDL
MODEL       50
REMARK 921   NORMALIZED FREE ENERGY PREDICTED BY IDOCK:   -3.03 KCAL/MOL
REMARK 922        TOTAL FREE ENERGY PREDICTED BY IDOCK:  -14.87 KCAL/MOL
REMARK 923 INTER-LIGAND FREE ENERGY PREDICTED BY IDOCK:   -9.59 KCAL/MOL
REMARK 924 INTRA-LIGAND FREE ENERGY PREDICTED BY IDOCK:   -5.28 KCAL/MOL
REMARK 927      BINDING AFFINITY PREDICTED BY RF-SCORE:    0.00 PKD
ROOT
HETATM    1  C   UNL     1      -7.271   7.496  73.811  1.00  0.00    -0.113 C  
HETATM    2  C   UNL     1      -8.086   7.314  72.542  1.00  0.00    -0.112 C  
ENDROOT
BRANCH   2   3
HETATM    3  C   UNL     1      -8.229   5.837  72.180  1.00  0.00    -0.112 C  
BRANCH   3   4
HETATM    4  C   UNL     1      -8.264   5.634  70.666  1.00  0.00    -0.118 C  
BRANCH   4   5
HETATM    5  C   UNL     1      -7.209   6.496  69.975  1.00  0.00    -0.080 C  
BRANCH   5   6
HETATM    6  C   UNL     1      -6.193   5.637  69.223  1.00  0.00    -0.029 C  
BRANCH   6   7
HETATM    7  C   UNL     1      -6.491   5.622  67.724  1.00  0.00    -0.047 C  
BRANCH   7   8
HETATM    8  C   UNL     1      -6.379   7.022  67.126  1.00  0.00    -0.052 C  
BRANCH   8   9
HETATM    9  C   UNL     1      -7.168   7.132  65.824  1.00  0.00    -0.073 C  
BRANCH   9  10
HETATM   10  C   UNL     1      -7.276   8.590  65.380  1.00  0.00    -0.083 C  
BRANCH  10  11
HETATM   11  C   UNL     1      -8.564   8.856  64.604  1.00  0.00    -0.169 C  
BRANCH  11  12
HETATM   12  C   UNL     1      -8.896  10.348  64.623  1.00  0.00    -0.216 C  
BRANCH  12  13
HETATM   13  C   UNL     1     -10.400  10.596  64.633  1.00  0.00    -0.353 C  
BRANCH  13  14
HETATM   14  C   UNL     1     -10.688  12.060  64.870  1.00  0.00    -0.301 C  
HETATM   15  O   UNL     1     -10.490  12.956  64.060  1.00  0.00    -0.415 OA 
BRANCH  14  16
HETATM   16  O   UNL     1     -11.257  12.230  66.098  1.00  0.00    -0.296 OA 
BRANCH  16  17
HETATM   17  C   UNL     1     -10.616  13.215  66.926  1.00  0.00    -0.263 C  
BRANCH  17  18
HETATM   18  C   UNL     1     -11.399  14.535  66.933  1.00  0.00    -0.348 C  
BRANCH  18  19
HETATM   19  O   UNL     1     -10.463  15.623  67.121  1.00  0.00    -0.290 OA 
BRANCH  19  20
HETATM   20  C   UNL     1      -9.988  16.208  65.989  1.00  0.00    -0.348 C  
HETATM   21  O   UNL     1     -10.660  16.663  65.075  1.00  0.00    -0.683 OA 
BRANCH  20  22
HETATM   22  C   UNL     1      -8.481  16.244  66.019  1.00  0.00    -0.185 C  
BRANCH  22  23
HETATM   23  C   UNL     1      -7.939  15.945  67.412  1.00  0.00    -0.187 C  
BRANCH  23  24
HETATM   24  C   UNL     1      -7.263  14.575  67.496  1.00  0.00    -0.210 C  
BRANCH  24  25
HETATM   25  C   UNL     1      -5.876  14.684  68.128  1.00  0.00    -0.138 C  
BRANCH  25  26
HETATM   26  C   UNL     1      -5.606  13.504  69.057  1.00  0.00    -0.074 C  
BRANCH  26  27
HETATM   27  C   UNL     1      -6.818  12.582  69.151  1.00  0.00    -0.062 C  
BRANCH  27  28
HETATM   28  C   UNL     1      -6.511  11.369  70.026  1.00  0.00    -0.094 C  
BRANCH  28  29
HETATM   29  C   UNL     1      -7.001  10.080  69.369  1.00  0.00    -0.069 C  
BRANCH  29  30
HETATM   30  C   UNL     1      -8.522   9.978  69.433  1.00  0.00    -0.176 C  
BRANCH  30  31
HETATM   31  C   UNL     1      -9.127   9.882  68.033  1.00  0.00    -0.123 C  
BRANCH  31  32
HETATM   32  C   UNL     1     -10.501   9.215  68.074  1.00  0.00    -0.276 C  
BRANCH  32  33
HETATM   33  C   UNL     1     -10.418   7.751  67.648  1.00  0.00    -0.308 C  
HETATM   34  C   UNL     1     -10.884   6.827  68.760  1.00  0.00    -0.280 C  
ENDBRANCH  32  33
ENDBRANCH  31  32
ENDBRANCH  30  31
ENDBRANCH  29  30
ENDBRANCH  28  29
ENDBRANCH  27  28
ENDBRANCH  26  27
ENDBRANCH  25  26
ENDBRANCH  24  25
ENDBRANCH  23  24
ENDBRANCH  22  23
ENDBRANCH  20  22
ENDBRANCH  19  20
ENDBRANCH  18  19
BRANCH  18  35
HETATM   35  C   UNL     1     -12.367  14.546  68.114  1.00  0.00     0.065 C  
BRANCH  35  36
HETATM   36  O   UNL     1     -11.726  15.030  69.303  1.00  0.00    -0.290 OA 
BRANCH  36  37
HETATM   37  P   UNL     1     -12.124  14.124  70.722  1.00  0.00    -0.300 P  
HETATM   38  O   UNL     1     -11.156  15.110  71.588  1.00  0.00    -0.334 OA 
HETATM   39  O   UNL     1     -13.529  14.680  70.604  1.00  0.00    -0.261 OA 
BRANCH  37  40
HETATM   40  O   UNL     1     -12.522  13.218  72.141  1.00  0.00     0.007 OA 
BRANCH  40  41
HETATM   41  C   UNL     1     -13.526  12.171  71.998  1.00  0.00    -0.286 C  
BRANCH  41  42
HETATM   42  C   UNL     1     -13.088  10.824  71.364  1.00  0.00    -0.369 C  
HETATM   43  H   UNL     1     -11.393   9.867  71.001  1.00  0.00     0.000 HD 
HETATM   44  O   UNL     1     -11.662  10.692  71.389  1.00  0.00    -0.196 OA 
BRANCH  42  45
HETATM   45  C   UNL     1     -13.732   9.598  72.028  1.00  0.00    -0.316 C  
HETATM   46  O   UNL     1     -14.241   8.689  71.042  1.00  0.00    -0.627 OA 
HETATM   47  H   UNL     1     -14.640   7.931  71.453  1.00  0.00     0.000 HD 
ENDBRANCH  42  45
ENDBRANCH  41  42
ENDBRANCH  40  41
ENDBRANCH  37  40
ENDBRANCH  36  37
ENDBRANCH  35  36
ENDBRANCH  18  35
ENDBRANCH  17  18
ENDBRANCH  16  17
ENDBRANCH  14  16
ENDBRANCH  13  14
ENDBRANCH  12  13
ENDBRANCH  11  12
ENDBRANCH  10  11
ENDBRANCH   9  10
ENDBRANCH   8   9
ENDBRANCH   7   8
ENDBRANCH   6   7
ENDBRANCH   5   6
ENDBRANCH   4   5
ENDBRANCH   3   4
ENDBRANCH   2   3
TORSDOF 36
ENDMDL
MODEL       51
REMARK 921   NORMALIZED FREE ENERGY PREDICTED BY IDOCK:   -2.98 KCAL/MOL
REMARK 922        TOTAL FREE ENERGY PREDICTED BY IDOCK:  -14.71 KCAL/MOL
REMARK 923 INTER-LIGAND FREE ENERGY PREDICTED BY IDOCK:  -11.48 KCAL/MOL
REMARK 924 INTRA-LIGAND FREE ENERGY PREDICTED BY IDOCK:   -3.23 KCAL/MOL
REMARK 927      BINDING AFFINITY PREDICTED BY RF-SCORE:    0.00 PKD
ROOT
HETATM    1  C   UNL     1      -7.469   5.264  72.328  1.00  0.00    -0.095 C  
HETATM    2  C   UNL     1      -8.561   5.247  71.271  1.00  0.00    -0.132 C  
ENDROOT
BRANCH   2   3
HETATM    3  C   UNL     1      -8.141   4.427  70.052  1.00  0.00    -0.060 C  
BRANCH   3   4
HETATM    4  C   UNL     1      -8.486   5.148  68.749  1.00  0.00    -0.087 C  
BRANCH   4   5
HETATM    5  C   UNL     1      -7.833   6.528  68.699  1.00  0.00    -0.110 C  
BRANCH   5   6
HETATM    6  C   UNL     1      -7.160   6.777  67.350  1.00  0.00    -0.084 C  
BRANCH   6   7
HETATM    7  C   UNL     1      -8.167   7.293  66.323  1.00  0.00    -0.123 C  
BRANCH   7   8
HETATM    8  C   UNL     1      -7.561   8.400  65.465  1.00  0.00    -0.090 C  
BRANCH   8   9
HETATM    9  C   UNL     1      -8.342   8.584  64.166  1.00  0.00    -0.102 C  
BRANCH   9  10
HETATM   10  C   UNL     1      -8.175  10.006  63.632  1.00  0.00    -0.160 C  
BRANCH  10  11
HETATM   11  C   UNL     1      -9.383  10.452  62.811  1.00  0.00    -0.341 C  
BRANCH  11  12
HETATM   12  C   UNL     1      -9.946  11.760  63.366  1.00  0.00    -0.446 C  
BRANCH  12  13
HETATM   13  C   UNL     1     -11.469  11.800  63.293  1.00  0.00    -0.332 C  
BRANCH  13  14
HETATM   14  C   UNL     1     -11.988  13.094  63.875  1.00  0.00    -0.488 C  
HETATM   15  O   UNL     1     -12.703  13.893  63.285  1.00  0.00    -0.775 OA 
BRANCH  14  16
HETATM   16  O   UNL     1     -11.591  13.214  65.174  1.00  0.00    -0.304 OA 
BRANCH  16  17
HETATM   17  C   UNL     1     -10.887  14.430  65.478  1.00  0.00    -0.331 C  
BRANCH  17  18
HETATM   18  C   UNL     1     -11.650  15.273  66.510  1.00  0.00    -0.015 C  
BRANCH  18  19
HETATM   19  O   UNL     1     -10.836  16.417  66.860  1.00  0.00    -0.249 OA 
BRANCH  19  20
HETATM   20  C   UNL     1     -10.576  17.298  65.857  1.00  0.00    -0.204 C  
HETATM   21  O   UNL     1     -11.223  17.434  64.830  1.00  0.00    -0.895 OA 
BRANCH  20  22
HETATM   22  C   UNL     1      -9.361  18.125  66.198  1.00  0.00    -0.147 C  
BRANCH  22  23
HETATM   23  C   UNL     1      -8.756  17.712  67.534  1.00  0.00    -0.234 C  
BRANCH  23  24
HETATM   24  C   UNL     1      -7.672  16.643  67.381  1.00  0.00    -0.188 C  
BRANCH  24  25
HETATM   25  C   UNL     1      -6.385  17.060  68.090  1.00  0.00    -0.143 C  
BRANCH  25  26
HETATM   26  C   UNL     1      -5.974  16.022  69.130  1.00  0.00    -0.127 C  
BRANCH  26  27
HETATM   27  C   UNL     1      -7.116  15.055  69.432  1.00  0.00    -0.186 C  
BRANCH  27  28
HETATM   28  C   UNL     1      -6.961  13.764  68.632  1.00  0.00    -0.102 C  
BRANCH  28  29
HETATM   29  C   UNL     1      -8.301  13.308  68.060  1.00  0.00    -0.162 C  
BRANCH  29  30
HETATM   30  C   UNL     1      -8.206  11.888  67.509  1.00  0.00    -0.155 C  
BRANCH  30  31
HETATM   31  C   UNL     1      -9.587  11.244  67.403  1.00  0.00    -0.182 C  
BRANCH  31  32
HETATM   32  C   UNL     1      -9.656   9.957  68.222  1.00  0.00    -0.151 C  
BRANCH  32  33
HETATM   33  C   UNL     1      -8.874  10.089  69.528  1.00  0.00    -0.209 C  
HETATM   34  C   UNL     1      -9.288   9.023  70.528  1.00  0.00    -0.262 C  
ENDBRANCH  32  33
ENDBRANCH  31  32
ENDBRANCH  30  31
ENDBRANCH  29  30
ENDBRANCH  28  29
ENDBRANCH  27  28
ENDBRANCH  26  27
ENDBRANCH  25  26
ENDBRANCH  24  25
ENDBRANCH  23  24
ENDBRANCH  22  23
ENDBRANCH  20  22
ENDBRANCH  19  20
ENDBRANCH  18  19
BRANCH  18  35
HETATM   35  C   UNL     1     -11.866  14.451  67.778  1.00  0.00    -0.368 C  
BRANCH  35  36
HETATM   36  O   UNL     1     -12.255  15.288  68.877  1.00  0.00    -0.226 OA 
BRANCH  36  37
HETATM   37  P   UNL     1     -12.313  14.458  70.393  1.00  0.00    -0.358 P  
HETATM   38  O   UNL     1     -10.861  15.101  70.767  1.00  0.00    -0.258 OA 
HETATM   39  O   UNL     1     -13.450  15.381  70.781  1.00  0.00    -0.412 OA 
BRANCH  37  40
HETATM   40  O   UNL     1     -12.370  13.628  71.910  1.00  0.00    -0.130 OA 
BRANCH  40  41
HETATM   41  C   UNL     1     -13.295  12.507  72.015  1.00  0.00    -0.426 C  
BRANCH  41  42
HETATM   42  C   UNL     1     -13.021  11.253  71.143  1.00  0.00    -0.272 C  
HETATM   43  H   UNL     1     -11.548  10.550  70.023  1.00  0.00     0.000 HD 
HETATM   44  O   UNL     1     -11.716  11.318  70.558  1.00  0.00    -0.329 OA 
BRANCH  42  45
HETATM   45  C   UNL     1     -13.182   9.930  71.906  1.00  0.00    -0.458 C  
HETATM   46  O   UNL     1     -13.835   8.945  71.094  1.00  0.00    -0.577 OA 
HETATM   47  H   UNL     1     -13.934   8.127  71.566  1.00  0.00     0.000 HD 
ENDBRANCH  42  45
ENDBRANCH  41  42
ENDBRANCH  40  41
ENDBRANCH  37  40
ENDBRANCH  36  37
ENDBRANCH  35  36
ENDBRANCH  18  35
ENDBRANCH  17  18
ENDBRANCH  16  17
ENDBRANCH  14  16
ENDBRANCH  13  14
ENDBRANCH  12  13
ENDBRANCH  11  12
ENDBRANCH  10  11
ENDBRANCH   9  10
ENDBRANCH   8   9
ENDBRANCH   7   8
ENDBRANCH   6   7
ENDBRANCH   5   6
ENDBRANCH   4   5
ENDBRANCH   3   4
ENDBRANCH   2   3
TORSDOF 36
ENDMDL
MODEL       52
REMARK 921   NORMALIZED FREE ENERGY PREDICTED BY IDOCK:   -2.88 KCAL/MOL
REMARK 922        TOTAL FREE ENERGY PREDICTED BY IDOCK:  -14.42 KCAL/MOL
REMARK 923 INTER-LIGAND FREE ENERGY PREDICTED BY IDOCK:   -9.49 KCAL/MOL
REMARK 924 INTRA-LIGAND FREE ENERGY PREDICTED BY IDOCK:   -4.93 KCAL/MOL
REMARK 927      BINDING AFFINITY PREDICTED BY RF-SCORE:    0.00 PKD
ROOT
HETATM    1  C   UNL     1     -11.789  12.349  67.965  1.00  0.00    -0.376 C  
HETATM    2  C   UNL     1     -11.780  13.722  67.314  1.00  0.00    -0.416 C  
ENDROOT
BRANCH   2   3
HETATM    3  C   UNL     1     -10.418  14.399  67.464  1.00  0.00    -0.252 C  
BRANCH   3   4
HETATM    4  C   UNL     1     -10.463  15.519  68.503  1.00  0.00    -0.238 C  
BRANCH   4   5
HETATM    5  C   UNL     1     -11.870  15.674  69.078  1.00  0.00    -0.379 C  
BRANCH   5   6
HETATM    6  C   UNL     1     -11.884  15.435  70.587  1.00  0.00    -0.388 C  
BRANCH   6   7
HETATM    7  C   UNL     1     -13.267  15.717  71.173  1.00  0.00    -0.487 C  
BRANCH   7   8
HETATM    8  C   UNL     1     -13.504  14.904  72.443  1.00  0.00    -0.528 C  
BRANCH   8   9
HETATM    9  C   UNL     1     -14.003  13.499  72.116  1.00  0.00    -0.575 C  
BRANCH   9  10
HETATM   10  C   UNL     1     -12.872  12.480  72.245  1.00  0.00    -0.065 C  
BRANCH  10  11
HETATM   11  C   UNL     1     -13.048  11.309  71.281  1.00  0.00    -0.317 C  
BRANCH  11  12
HETATM   12  C   UNL     1     -12.235  10.105  71.757  1.00  0.00    -0.338 C  
BRANCH  12  13
HETATM   13  C   UNL     1     -11.578   9.367  70.596  1.00  0.00    -0.330 C  
BRANCH  13  14
HETATM   14  C   UNL     1     -11.772   7.876  70.745  1.00  0.00    -0.218 C  
HETATM   15  O   UNL     1     -12.761   7.341  71.229  1.00  0.00    -0.362 OA 
BRANCH  14  16
HETATM   16  O   UNL     1     -10.710   7.211  70.207  1.00  0.00    -0.225 OA 
BRANCH  16  17
HETATM   17  C   UNL     1     -11.060   6.105  69.359  1.00  0.00    -0.409 C  
BRANCH  17  18
HETATM   18  C   UNL     1      -9.886   5.700  68.456  1.00  0.00    -0.143 C  
BRANCH  18  19
HETATM   19  O   UNL     1     -10.406   4.933  67.344  1.00  0.00    -0.151 OA 
BRANCH  19  20
HETATM   20  C   UNL     1      -9.697   4.999  66.186  1.00  0.00    -0.183 C  
HETATM   21  O   UNL     1      -9.635   4.132  65.327  1.00  0.00    -0.162 OA 
BRANCH  20  22
HETATM   22  C   UNL     1      -8.994   6.330  66.085  1.00  0.00    -0.164 C  
BRANCH  22  23
HETATM   23  C   UNL     1      -7.504   6.160  65.813  1.00  0.00    -0.082 C  
BRANCH  23  24
HETATM   24  C   UNL     1      -6.669   7.306  66.391  1.00  0.00    -0.060 C  
BRANCH  24  25
HETATM   25  C   UNL     1      -6.339   8.341  65.317  1.00  0.00    -0.048 C  
BRANCH  25  26
HETATM   26  C   UNL     1      -6.694   7.819  63.928  1.00  0.00    -0.061 C  
BRANCH  26  27
HETATM   27  C   UNL     1      -7.830   8.625  63.305  1.00  0.00    -0.151 C  
BRANCH  27  28
HETATM   28  C   UNL     1      -7.978   9.979  63.995  1.00  0.00    -0.151 C  
BRANCH  28  29
HETATM   29  C   UNL     1      -9.440  10.267  64.331  1.00  0.00    -0.360 C  
BRANCH  29  30
HETATM   30  C   UNL     1      -9.806   9.710  65.703  1.00  0.00    -0.369 C  
BRANCH  30  31
HETATM   31  C   UNL     1      -9.016  10.406  66.810  1.00  0.00    -0.153 C  
BRANCH  31  32
HETATM   32  C   UNL     1      -9.183   9.679  68.143  1.00  0.00    -0.130 C  
BRANCH  32  33
HETATM   33  C   UNL     1      -8.429  10.394  69.262  1.00  0.00    -0.162 C  
HETATM   34  C   UNL     1      -7.352  11.308  68.703  1.00  0.00    -0.109 C  
ENDBRANCH  32  33
ENDBRANCH  31  32
ENDBRANCH  30  31
ENDBRANCH  29  30
ENDBRANCH  28  29
ENDBRANCH  27  28
ENDBRANCH  26  27
ENDBRANCH  25  26
ENDBRANCH  24  25
ENDBRANCH  23  24
ENDBRANCH  22  23
ENDBRANCH  20  22
ENDBRANCH  19  20
ENDBRANCH  18  19
BRANCH  18  35
HETATM   35  C   UNL     1      -8.931   4.799  69.236  1.00  0.00    -0.095 C  
BRANCH  35  36
HETATM   36  O   UNL     1      -9.620   3.665  69.781  1.00  0.00    -0.186 OA 
BRANCH  36  37
HETATM   37  P   UNL     1      -8.816   2.953  71.137  1.00  0.00    -0.101 P  
HETATM   38  O   UNL     1      -7.781   4.214  71.148  1.00  0.00    -0.063 OA 
HETATM   39  O   UNL     1     -10.062   3.244  71.947  1.00  0.00    -0.160 OA 
BRANCH  37  40
HETATM   40  O   UNL     1      -8.010   2.241  72.493  1.00  0.00    -0.052 OA 
BRANCH  40  41
HETATM   41  C   UNL     1      -8.125   2.935  73.769  1.00  0.00    -0.072 C  
BRANCH  41  42
HETATM   42  C   UNL     1      -6.822   3.460  74.431  1.00  0.00    -0.045 C  
HETATM   43  H   UNL     1      -4.871   3.273  74.158  1.00  0.00     0.000 HD 
HETATM   44  O   UNL     1      -5.668   2.952  73.752  1.00  0.00     0.000 OA 
BRANCH  42  45
HETATM   45  C   UNL     1      -6.748   4.992  74.504  1.00  0.00    -0.072 C  
HETATM   46  O   UNL     1      -7.860   5.592  73.828  1.00  0.00    -0.104 OA 
HETATM   47  H   UNL     1      -7.814   6.540  73.873  1.00  0.00     0.000 HD 
ENDBRANCH  42  45
ENDBRANCH  41  42
ENDBRANCH  40  41
ENDBRANCH  37  40
ENDBRANCH  36  37
ENDBRANCH  35  36
ENDBRANCH  18  35
ENDBRANCH  17  18
ENDBRANCH  16  17
ENDBRANCH  14  16
ENDBRANCH  13  14
ENDBRANCH  12  13
ENDBRANCH  11  12
ENDBRANCH  10  11
ENDBRANCH   9  10
ENDBRANCH   8   9
ENDBRANCH   7   8
ENDBRANCH   6   7
ENDBRANCH   5   6
ENDBRANCH   4   5
ENDBRANCH   3   4
ENDBRANCH   2   3
TORSDOF 36
ENDMDL
MODEL       53
REMARK 921   NORMALIZED FREE ENERGY PREDICTED BY IDOCK:   -2.87 KCAL/MOL
REMARK 922        TOTAL FREE ENERGY PREDICTED BY IDOCK:  -14.39 KCAL/MOL
REMARK 923 INTER-LIGAND FREE ENERGY PREDICTED BY IDOCK:   -9.30 KCAL/MOL
REMARK 924 INTRA-LIGAND FREE ENERGY PREDICTED BY IDOCK:   -5.09 KCAL/MOL
REMARK 927      BINDING AFFINITY PREDICTED BY RF-SCORE:    0.00 PKD
ROOT
HETATM    1  C   UNL     1      -6.647  16.802  69.269  1.00  0.00    -0.223 C  
HETATM    2  C   UNL     1      -7.607  15.639  69.457  1.00  0.00    -0.187 C  
ENDROOT
BRANCH   2   3
HETATM    3  C   UNL     1      -6.890  14.298  69.310  1.00  0.00    -0.124 C  
BRANCH   3   4
HETATM    4  C   UNL     1      -6.439  14.061  67.869  1.00  0.00    -0.170 C  
BRANCH   4   5
HETATM    5  C   UNL     1      -6.888  12.687  67.374  1.00  0.00    -0.141 C  
BRANCH   5   6
HETATM    6  C   UNL     1      -6.560  11.595  68.392  1.00  0.00    -0.061 C  
BRANCH   6   7
HETATM    7  C   UNL     1      -7.775  10.706  68.652  1.00  0.00    -0.110 C  
BRANCH   7   8
HETATM    8  C   UNL     1      -7.957   9.681  67.536  1.00  0.00    -0.106 C  
BRANCH   8   9
HETATM    9  C   UNL     1      -7.558   8.282  67.998  1.00  0.00    -0.102 C  
BRANCH   9  10
HETATM   10  C   UNL     1      -7.109   7.429  66.812  1.00  0.00    -0.079 C  
BRANCH  10  11
HETATM   11  C   UNL     1      -8.244   7.193  65.818  1.00  0.00    -0.132 C  
BRANCH  11  12
HETATM   12  C   UNL     1      -8.627   5.714  65.793  1.00  0.00    -0.148 C  
BRANCH  12  13
HETATM   13  C   UNL     1      -9.902   5.442  66.583  1.00  0.00    -0.193 C  
BRANCH  13  14
HETATM   14  C   UNL     1      -9.576   4.748  67.885  1.00  0.00    -0.154 C  
HETATM   15  O   UNL     1      -9.176   3.596  67.986  1.00  0.00    -0.140 OA 
BRANCH  14  16
HETATM   16  O   UNL     1      -9.737   5.612  68.927  1.00  0.00    -0.124 OA 
BRANCH  16  17
HETATM   17  C   UNL     1     -11.096   6.014  69.171  1.00  0.00    -0.335 C  
BRANCH  17  18
HETATM   18  C   UNL     1     -11.204   6.885  70.430  1.00  0.00    -0.312 C  
BRANCH  18  19
HETATM   19  O   UNL     1      -9.921   7.511  70.665  1.00  0.00    -0.184 OA 
BRANCH  19  20
HETATM   20  C   UNL     1      -9.939   8.853  70.885  1.00  0.00    -0.242 C  
HETATM   21  O   UNL     1      -9.186   9.474  71.621  1.00  0.00    -0.147 OA 
BRANCH  20  22
HETATM   22  C   UNL     1     -11.027   9.497  70.062  1.00  0.00    -0.284 C  
BRANCH  22  23
HETATM   23  C   UNL     1     -11.625  10.707  70.769  1.00  0.00    -0.388 C  
BRANCH  23  24
HETATM   24  C   UNL     1     -11.891  11.872  69.813  1.00  0.00    -0.411 C  
BRANCH  24  25
HETATM   25  C   UNL     1     -11.716  11.440  68.358  1.00  0.00    -0.373 C  
BRANCH  25  26
HETATM   26  C   UNL     1     -10.827  12.421  67.601  1.00  0.00    -0.258 C  
BRANCH  26  27
HETATM   27  C   UNL     1     -11.117  12.392  66.103  1.00  0.00    -0.340 C  
BRANCH  27  28
HETATM   28  C   UNL     1     -10.669  13.690  65.436  1.00  0.00    -0.311 C  
BRANCH  28  29
HETATM   29  C   UNL     1     -10.290  14.740  66.478  1.00  0.00    -0.287 C  
BRANCH  29  30
HETATM   30  C   UNL     1      -9.074  15.544  66.026  1.00  0.00    -0.316 C  
BRANCH  30  31
HETATM   31  C   UNL     1      -9.203  17.012  66.428  1.00  0.00    -0.298 C  
BRANCH  31  32
HETATM   32  C   UNL     1     -10.429  17.232  67.312  1.00  0.00    -0.319 C  
BRANCH  32  33
HETATM   33  C   UNL     1     -10.692  18.720  67.532  1.00  0.00    -0.474 C  
HETATM   34  C   UNL     1      -9.882  19.256  68.701  1.00  0.00    -0.500 C  
ENDBRANCH  32  33
ENDBRANCH  31  32
ENDBRANCH  30  31
ENDBRANCH  29  30
ENDBRANCH  28  29
ENDBRANCH  27  28
ENDBRANCH  26  27
ENDBRANCH  25  26
ENDBRANCH  24  25
ENDBRANCH  23  24
ENDBRANCH  22  23
ENDBRANCH  20  22
ENDBRANCH  19  20
ENDBRANCH  18  19
BRANCH  18  35
HETATM   35  C   UNL     1     -11.518   6.001  71.635  1.00  0.00    -0.230 C  
BRANCH  35  36
HETATM   36  O   UNL     1     -10.691   6.344  72.756  1.00  0.00    -0.218 OA 
BRANCH  36  37
HETATM   37  P   UNL     1      -9.793   5.007  73.387  1.00  0.00    -0.158 P  
HETATM   38  O   UNL     1     -11.085   4.605  74.296  1.00  0.00    -0.287 OA 
HETATM   39  O   UNL     1      -9.866   4.390  72.005  1.00  0.00    -0.161 OA 
BRANCH  37  40
HETATM   40  O   UNL     1      -8.894   3.670  74.018  1.00  0.00    -0.088 OA 
BRANCH  40  41
HETATM   41  C   UNL     1      -7.534   3.940  74.466  1.00  0.00    -0.073 C  
BRANCH  41  42
HETATM   42  C   UNL     1      -6.413   4.000  73.393  1.00  0.00    -0.041 C  
HETATM   43  H   UNL     1      -6.031   3.170  71.637  1.00  0.00     0.000 HD 
HETATM   44  O   UNL     1      -6.717   3.134  72.294  1.00  0.00    -0.015 OA 
BRANCH  42  45
HETATM   45  C   UNL     1      -6.139   5.419  72.874  1.00  0.00    -0.035 C  
HETATM   46  O   UNL     1      -5.137   6.070  73.666  1.00  0.00    -0.023 OA 
HETATM   47  H   UNL     1      -4.968   6.948  73.345  1.00  0.00     0.000 HD 
ENDBRANCH  42  45
ENDBRANCH  41  42
ENDBRANCH  40  41
ENDBRANCH  37  40
ENDBRANCH  36  37
ENDBRANCH  35  36
ENDBRANCH  18  35
ENDBRANCH  17  18
ENDBRANCH  16  17
ENDBRANCH  14  16
ENDBRANCH  13  14
ENDBRANCH  12  13
ENDBRANCH  11  12
ENDBRANCH  10  11
ENDBRANCH   9  10
ENDBRANCH   8   9
ENDBRANCH   7   8
ENDBRANCH   6   7
ENDBRANCH   5   6
ENDBRANCH   4   5
ENDBRANCH   3   4
ENDBRANCH   2   3
TORSDOF 36
ENDMDL
MODEL       54
REMARK 921   NORMALIZED FREE ENERGY PREDICTED BY IDOCK:   -2.87 KCAL/MOL
REMARK 922        TOTAL FREE ENERGY PREDICTED BY IDOCK:  -14.37 KCAL/MOL
REMARK 923 INTER-LIGAND FREE ENERGY PREDICTED BY IDOCK:  -10.07 KCAL/MOL
REMARK 924 INTRA-LIGAND FREE ENERGY PREDICTED BY IDOCK:   -4.30 KCAL/MOL
REMARK 927      BINDING AFFINITY PREDICTED BY RF-SCORE:    0.00 PKD
ROOT
HETATM    1  C   UNL     1      -7.460   3.972  64.831  1.00  0.00    -0.076 C  
HETATM    2  C   UNL     1      -8.701   4.202  65.678  1.00  0.00    -0.119 C  
ENDROOT
BRANCH   2   3
HETATM    3  C   UNL     1      -8.501   3.697  67.105  1.00  0.00    -0.103 C  
BRANCH   3   4
HETATM    4  C   UNL     1      -9.388   4.453  68.094  1.00  0.00    -0.195 C  
BRANCH   4   5
HETATM    5  C   UNL     1      -9.518   3.685  69.409  1.00  0.00    -0.249 C  
BRANCH   5   6
HETATM    6  C   UNL     1      -9.713   4.634  70.590  1.00  0.00    -0.277 C  
BRANCH   6   7
HETATM    7  C   UNL     1      -9.437   3.924  71.915  1.00  0.00    -0.204 C  
BRANCH   7   8
HETATM    8  C   UNL     1      -8.208   4.506  72.607  1.00  0.00    -0.106 C  
BRANCH   8   9
HETATM    9  C   UNL     1      -8.480   4.778  74.084  1.00  0.00    -0.102 C  
BRANCH   9  10
HETATM   10  C   UNL     1      -9.922   5.241  74.291  1.00  0.00    -0.234 C  
BRANCH  10  11
HETATM   11  C   UNL     1     -10.019   6.759  74.426  1.00  0.00    -0.310 C  
BRANCH  11  12
HETATM   12  C   UNL     1     -10.882   7.336  73.304  1.00  0.00    -0.404 C  
BRANCH  12  13
HETATM   13  C   UNL     1     -10.091   8.284  72.409  1.00  0.00    -0.383 C  
BRANCH  13  14
HETATM   14  C   UNL     1     -11.012   8.963  71.421  1.00  0.00    -0.310 C  
HETATM   15  O   UNL     1     -11.532  10.058  71.584  1.00  0.00    -0.282 OA 
BRANCH  14  16
HETATM   16  O   UNL     1     -11.131   8.201  70.297  1.00  0.00    -0.256 OA 
BRANCH  16  17
HETATM   17  C   UNL     1      -9.891   7.920  69.626  1.00  0.00    -0.179 C  
BRANCH  17  18
HETATM   18  C   UNL     1      -9.707   8.816  68.393  1.00  0.00    -0.162 C  
BRANCH  18  19
HETATM   19  O   UNL     1      -9.325   7.983  67.273  1.00  0.00    -0.137 OA 
BRANCH  19  20
HETATM   20  C   UNL     1      -7.990   7.858  67.046  1.00  0.00    -0.112 C  
HETATM   21  O   UNL     1      -7.208   7.179  67.695  1.00  0.00    -0.085 OA 
BRANCH  20  22
HETATM   22  C   UNL     1      -7.593   8.671  65.840  1.00  0.00    -0.089 C  
BRANCH  22  23
HETATM   23  C   UNL     1      -8.650   8.607  64.745  1.00  0.00    -0.139 C  
BRANCH  23  24
HETATM   24  C   UNL     1      -9.403   9.930  64.580  1.00  0.00    -0.338 C  
BRANCH  24  25
HETATM   25  C   UNL     1      -9.357  10.412  63.131  1.00  0.00    -0.340 C  
BRANCH  25  26
HETATM   26  C   UNL     1     -10.159  11.698  62.959  1.00  0.00    -0.311 C  
BRANCH  26  27
HETATM   27  C   UNL     1     -11.508  11.612  63.666  1.00  0.00    -0.458 C  
BRANCH  27  28
HETATM   28  C   UNL     1     -12.146  12.993  63.792  1.00  0.00    -0.574 C  
BRANCH  28  29
HETATM   29  C   UNL     1     -12.761  13.190  65.176  1.00  0.00    -0.468 C  
BRANCH  29  30
HETATM   30  C   UNL     1     -11.978  12.421  66.237  1.00  0.00    -0.369 C  
BRANCH  30  31
HETATM   31  C   UNL     1     -11.701  13.296  67.459  1.00  0.00    -0.410 C  
BRANCH  31  32
HETATM   32  C   UNL     1     -10.233  13.714  67.512  1.00  0.00    -0.241 C  
BRANCH  32  33
HETATM   33  C   UNL     1     -10.068  15.067  68.201  1.00  0.00    -0.220 C  
HETATM   34  C   UNL     1     -11.415  15.669  68.563  1.00  0.00    -0.380 C  
ENDBRANCH  32  33
ENDBRANCH  31  32
ENDBRANCH  30  31
ENDBRANCH  29  30
ENDBRANCH  28  29
ENDBRANCH  27  28
ENDBRANCH  26  27
ENDBRANCH  25  26
ENDBRANCH  24  25
ENDBRANCH  23  24
ENDBRANCH  22  23
ENDBRANCH  20  22
ENDBRANCH  19  20
ENDBRANCH  18  19
BRANCH  18  35
HETATM   35  C   UNL     1      -8.571   9.804  68.647  1.00  0.00    -0.121 C  
BRANCH  35  36
HETATM   36  O   UNL     1      -7.930   9.543  69.904  1.00  0.00    -0.112 OA 
BRANCH  36  37
HETATM   37  P   UNL     1      -6.576  10.572  70.217  1.00  0.00    -0.006 P  
HETATM   38  O   UNL     1      -6.240   9.679  71.540  1.00  0.00    -0.245 OA 
HETATM   39  O   UNL     1      -5.932   9.994  68.973  1.00  0.00    -0.038 OA 
BRANCH  37  40
HETATM   40  O   UNL     1      -5.220  11.601  70.531  1.00  0.00    -0.092 OA 
BRANCH  40  41
HETATM   41  C   UNL     1      -5.236  12.921  69.914  1.00  0.00    -0.086 C  
BRANCH  41  42
HETATM   42  C   UNL     1      -6.570  13.419  69.296  1.00  0.00    -0.097 C  
HETATM   43  H   UNL     1      -7.834  14.917  69.571  1.00  0.00     0.000 HD 
HETATM   44  O   UNL     1      -7.018  14.612  69.950  1.00  0.00    -0.162 OA 
BRANCH  42  45
HETATM   45  C   UNL     1      -6.489  13.659  67.781  1.00  0.00    -0.171 C  
HETATM   46  O   UNL     1      -6.761  12.452  67.056  1.00  0.00    -0.315 OA 
HETATM   47  H   UNL     1      -6.711  12.601  66.119  1.00  0.00     0.000 HD 
ENDBRANCH  42  45
ENDBRANCH  41  42
ENDBRANCH  40  41
ENDBRANCH  37  40
ENDBRANCH  36  37
ENDBRANCH  35  36
ENDBRANCH  18  35
ENDBRANCH  17  18
ENDBRANCH  16  17
ENDBRANCH  14  16
ENDBRANCH  13  14
ENDBRANCH  12  13
ENDBRANCH  11  12
ENDBRANCH  10  11
ENDBRANCH   9  10
ENDBRANCH   8   9
ENDBRANCH   7   8
ENDBRANCH   6   7
ENDBRANCH   5   6
ENDBRANCH   4   5
ENDBRANCH   3   4
ENDBRANCH   2   3
TORSDOF 36
ENDMDL
MODEL       55
REMARK 921   NORMALIZED FREE ENERGY PREDICTED BY IDOCK:   -2.86 KCAL/MOL
REMARK 922        TOTAL FREE ENERGY PREDICTED BY IDOCK:  -14.36 KCAL/MOL
REMARK 923 INTER-LIGAND FREE ENERGY PREDICTED BY IDOCK:   -9.55 KCAL/MOL
REMARK 924 INTRA-LIGAND FREE ENERGY PREDICTED BY IDOCK:   -4.81 KCAL/MOL
REMARK 927      BINDING AFFINITY PREDICTED BY RF-SCORE:    0.00 PKD
ROOT
HETATM    1  C   UNL     1      -8.822  12.202  68.366  1.00  0.00    -0.143 C  
HETATM    2  C   UNL     1     -10.229  12.769  68.461  1.00  0.00    -0.206 C  
ENDROOT
BRANCH   2   3
HETATM    3  C   UNL     1     -11.272  11.656  68.546  1.00  0.00    -0.312 C  
BRANCH   3   4
HETATM    4  C   UNL     1     -11.581  11.290  69.997  1.00  0.00    -0.404 C  
BRANCH   4   5
HETATM    5  C   UNL     1     -11.500   9.779  70.208  1.00  0.00    -0.317 C  
BRANCH   5   6
HETATM    6  C   UNL     1     -10.129   9.365  70.742  1.00  0.00    -0.366 C  
BRANCH   6   7
HETATM    7  C   UNL     1     -10.093   7.870  71.059  1.00  0.00    -0.212 C  
BRANCH   7   8
HETATM    8  C   UNL     1     -11.420   7.201  70.712  1.00  0.00    -0.342 C  
BRANCH   8   9
HETATM    9  C   UNL     1     -11.228   6.097  69.676  1.00  0.00    -0.488 C  
BRANCH   9  10
HETATM   10  C   UNL     1      -9.762   5.672  69.605  1.00  0.00    -0.222 C  
BRANCH  10  11
HETATM   11  C   UNL     1      -9.207   5.772  68.186  1.00  0.00    -0.110 C  
BRANCH  11  12
HETATM   12  C   UNL     1      -7.720   6.123  68.223  1.00  0.00    -0.103 C  
BRANCH  12  13
HETATM   13  C   UNL     1      -7.489   7.592  68.557  1.00  0.00    -0.104 C  
BRANCH  13  14
HETATM   14  C   UNL     1      -8.109   8.475  67.499  1.00  0.00    -0.107 C  
HETATM   15  O   UNL     1      -9.291   8.787  67.448  1.00  0.00    -0.134 OA 
BRANCH  14  16
HETATM   16  O   UNL     1      -7.147   8.920  66.642  1.00  0.00    -0.082 OA 
BRANCH  16  17
HETATM   17  C   UNL     1      -6.927   8.080  65.496  1.00  0.00    -0.059 C  
BRANCH  17  18
HETATM   18  C   UNL     1      -8.150   8.069  64.568  1.00  0.00    -0.132 C  
BRANCH  18  19
HETATM   19  O   UNL     1      -8.165   6.815  63.845  1.00  0.00    -0.051 OA 
BRANCH  19  20
HETATM   20  C   UNL     1      -6.993   6.126  63.813  1.00  0.00    -0.046 C  
HETATM   21  O   UNL     1      -5.967   6.473  63.248  1.00  0.00    -0.029 OA 
BRANCH  20  22
HETATM   22  C   UNL     1      -7.122   4.850  64.607  1.00  0.00    -0.054 C  
BRANCH  22  23
HETATM   23  C   UNL     1      -8.578   4.426  64.757  1.00  0.00    -0.132 C  
BRANCH  23  24
HETATM   24  C   UNL     1      -8.754   3.279  65.755  1.00  0.00    -0.125 C  
BRANCH  24  25
HETATM   25  C   UNL     1      -7.429   2.562  66.007  1.00  0.00    -0.068 C  
BRANCH  25  26
HETATM   26  C   UNL     1      -7.102   2.526  67.497  1.00  0.00    -0.049 C  
BRANCH  26  27
HETATM   27  C   UNL     1      -8.313   2.099  68.322  1.00  0.00    -0.078 C  
BRANCH  27  28
HETATM   28  C   UNL     1      -8.133   2.478  69.789  1.00  0.00    -0.057 C  
BRANCH  28  29
HETATM   29  C   UNL     1      -9.450   2.364  70.552  1.00  0.00    -0.185 C  
BRANCH  29  30
HETATM   30  C   UNL     1      -9.219   2.453  72.058  1.00  0.00    -0.150 C  
BRANCH  30  31
HETATM   31  C   UNL     1      -8.394   3.688  72.418  1.00  0.00    -0.085 C  
BRANCH  31  32
HETATM   32  C   UNL     1      -9.281   4.788  72.999  1.00  0.00    -0.130 C  
BRANCH  32  33
HETATM   33  C   UNL     1     -10.412   4.201  73.840  1.00  0.00    -0.274 C  
HETATM   34  C   UNL     1     -11.763   4.431  73.184  1.00  0.00    -0.101 C  
ENDBRANCH  32  33
ENDBRANCH  31  32
ENDBRANCH  30  31
ENDBRANCH  29  30
ENDBRANCH  28  29
ENDBRANCH  27  28
ENDBRANCH  26  27
ENDBRANCH  25  26
ENDBRANCH  24  25
ENDBRANCH  23  24
ENDBRANCH  22  23
ENDBRANCH  20  22
ENDBRANCH  19  20
ENDBRANCH  18  19
BRANCH  18  35
HETATM   35  C   UNL     1      -8.023   9.195  63.545  1.00  0.00    -0.145 C  
BRANCH  35  36
HETATM   36  O   UNL     1      -9.284   9.468  62.918  1.00  0.00    -0.237 OA 
BRANCH  36  37
HETATM   37  P   UNL     1      -9.877  11.064  63.224  1.00  0.00    -0.356 P  
HETATM   38  O   UNL     1     -10.050  10.667  64.796  1.00  0.00    -0.304 OA 
HETATM   39  O   UNL     1      -8.480  11.570  62.925  1.00  0.00     0.044 OA 
BRANCH  37  40
HETATM   40  O   UNL     1     -10.470  12.660  63.530  1.00  0.00    -0.390 OA 
BRANCH  40  41
HETATM   41  C   UNL     1     -10.461  13.114  64.915  1.00  0.00    -0.351 C  
BRANCH  41  42
HETATM   42  C   UNL     1     -10.895  14.577  65.204  1.00  0.00    -0.395 C  
HETATM   43  H   UNL     1     -10.052  16.367  65.241  1.00  0.00     0.000 HD 
HETATM   44  O   UNL     1      -9.786  15.472  65.064  1.00  0.00    -0.246 OA 
BRANCH  42  45
HETATM   45  C   UNL     1     -12.060  15.053  64.325  1.00  0.00    -0.306 C  
HETATM   46  O   UNL     1     -11.866  16.411  63.908  1.00  0.00    -1.404 OA 
HETATM   47  H   UNL     1     -12.587  16.706  63.364  1.00  0.00     0.000 HD 
ENDBRANCH  42  45
ENDBRANCH  41  42
ENDBRANCH  40  41
ENDBRANCH  37  40
ENDBRANCH  36  37
ENDBRANCH  35  36
ENDBRANCH  18  35
ENDBRANCH  17  18
ENDBRANCH  16  17
ENDBRANCH  14  16
ENDBRANCH  13  14
ENDBRANCH  12  13
ENDBRANCH  11  12
ENDBRANCH  10  11
ENDBRANCH   9  10
ENDBRANCH   8   9
ENDBRANCH   7   8
ENDBRANCH   6   7
ENDBRANCH   5   6
ENDBRANCH   4   5
ENDBRANCH   3   4
ENDBRANCH   2   3
TORSDOF 36
ENDMDL
MODEL       56
REMARK 921   NORMALIZED FREE ENERGY PREDICTED BY IDOCK:   -2.85 KCAL/MOL
REMARK 922        TOTAL FREE ENERGY PREDICTED BY IDOCK:  -14.30 KCAL/MOL
REMARK 923 INTER-LIGAND FREE ENERGY PREDICTED BY IDOCK:  -10.95 KCAL/MOL
REMARK 924 INTRA-LIGAND FREE ENERGY PREDICTED BY IDOCK:   -3.36 KCAL/MOL
REMARK 927      BINDING AFFINITY PREDICTED BY RF-SCORE:    0.00 PKD
ROOT
HETATM    1  C   UNL     1     -10.513  20.015  66.503  1.00  0.00    -0.525 C  
HETATM    2  C   UNL     1      -9.987  18.763  67.188  1.00  0.00    -0.376 C  
ENDROOT
BRANCH   2   3
HETATM    3  C   UNL     1     -10.800  17.532  66.791  1.00  0.00     0.009 C  
BRANCH   3   4
HETATM    4  C   UNL     1     -10.498  17.102  65.356  1.00  0.00    -0.096 C  
BRANCH   4   5
HETATM    5  C   UNL     1     -10.382  15.582  65.254  1.00  0.00    -0.416 C  
BRANCH   5   6
HETATM    6  C   UNL     1     -11.408  14.885  66.147  1.00  0.00    -0.307 C  
BRANCH   6   7
HETATM    7  C   UNL     1     -11.426  13.379  65.887  1.00  0.00    -0.344 C  
BRANCH   7   8
HETATM    8  C   UNL     1     -10.694  13.034  64.593  1.00  0.00    -0.386 C  
BRANCH   8   9
HETATM    9  C   UNL     1     -10.996  11.605  64.150  1.00  0.00    -0.442 C  
BRANCH   9  10
HETATM   10  C   UNL     1      -9.892  10.653  64.610  1.00  0.00    -0.382 C  
BRANCH  10  11
HETATM   11  C   UNL     1     -10.198  10.044  65.977  1.00  0.00    -0.277 C  
BRANCH  11  12
HETATM   12  C   UNL     1      -9.867   8.552  65.977  1.00  0.00    -0.135 C  
BRANCH  12  13
HETATM   13  C   UNL     1      -8.567   8.257  65.237  1.00  0.00    -0.159 C  
BRANCH  13  14
HETATM   14  C   UNL     1      -7.510   7.776  66.203  1.00  0.00    -0.079 C  
HETATM   15  O   UNL     1      -7.169   6.610  66.349  1.00  0.00    -0.069 OA 
BRANCH  14  16
HETATM   16  O   UNL     1      -6.949   8.839  66.847  1.00  0.00    -0.072 OA 
BRANCH  16  17
HETATM   17  C   UNL     1      -7.038   8.787  68.282  1.00  0.00    -0.078 C  
BRANCH  17  18
HETATM   18  C   UNL     1      -8.010   9.846  68.819  1.00  0.00    -0.093 C  
BRANCH  18  19
HETATM   19  O   UNL     1      -7.263  10.786  69.628  1.00  0.00    -0.141 OA 
BRANCH  19  20
HETATM   20  C   UNL     1      -6.332  11.532  68.975  1.00  0.00    -0.069 C  
HETATM   21  O   UNL     1      -5.126  11.334  68.967  1.00  0.00    -0.042 OA 
BRANCH  20  22
HETATM   22  C   UNL     1      -7.003  12.654  68.223  1.00  0.00    -0.095 C  
BRANCH  22  23
HETATM   23  C   UNL     1      -7.494  13.747  69.164  1.00  0.00     0.062 C  
BRANCH  23  24
HETATM   24  C   UNL     1      -8.602  14.601  68.542  1.00  0.00    -0.170 C  
BRANCH  24  25
HETATM   25  C   UNL     1      -8.964  15.777  69.448  1.00  0.00    -0.247 C  
BRANCH  25  26
HETATM   26  C   UNL     1     -10.475  15.978  69.503  1.00  0.00    -0.286 C  
BRANCH  26  27
HETATM   27  C   UNL     1     -11.076  15.328  70.746  1.00  0.00    -0.340 C  
BRANCH  27  28
HETATM   28  C   UNL     1     -12.597  15.469  70.752  1.00  0.00    -0.505 C  
BRANCH  28  29
HETATM   29  C   UNL     1     -13.150  15.397  72.173  1.00  0.00    -0.496 C  
BRANCH  29  30
HETATM   30  C   UNL     1     -13.829  14.054  72.428  1.00  0.00    -0.653 C  
BRANCH  30  31
HETATM   31  C   UNL     1     -13.142  12.932  71.649  1.00  0.00    -0.430 C  
BRANCH  31  32
HETATM   32  C   UNL     1     -13.627  11.562  72.120  1.00  0.00    -0.105 C  
BRANCH  32  33
HETATM   33  C   UNL     1     -12.910  10.437  71.377  1.00  0.00    -0.556 C  
HETATM   34  C   UNL     1     -13.149   9.095  72.049  1.00  0.00    -0.497 C  
ENDBRANCH  32  33
ENDBRANCH  31  32
ENDBRANCH  30  31
ENDBRANCH  29  30
ENDBRANCH  28  29
ENDBRANCH  27  28
ENDBRANCH  26  27
ENDBRANCH  25  26
ENDBRANCH  24  25
ENDBRANCH  23  24
ENDBRANCH  22  23
ENDBRANCH  20  22
ENDBRANCH  19  20
ENDBRANCH  18  19
BRANCH  18  35
HETATM   35  C   UNL     1      -9.044   9.176  69.721  1.00  0.00    -0.167 C  
BRANCH  35  36
HETATM   36  O   UNL     1      -9.545   7.970  69.127  1.00  0.00    -0.155 OA 
BRANCH  36  37
HETATM   37  P   UNL     1     -10.124   6.819  70.280  1.00  0.00    -0.182 P  
HETATM   38  O   UNL     1     -11.100   6.200  69.129  1.00  0.00    -0.350 OA 
HETATM   39  O   UNL     1      -8.747   6.188  70.245  1.00  0.00    -0.140 OA 
BRANCH  37  40
HETATM   40  O   UNL     1     -10.704   5.667  71.434  1.00  0.00    -0.247 OA 
BRANCH  40  41
HETATM   41  C   UNL     1      -9.734   4.717  71.964  1.00  0.00    -0.162 C  
BRANCH  41  42
HETATM   42  C   UNL     1     -10.116   3.926  73.244  1.00  0.00    -0.141 C  
HETATM   43  H   UNL     1     -11.449   4.067  74.701  1.00  0.00     0.000 HD 
HETATM   44  O   UNL     1     -11.215   4.551  73.918  1.00  0.00    -0.247 OA 
BRANCH  42  45
HETATM   45  C   UNL     1     -10.446   2.451  72.975  1.00  0.00    -0.153 C  
HETATM   46  O   UNL     1     -11.556   2.019  73.772  1.00  0.00    -0.206 OA 
HETATM   47  H   UNL     1     -11.760   1.106  73.605  1.00  0.00     0.000 HD 
ENDBRANCH  42  45
ENDBRANCH  41  42
ENDBRANCH  40  41
ENDBRANCH  37  40
ENDBRANCH  36  37
ENDBRANCH  35  36
ENDBRANCH  18  35
ENDBRANCH  17  18
ENDBRANCH  16  17
ENDBRANCH  14  16
ENDBRANCH  13  14
ENDBRANCH  12  13
ENDBRANCH  11  12
ENDBRANCH  10  11
ENDBRANCH   9  10
ENDBRANCH   8   9
ENDBRANCH   7   8
ENDBRANCH   6   7
ENDBRANCH   5   6
ENDBRANCH   4   5
ENDBRANCH   3   4
ENDBRANCH   2   3
TORSDOF 36
ENDMDL
MODEL       57
REMARK 921   NORMALIZED FREE ENERGY PREDICTED BY IDOCK:   -2.71 KCAL/MOL
REMARK 922        TOTAL FREE ENERGY PREDICTED BY IDOCK:  -13.90 KCAL/MOL
REMARK 923 INTER-LIGAND FREE ENERGY PREDICTED BY IDOCK:  -10.16 KCAL/MOL
REMARK 924 INTRA-LIGAND FREE ENERGY PREDICTED BY IDOCK:   -3.74 KCAL/MOL
REMARK 927      BINDING AFFINITY PREDICTED BY RF-SCORE:    0.00 PKD
ROOT
HETATM    1  C   UNL     1      -6.356  11.118  66.929  1.00  0.00    -0.114 C  
HETATM    2  C   UNL     1      -6.058  12.302  67.835  1.00  0.00    -0.082 C  
ENDROOT
BRANCH   2   3
HETATM    3  C   UNL     1      -5.248  11.875  69.057  1.00  0.00    -0.050 C  
BRANCH   3   4
HETATM    4  C   UNL     1      -6.065  10.972  69.981  1.00  0.00    -0.128 C  
BRANCH   4   5
HETATM    5  C   UNL     1      -5.183   9.897  70.614  1.00  0.00    -0.044 C  
BRANCH   5   6
HETATM    6  C   UNL     1      -5.934   8.574  70.757  1.00  0.00    -0.033 C  
BRANCH   6   7
HETATM    7  C   UNL     1      -5.303   7.490  69.884  1.00  0.00    -0.023 C  
BRANCH   7   8
HETATM    8  C   UNL     1      -5.135   7.968  68.445  1.00  0.00    -0.031 C  
BRANCH   8   9
HETATM    9  C   UNL     1      -5.834   7.029  67.465  1.00  0.00    -0.024 C  
BRANCH   9  10
HETATM   10  C   UNL     1      -7.108   7.671  66.917  1.00  0.00    -0.084 C  
BRANCH  10  11
HETATM   11  C   UNL     1      -8.185   7.807  67.991  1.00  0.00    -0.123 C  
BRANCH  11  12
HETATM   12  C   UNL     1      -9.083   9.007  67.691  1.00  0.00    -0.144 C  
BRANCH  12  13
HETATM   13  C   UNL     1     -10.532   8.746  68.088  1.00  0.00    -0.243 C  
BRANCH  13  14
HETATM   14  C   UNL     1     -10.746   9.081  69.545  1.00  0.00    -0.206 C  
HETATM   15  O   UNL     1     -10.846   8.260  70.447  1.00  0.00    -0.230 OA 
BRANCH  14  16
HETATM   16  O   UNL     1     -10.753  10.434  69.717  1.00  0.00    -0.251 OA 
BRANCH  16  17
HETATM   17  C   UNL     1     -12.056  11.039  69.675  1.00  0.00    -0.340 C  
BRANCH  17  18
HETATM   18  C   UNL     1     -12.048  12.325  68.838  1.00  0.00    -0.126 C  
BRANCH  18  19
HETATM   19  O   UNL     1     -11.426  12.038  67.562  1.00  0.00    -0.298 OA 
BRANCH  19  20
HETATM   20  C   UNL     1     -11.642  12.944  66.572  1.00  0.00    -0.371 C  
HETATM   21  O   UNL     1     -12.623  13.663  66.452  1.00  0.00    -0.364 OA 
BRANCH  20  22
HETATM   22  C   UNL     1     -10.469  12.963  65.624  1.00  0.00    -0.292 C  
BRANCH  22  23
HETATM   23  C   UNL     1     -10.300  14.327  64.965  1.00  0.00    -0.448 C  
BRANCH  23  24
HETATM   24  C   UNL     1      -9.519  15.308  65.842  1.00  0.00    -0.351 C  
BRANCH  24  25
HETATM   25  C   UNL     1      -8.489  14.578  66.702  1.00  0.00    -0.006 C  
BRANCH  25  26
HETATM   26  C   UNL     1      -7.263  15.452  66.946  1.00  0.00     0.096 C  
BRANCH  26  27
HETATM   27  C   UNL     1      -7.604  16.934  66.822  1.00  0.00    -0.280 C  
BRANCH  27  28
HETATM   28  C   UNL     1      -6.568  17.661  65.968  1.00  0.00    -0.280 C  
BRANCH  28  29
HETATM   29  C   UNL     1      -5.644  18.515  66.832  1.00  0.00    -0.158 C  
BRANCH  29  30
HETATM   30  C   UNL     1      -5.757  19.991  66.459  1.00  0.00    -0.182 C  
BRANCH  30  31
HETATM   31  C   UNL     1      -5.166  20.882  67.551  1.00  0.00    -0.263 C  
BRANCH  31  32
HETATM   32  C   UNL     1      -6.013  20.826  68.822  1.00  0.00    -0.376 C  
BRANCH  32  33
HETATM   33  C   UNL     1      -5.140  20.645  70.061  1.00  0.00    -0.345 C  
HETATM   34  C   UNL     1      -5.854  19.826  71.123  1.00  0.00    -0.267 C  
ENDBRANCH  32  33
ENDBRANCH  31  32
ENDBRANCH  30  31
ENDBRANCH  29  30
ENDBRANCH  28  29
ENDBRANCH  27  28
ENDBRANCH  26  27
ENDBRANCH  25  26
ENDBRANCH  24  25
ENDBRANCH  23  24
ENDBRANCH  22  23
ENDBRANCH  20  22
ENDBRANCH  19  20
ENDBRANCH  18  19
BRANCH  18  35
HETATM   35  C   UNL     1     -11.201  13.384  69.540  1.00  0.00    -0.117 C  
BRANCH  35  36
HETATM   36  O   UNL     1     -12.014  14.468  70.011  1.00  0.00    -0.291 OA 
BRANCH  36  37
HETATM   37  P   UNL     1     -11.326  16.027  69.720  1.00  0.00    -0.288 P  
HETATM   38  O   UNL     1     -11.538  16.383  71.298  1.00  0.00    -0.414 OA 
HETATM   39  O   UNL     1     -10.004  15.327  69.477  1.00  0.00    -0.238 OA 
BRANCH  37  40
HETATM   40  O   UNL     1     -10.637  17.588  69.430  1.00  0.00    -0.226 OA 
BRANCH  40  41
HETATM   41  C   UNL     1     -10.417  17.965  68.039  1.00  0.00    -0.382 C  
BRANCH  41  42
HETATM   42  C   UNL     1     -10.664  19.444  67.639  1.00  0.00    -0.417 C  
HETATM   43  H   UNL     1     -10.618  21.218  68.516  1.00  0.00     0.000 HD 
HETATM   44  O   UNL     1     -10.467  20.313  68.761  1.00  0.00    -0.304 OA 
BRANCH  42  45
HETATM   45  C   UNL     1      -9.795  19.912  66.463  1.00  0.00    -0.451 C  
HETATM   46  O   UNL     1      -8.730  20.758  66.916  1.00  0.00    -0.568 OA 
HETATM   47  H   UNL     1      -8.193  21.048  66.189  1.00  0.00     0.000 HD 
ENDBRANCH  42  45
ENDBRANCH  41  42
ENDBRANCH  40  41
ENDBRANCH  37  40
ENDBRANCH  36  37
ENDBRANCH  35  36
ENDBRANCH  18  35
ENDBRANCH  17  18
ENDBRANCH  16  17
ENDBRANCH  14  16
ENDBRANCH  13  14
ENDBRANCH  12  13
ENDBRANCH  11  12
ENDBRANCH  10  11
ENDBRANCH   9  10
ENDBRANCH   8   9
ENDBRANCH   7   8
ENDBRANCH   6   7
ENDBRANCH   5   6
ENDBRANCH   4   5
ENDBRANCH   3   4
ENDBRANCH   2   3
TORSDOF 36
ENDMDL
MODEL       58
REMARK 921   NORMALIZED FREE ENERGY PREDICTED BY IDOCK:   -2.69 KCAL/MOL
REMARK 922        TOTAL FREE ENERGY PREDICTED BY IDOCK:  -13.82 KCAL/MOL
REMARK 923 INTER-LIGAND FREE ENERGY PREDICTED BY IDOCK:  -10.10 KCAL/MOL
REMARK 924 INTRA-LIGAND FREE ENERGY PREDICTED BY IDOCK:   -3.72 KCAL/MOL
REMARK 927      BINDING AFFINITY PREDICTED BY RF-SCORE:    0.00 PKD
ROOT
HETATM    1  C   UNL     1      -6.149   3.595  65.129  1.00  0.00    -0.023 C  
HETATM    2  C   UNL     1      -7.591   3.129  65.248  1.00  0.00    -0.080 C  
ENDROOT
BRANCH   2   3
HETATM    3  C   UNL     1      -7.839   2.429  66.583  1.00  0.00    -0.072 C  
BRANCH   3   4
HETATM    4  C   UNL     1      -9.123   2.928  67.245  1.00  0.00    -0.202 C  
BRANCH   4   5
HETATM    5  C   UNL     1      -9.427   2.135  68.515  1.00  0.00    -0.214 C  
BRANCH   5   6
HETATM    6  C   UNL     1      -9.658   3.063  69.707  1.00  0.00    -0.108 C  
BRANCH   6   7
HETATM    7  C   UNL     1      -8.873   2.587  70.930  1.00  0.00    -0.136 C  
BRANCH   7   8
HETATM    8  C   UNL     1      -7.943   3.681  71.448  1.00  0.00    -0.061 C  
BRANCH   8   9
HETATM    9  C   UNL     1      -8.098   3.872  72.954  1.00  0.00    -0.091 C  
BRANCH   9  10
HETATM   10  C   UNL     1      -9.541   3.611  73.386  1.00  0.00    -0.138 C  
BRANCH  10  11
HETATM   11  C   UNL     1     -10.240   4.890  73.841  1.00  0.00    -0.257 C  
BRANCH  11  12
HETATM   12  C   UNL     1     -11.326   5.284  72.841  1.00  0.00    -0.368 C  
BRANCH  12  13
HETATM   13  C   UNL     1     -10.850   6.367  71.881  1.00  0.00    -0.279 C  
BRANCH  13  14
HETATM   14  C   UNL     1     -11.923   6.674  70.861  1.00  0.00    -0.355 C  
HETATM   15  O   UNL     1     -12.936   7.324  71.081  1.00  0.00    -0.346 OA 
BRANCH  14  16
HETATM   16  O   UNL     1     -11.568   6.169  69.645  1.00  0.00    -0.407 OA 
BRANCH  16  17
HETATM   17  C   UNL     1     -10.285   6.605  69.164  1.00  0.00    -0.179 C  
BRANCH  17  18
HETATM   18  C   UNL     1     -10.425   7.773  68.179  1.00  0.00    -0.176 C  
BRANCH  18  19
HETATM   19  O   UNL     1      -9.996   7.324  66.872  1.00  0.00    -0.198 OA 
BRANCH  19  20
HETATM   20  C   UNL     1      -8.658   7.365  66.632  1.00  0.00    -0.127 C  
HETATM   21  O   UNL     1      -7.848   6.492  66.908  1.00  0.00    -0.104 OA 
BRANCH  20  22
HETATM   22  C   UNL     1      -8.296   8.656  65.942  1.00  0.00    -0.140 C  
BRANCH  22  23
HETATM   23  C   UNL     1      -9.340   9.052  64.905  1.00  0.00     0.047 C  
BRANCH  23  24
HETATM   24  C   UNL     1     -10.042  10.367  65.252  1.00  0.00    -0.370 C  
BRANCH  24  25
HETATM   25  C   UNL     1     -10.298  11.201  63.998  1.00  0.00    -0.437 C  
BRANCH  25  26
HETATM   26  C   UNL     1     -10.668  12.635  64.364  1.00  0.00    -0.384 C  
BRANCH  26  27
HETATM   27  C   UNL     1     -11.683  12.674  65.503  1.00  0.00    -0.446 C  
BRANCH  27  28
HETATM   28  C   UNL     1     -12.089  14.111  65.821  1.00  0.00    -0.433 C  
BRANCH  28  29
HETATM   29  C   UNL     1     -12.104  14.357  67.328  1.00  0.00    -0.358 C  
BRANCH  29  30
HETATM   30  C   UNL     1     -11.143  13.413  68.046  1.00  0.00    -0.281 C  
BRANCH  30  31
HETATM   31  C   UNL     1     -11.735  12.924  69.367  1.00  0.00    -0.382 C  
BRANCH  31  32
HETATM   32  C   UNL     1     -11.270  11.503  69.682  1.00  0.00    -0.276 C  
BRANCH  32  33
HETATM   33  C   UNL     1     -12.433  10.632  70.150  1.00  0.00    -0.342 C  
HETATM   34  C   UNL     1     -12.731  10.856  71.623  1.00  0.00    -0.498 C  
ENDBRANCH  32  33
ENDBRANCH  31  32
ENDBRANCH  30  31
ENDBRANCH  29  30
ENDBRANCH  28  29
ENDBRANCH  27  28
ENDBRANCH  26  27
ENDBRANCH  25  26
ENDBRANCH  24  25
ENDBRANCH  23  24
ENDBRANCH  22  23
ENDBRANCH  20  22
ENDBRANCH  19  20
ENDBRANCH  18  19
BRANCH  18  35
HETATM   35  C   UNL     1      -9.502   8.912  68.606  1.00  0.00    -0.151 C  
BRANCH  35  36
HETATM   36  O   UNL     1      -9.014   8.710  69.940  1.00  0.00    -0.143 OA 
BRANCH  36  37
HETATM   37  P   UNL     1      -7.652   9.700  70.335  1.00  0.00    -0.065 P  
HETATM   38  O   UNL     1      -7.747   9.165  71.873  1.00  0.00    -0.339 OA 
HETATM   39  O   UNL     1      -6.814   8.778  69.473  1.00  0.00    -0.046 OA 
BRANCH  37  40
HETATM   40  O   UNL     1      -6.289  10.689  70.732  1.00  0.00    -0.324 OA 
BRANCH  40  41
HETATM   41  C   UNL     1      -6.194  11.982  70.065  1.00  0.00    -0.110 C  
BRANCH  41  42
HETATM   42  C   UNL     1      -6.666  12.075  68.589  1.00  0.00    -0.080 C  
HETATM   43  H   UNL     1      -7.454  13.442  67.394  1.00  0.00     0.000 HD 
HETATM   44  O   UNL     1      -7.165  13.385  68.298  1.00  0.00    -0.090 OA 
BRANCH  42  45
HETATM   45  C   UNL     1      -5.577  11.698  67.574  1.00  0.00    -0.070 C  
HETATM   46  O   UNL     1      -6.069  11.801  66.231  1.00  0.00    -0.463 OA 
HETATM   47  H   UNL     1      -5.395  11.568  65.604  1.00  0.00     0.000 HD 
ENDBRANCH  42  45
ENDBRANCH  41  42
ENDBRANCH  40  41
ENDBRANCH  37  40
ENDBRANCH  36  37
ENDBRANCH  35  36
ENDBRANCH  18  35
ENDBRANCH  17  18
ENDBRANCH  16  17
ENDBRANCH  14  16
ENDBRANCH  13  14
ENDBRANCH  12  13
ENDBRANCH  11  12
ENDBRANCH  10  11
ENDBRANCH   9  10
ENDBRANCH   8   9
ENDBRANCH   7   8
ENDBRANCH   6   7
ENDBRANCH   5   6
ENDBRANCH   4   5
ENDBRANCH   3   4
ENDBRANCH   2   3
TORSDOF 36
ENDMDL
MODEL       59
REMARK 921   NORMALIZED FREE ENERGY PREDICTED BY IDOCK:   -2.56 KCAL/MOL
REMARK 922        TOTAL FREE ENERGY PREDICTED BY IDOCK:  -13.41 KCAL/MOL
REMARK 923 INTER-LIGAND FREE ENERGY PREDICTED BY IDOCK:   -9.42 KCAL/MOL
REMARK 924 INTRA-LIGAND FREE ENERGY PREDICTED BY IDOCK:   -3.99 KCAL/MOL
REMARK 927      BINDING AFFINITY PREDICTED BY RF-SCORE:    0.00 PKD
ROOT
HETATM    1  C   UNL     1      -6.508   7.729  65.415  1.00  0.00    -0.041 C  
HETATM    2  C   UNL     1      -6.045   7.321  64.026  1.00  0.00    -0.044 C  
ENDROOT
BRANCH   2   3
HETATM    3  C   UNL     1      -6.721   8.163  62.946  1.00  0.00    -0.086 C  
BRANCH   3   4
HETATM    4  C   UNL     1      -8.089   8.667  63.406  1.00  0.00    -0.168 C  
BRANCH   4   5
HETATM    5  C   UNL     1      -8.741   9.535  62.331  1.00  0.00    -0.236 C  
BRANCH   5   6
HETATM    6  C   UNL     1      -8.963  10.963  62.829  1.00  0.00    -0.326 C  
BRANCH   6   7
HETATM    7  C   UNL     1     -10.356  11.120  63.438  1.00  0.00    -0.419 C  
BRANCH   7   8
HETATM    8  C   UNL     1     -10.341  10.822  64.935  1.00  0.00    -0.369 C  
BRANCH   8   9
HETATM    9  C   UNL     1      -9.296  11.670  65.656  1.00  0.00    -0.195 C  
BRANCH   9  10
HETATM   10  C   UNL     1      -8.328  10.783  66.439  1.00  0.00    -0.153 C  
BRANCH  10  11
HETATM   11  C   UNL     1      -8.212  11.216  67.899  1.00  0.00    -0.121 C  
BRANCH  11  12
HETATM   12  C   UNL     1      -6.877  10.754  68.483  1.00  0.00    -0.062 C  
BRANCH  12  13
HETATM   13  C   UNL     1      -6.910  10.703  70.006  1.00  0.00    -0.150 C  
BRANCH  13  14
HETATM   14  C   UNL     1      -7.645   9.469  70.474  1.00  0.00    -0.149 C  
HETATM   15  O   UNL     1      -8.564   9.463  71.283  1.00  0.00    -0.299 OA 
BRANCH  14  16
HETATM   16  O   UNL     1      -7.175   8.369  69.819  1.00  0.00    -0.054 OA 
BRANCH  16  17
HETATM   17  C   UNL     1      -8.194   7.487  69.317  1.00  0.00    -0.130 C  
BRANCH  17  18
HETATM   18  C   UNL     1      -8.138   6.118  70.008  1.00  0.00    -0.119 C  
BRANCH  18  19
HETATM   19  O   UNL     1      -9.405   5.886  70.669  1.00  0.00    -0.156 OA 
BRANCH  19  20
HETATM   20  C   UNL     1     -10.483   5.717  69.858  1.00  0.00    -0.290 C  
HETATM   21  O   UNL     1     -10.541   4.992  68.876  1.00  0.00    -0.079 OA 
BRANCH  20  22
HETATM   22  C   UNL     1     -11.639   6.549  70.355  1.00  0.00    -0.470 C  
BRANCH  22  23
HETATM   23  C   UNL     1     -11.500   6.875  71.837  1.00  0.00    -0.308 C  
BRANCH  23  24
HETATM   24  C   UNL     1     -11.669   8.369  72.126  1.00  0.00    -0.442 C  
BRANCH  24  25
HETATM   25  C   UNL     1     -13.140   8.726  72.333  1.00  0.00    -0.444 C  
BRANCH  25  26
HETATM   26  C   UNL     1     -13.485  10.041  71.642  1.00  0.00    -0.398 C  
BRANCH  26  27
HETATM   27  C   UNL     1     -12.229  10.841  71.311  1.00  0.00    -0.426 C  
BRANCH  27  28
HETATM   28  C   UNL     1     -11.705  10.481  69.922  1.00  0.00    -0.372 C  
BRANCH  28  29
HETATM   29  C   UNL     1     -11.649  11.711  69.020  1.00  0.00    -0.379 C  
BRANCH  29  30
HETATM   30  C   UNL     1     -11.849  12.991  69.828  1.00  0.00    -0.381 C  
BRANCH  30  31
HETATM   31  C   UNL     1     -11.638  14.230  68.958  1.00  0.00    -0.342 C  
BRANCH  31  32
HETATM   32  C   UNL     1     -10.929  13.869  67.654  1.00  0.00    -0.278 C  
BRANCH  32  33
HETATM   33  C   UNL     1      -9.678  14.720  67.451  1.00  0.00    -0.214 C  
HETATM   34  C   UNL     1      -9.893  15.768  66.373  1.00  0.00    -0.296 C  
ENDBRANCH  32  33
ENDBRANCH  31  32
ENDBRANCH  30  31
ENDBRANCH  29  30
ENDBRANCH  28  29
ENDBRANCH  27  28
ENDBRANCH  26  27
ENDBRANCH  25  26
ENDBRANCH  24  25
ENDBRANCH  23  24
ENDBRANCH  22  23
ENDBRANCH  20  22
ENDBRANCH  19  20
ENDBRANCH  18  19
BRANCH  18  35
HETATM   35  C   UNL     1      -7.051   6.133  71.080  1.00  0.00    -0.070 C  
BRANCH  35  36
HETATM   36  O   UNL     1      -7.617   6.283  72.389  1.00  0.00    -0.096 OA 
BRANCH  36  37
HETATM   37  P   UNL     1      -7.725   4.799  73.271  1.00  0.00    -0.093 P  
HETATM   38  O   UNL     1      -6.315   4.331  72.597  1.00  0.00    -0.016 OA 
HETATM   39  O   UNL     1      -7.502   5.607  74.532  1.00  0.00    -0.088 OA 
BRANCH  37  40
HETATM   40  O   UNL     1      -7.832   3.314  74.152  1.00  0.00    -0.064 OA 
BRANCH  40  41
HETATM   41  C   UNL     1      -9.165   2.872  74.543  1.00  0.00    -0.081 C  
BRANCH  41  42
HETATM   42  C   UNL     1     -10.176   2.526  73.417  1.00  0.00    -0.121 C  
HETATM   43  H   UNL     1     -11.656   3.428  72.460  1.00  0.00     0.000 HD 
HETATM   44  O   UNL     1     -11.036   3.640  73.149  1.00  0.00    -0.162 OA 
BRANCH  42  45
HETATM   45  C   UNL     1      -9.507   2.064  72.115  1.00  0.00    -0.098 C  
HETATM   46  O   UNL     1      -9.822   2.951  71.033  1.00  0.00    -0.138 OA 
HETATM   47  H   UNL     1      -9.407   2.665  70.228  1.00  0.00     0.000 HD 
ENDBRANCH  42  45
ENDBRANCH  41  42
ENDBRANCH  40  41
ENDBRANCH  37  40
ENDBRANCH  36  37
ENDBRANCH  35  36
ENDBRANCH  18  35
ENDBRANCH  17  18
ENDBRANCH  16  17
ENDBRANCH  14  16
ENDBRANCH  13  14
ENDBRANCH  12  13
ENDBRANCH  11  12
ENDBRANCH  10  11
ENDBRANCH   9  10
ENDBRANCH   8   9
ENDBRANCH   7   8
ENDBRANCH   6   7
ENDBRANCH   5   6
ENDBRANCH   4   5
ENDBRANCH   3   4
ENDBRANCH   2   3
TORSDOF 36
ENDMDL
MODEL       60
REMARK 921   NORMALIZED FREE ENERGY PREDICTED BY IDOCK:   -2.50 KCAL/MOL
REMARK 922        TOTAL FREE ENERGY PREDICTED BY IDOCK:  -13.23 KCAL/MOL
REMARK 923 INTER-LIGAND FREE ENERGY PREDICTED BY IDOCK:  -10.50 KCAL/MOL
REMARK 924 INTRA-LIGAND FREE ENERGY PREDICTED BY IDOCK:   -2.73 KCAL/MOL
REMARK 927      BINDING AFFINITY PREDICTED BY RF-SCORE:    0.00 PKD
ROOT
HETATM    1  C   UNL     1      -7.706   7.391  74.474  1.00  0.00    -0.175 C  
HETATM    2  C   UNL     1      -8.966   7.346  73.625  1.00  0.00    -0.261 C  
ENDROOT
BRANCH   2   3
HETATM    3  C   UNL     1      -9.363   5.909  73.296  1.00  0.00    -0.135 C  
BRANCH   3   4
HETATM    4  C   UNL     1      -9.424   5.678  71.786  1.00  0.00    -0.169 C  
BRANCH   4   5
HETATM    5  C   UNL     1      -8.348   6.489  71.066  1.00  0.00    -0.126 C  
BRANCH   5   6
HETATM    6  C   UNL     1      -7.060   5.682  70.902  1.00  0.00    -0.070 C  
BRANCH   6   7
HETATM    7  C   UNL     1      -6.566   5.728  69.457  1.00  0.00    -0.051 C  
BRANCH   7   8
HETATM    8  C   UNL     1      -6.364   7.167  68.989  1.00  0.00    -0.035 C  
BRANCH   8   9
HETATM    9  C   UNL     1      -7.075   7.422  67.662  1.00  0.00    -0.085 C  
BRANCH   9  10
HETATM   10  C   UNL     1      -7.737   8.799  67.660  1.00  0.00    -0.101 C  
BRANCH  10  11
HETATM   11  C   UNL     1      -8.883   8.879  66.654  1.00  0.00    -0.150 C  
BRANCH  11  12
HETATM   12  C   UNL     1      -9.494  10.280  66.658  1.00  0.00    -0.203 C  
BRANCH  12  13
HETATM   13  C   UNL     1     -10.976  10.254  67.015  1.00  0.00    -0.189 C  
BRANCH  13  14
HETATM   14  C   UNL     1     -11.564  11.643  66.919  1.00  0.00    -0.167 C  
HETATM   15  O   UNL     1     -12.090  12.116  65.921  1.00  0.00    -0.594 OA 
BRANCH  14  16
HETATM   16  O   UNL     1     -11.474  12.271  68.126  1.00  0.00    -0.270 OA 
BRANCH  16  17
HETATM   17  C   UNL     1     -10.723  13.497  68.112  1.00  0.00    -0.252 C  
BRANCH  17  18
HETATM   18  C   UNL     1     -11.582  14.673  67.626  1.00  0.00    -0.361 C  
BRANCH  18  19
HETATM   19  O   UNL     1     -10.702  15.755  67.241  1.00  0.00    -0.310 OA 
BRANCH  19  20
HETATM   20  C   UNL     1      -9.851  15.499  66.212  1.00  0.00    -0.294 C  
HETATM   21  O   UNL     1     -10.093  14.818  65.227  1.00  0.00    -0.364 OA 
BRANCH  20  22
HETATM   22  C   UNL     1      -8.538  16.206  66.440  1.00  0.00    -0.365 C  
BRANCH  22  23
HETATM   23  C   UNL     1      -8.167  16.241  67.917  1.00  0.00    -0.156 C  
BRANCH  23  24
HETATM   24  C   UNL     1      -6.681  15.961  68.156  1.00  0.00    -0.131 C  
BRANCH  24  25
HETATM   25  C   UNL     1      -5.818  17.121  67.665  1.00  0.00    -0.144 C  
BRANCH  25  26
HETATM   26  C   UNL     1      -5.537  18.108  68.794  1.00  0.00    -0.185 C  
BRANCH  26  27
HETATM   27  C   UNL     1      -5.201  19.494  68.250  1.00  0.00    -0.195 C  
BRANCH  27  28
HETATM   28  C   UNL     1      -6.171  20.540  68.791  1.00  0.00    -0.353 C  
BRANCH  28  29
HETATM   29  C   UNL     1      -7.103  21.046  67.693  1.00  0.00    -0.299 C  
BRANCH  29  30
HETATM   30  C   UNL     1      -8.037  19.937  67.215  1.00  0.00    -0.341 C  
BRANCH  30  31
HETATM   31  C   UNL     1      -9.106  19.627  68.263  1.00  0.00    -0.395 C  
BRANCH  31  32
HETATM   32  C   UNL     1     -10.443  19.299  67.601  1.00  0.00    -0.557 C  
BRANCH  32  33
HETATM   33  C   UNL     1     -10.292  19.163  66.087  1.00  0.00    -0.561 C  
HETATM   34  C   UNL     1     -11.133  20.195  65.355  1.00  0.00     0.234 C  
ENDBRANCH  32  33
ENDBRANCH  31  32
ENDBRANCH  30  31
ENDBRANCH  29  30
ENDBRANCH  28  29
ENDBRANCH  27  28
ENDBRANCH  26  27
ENDBRANCH  25  26
ENDBRANCH  24  25
ENDBRANCH  23  24
ENDBRANCH  22  23
ENDBRANCH  20  22
ENDBRANCH  19  20
ENDBRANCH  18  19
BRANCH  18  35
HETATM   35  C   UNL     1     -12.457  15.172  68.774  1.00  0.00     0.221 C  
BRANCH  35  36
HETATM   36  O   UNL     1     -11.692  15.330  69.977  1.00  0.00    -0.270 OA 
BRANCH  36  37
HETATM   37  P   UNL     1     -12.277  14.382  71.299  1.00  0.00    -0.309 P  
HETATM   38  O   UNL     1     -11.439  15.340  72.319  1.00  0.00    -0.447 OA 
HETATM   39  O   UNL     1     -13.654  14.943  71.008  1.00  0.00    -0.389 OA 
BRANCH  37  40
HETATM   40  O   UNL     1     -12.862  13.433  72.623  1.00  0.00    -0.222 OA 
BRANCH  40  41
HETATM   41  C   UNL     1     -13.702  12.288  72.295  1.00  0.00    -0.093 C  
BRANCH  41  42
HETATM   42  C   UNL     1     -13.042  11.090  71.560  1.00  0.00    -0.396 C  
HETATM   43  H   UNL     1     -11.333  10.707  70.639  1.00  0.00     0.000 HD 
HETATM   44  O   UNL     1     -11.736  11.440  71.089  1.00  0.00     0.074 OA 
BRANCH  42  45
HETATM   45  C   UNL     1     -12.960   9.818  72.416  1.00  0.00    -0.228 C  
HETATM   46  O   UNL     1     -14.246   9.195  72.535  1.00  0.00    -0.634 OA 
HETATM   47  H   UNL     1     -14.195   8.408  73.064  1.00  0.00     0.000 HD 
ENDBRANCH  42  45
ENDBRANCH  41  42
ENDBRANCH  40  41
ENDBRANCH  37  40
ENDBRANCH  36  37
ENDBRANCH  35  36
ENDBRANCH  18  35
ENDBRANCH  17  18
ENDBRANCH  16  17
ENDBRANCH  14  16
ENDBRANCH  13  14
ENDBRANCH  12  13
ENDBRANCH  11  12
ENDBRANCH  10  11
ENDBRANCH   9  10
ENDBRANCH   8   9
ENDBRANCH   7   8
ENDBRANCH   6   7
ENDBRANCH   5   6
ENDBRANCH   4   5
ENDBRANCH   3   4
ENDBRANCH   2   3
TORSDOF 36
ENDMDL
MODEL       61
REMARK 921   NORMALIZED FREE ENERGY PREDICTED BY IDOCK:   -2.25 KCAL/MOL
REMARK 922        TOTAL FREE ENERGY PREDICTED BY IDOCK:  -12.45 KCAL/MOL
REMARK 923 INTER-LIGAND FREE ENERGY PREDICTED BY IDOCK:   -8.34 KCAL/MOL
REMARK 924 INTRA-LIGAND FREE ENERGY PREDICTED BY IDOCK:   -4.11 KCAL/MOL
REMARK 927      BINDING AFFINITY PREDICTED BY RF-SCORE:    0.00 PKD
ROOT
HETATM    1  C   UNL     1     -11.123   5.156  66.515  1.00  0.00     0.278 C  
HETATM    2  C   UNL     1      -9.642   5.496  66.542  1.00  0.00    -0.169 C  
ENDROOT
BRANCH   2   3
HETATM    3  C   UNL     1      -9.087   5.451  67.964  1.00  0.00    -0.114 C  
BRANCH   3   4
HETATM    4  C   UNL     1      -8.266   4.184  68.203  1.00  0.00    -0.094 C  
BRANCH   4   5
HETATM    5  C   UNL     1      -6.909   4.520  68.819  1.00  0.00    -0.051 C  
BRANCH   5   6
HETATM    6  C   UNL     1      -6.934   5.884  69.508  1.00  0.00    -0.063 C  
BRANCH   6   7
HETATM    7  C   UNL     1      -5.550   6.254  70.040  1.00  0.00    -0.014 C  
BRANCH   7   8
HETATM    8  C   UNL     1      -5.307   7.758  69.946  1.00  0.00    -0.023 C  
BRANCH   8   9
HETATM    9  C   UNL     1      -6.623   8.526  69.863  1.00  0.00    -0.042 C  
BRANCH   9  10
HETATM   10  C   UNL     1      -6.395  10.017  70.114  1.00  0.00    -0.093 C  
BRANCH  10  11
HETATM   11  C   UNL     1      -7.675  10.829  69.925  1.00  0.00     0.200 C  
BRANCH  11  12
HETATM   12  C   UNL     1      -7.587  11.664  68.649  1.00  0.00    -0.133 C  
BRANCH  12  13
HETATM   13  C   UNL     1      -6.216  11.557  67.991  1.00  0.00    -0.046 C  
BRANCH  13  14
HETATM   14  C   UNL     1      -6.349  11.014  66.587  1.00  0.00    -0.124 C  
HETATM   15  O   UNL     1      -5.622  11.310  65.648  1.00  0.00    -0.181 OA 
BRANCH  14  16
HETATM   16  O   UNL     1      -7.360  10.101  66.534  1.00  0.00    -0.101 OA 
BRANCH  16  17
HETATM   17  C   UNL     1      -8.161  10.160  65.341  1.00  0.00    -0.151 C  
BRANCH  17  18
HETATM   18  C   UNL     1      -9.437  10.983  65.566  1.00  0.00    -0.216 C  
BRANCH  18  19
HETATM   19  O   UNL     1     -10.549  10.071  65.726  1.00  0.00    -0.089 OA 
BRANCH  19  20
HETATM   20  C   UNL     1     -10.809   9.658  66.995  1.00  0.00    -0.078 C  
HETATM   21  O   UNL     1     -10.859   8.500  67.382  1.00  0.00    -0.209 OA 
BRANCH  20  22
HETATM   22  C   UNL     1     -11.011  10.852  67.896  1.00  0.00    -0.325 C  
BRANCH  22  23
HETATM   23  C   UNL     1     -11.833  10.494  69.128  1.00  0.00    -0.218 C  
BRANCH  23  24
HETATM   24  C   UNL     1     -10.958  10.126  70.329  1.00  0.00    -0.380 C  
BRANCH  24  25
HETATM   25  C   UNL     1     -11.813   9.781  71.547  1.00  0.00    -0.476 C  
BRANCH  25  26
HETATM   26  C   UNL     1     -12.237   8.315  71.518  1.00  0.00    -0.334 C  
BRANCH  26  27
HETATM   27  C   UNL     1     -11.026   7.387  71.487  1.00  0.00    -0.255 C  
BRANCH  27  28
HETATM   28  C   UNL     1      -9.737   8.166  71.739  1.00  0.00    -0.253 C  
BRANCH  28  29
HETATM   29  C   UNL     1      -9.164   7.850  73.118  1.00  0.00    -0.331 C  
BRANCH  29  30
HETATM   30  C   UNL     1      -8.321   6.578  73.081  1.00  0.00    -0.120 C  
BRANCH  30  31
HETATM   31  C   UNL     1      -8.864   5.528  74.050  1.00  0.00    -0.119 C  
BRANCH  31  32
HETATM   32  C   UNL     1      -9.707   4.488  73.315  1.00  0.00    -0.152 C  
BRANCH  32  33
HETATM   33  C   UNL     1      -8.999   3.136  73.267  1.00  0.00    -0.093 C  
HETATM   34  C   UNL     1      -8.092   3.033  72.052  1.00  0.00    -0.059 C  
ENDBRANCH  32  33
ENDBRANCH  31  32
ENDBRANCH  30  31
ENDBRANCH  29  30
ENDBRANCH  28  29
ENDBRANCH  27  28
ENDBRANCH  26  27
ENDBRANCH  25  26
ENDBRANCH  24  25
ENDBRANCH  23  24
ENDBRANCH  22  23
ENDBRANCH  20  22
ENDBRANCH  19  20
ENDBRANCH  18  19
BRANCH  18  35
HETATM   35  C   UNL     1      -9.713  11.840  64.333  1.00  0.00    -0.143 C  
BRANCH  35  36
HETATM   36  O   UNL     1     -11.094  12.224  64.268  1.00  0.00    -0.305 OA 
BRANCH  36  37
HETATM   37  P   UNL     1     -11.534  13.424  65.433  1.00  0.00    -0.326 P  
HETATM   38  O   UNL     1     -10.408  14.416  64.793  1.00  0.00    -0.431 OA 
HETATM   39  O   UNL     1     -12.861  13.545  64.711  1.00  0.00    -0.677 OA 
BRANCH  37  40
HETATM   40  O   UNL     1     -11.974  14.626  66.597  1.00  0.00    -0.368 OA 
BRANCH  40  41
HETATM   41  C   UNL     1     -11.193  14.672  67.827  1.00  0.00    -0.308 C  
BRANCH  41  42
HETATM   42  C   UNL     1     -10.668  16.053  68.304  1.00  0.00    -0.298 C  
HETATM   43  H   UNL     1      -9.294  16.737  69.553  1.00  0.00     0.000 HD 
HETATM   44  O   UNL     1      -9.616  15.892  69.262  1.00  0.00    -0.238 OA 
BRANCH  42  45
HETATM   45  C   UNL     1     -10.190  16.954  67.156  1.00  0.00    -0.297 C  
HETATM   46  O   UNL     1     -10.114  18.323  67.576  1.00  0.00    -0.318 OA 
HETATM   47  H   UNL     1      -9.818  18.880  66.866  1.00  0.00     0.000 HD 
ENDBRANCH  42  45
ENDBRANCH  41  42
ENDBRANCH  40  41
ENDBRANCH  37  40
ENDBRANCH  36  37
ENDBRANCH  35  36
ENDBRANCH  18  35
ENDBRANCH  17  18
ENDBRANCH  16  17
ENDBRANCH  14  16
ENDBRANCH  13  14
ENDBRANCH  12  13
ENDBRANCH  11  12
ENDBRANCH  10  11
ENDBRANCH   9  10
ENDBRANCH   8   9
ENDBRANCH   7   8
ENDBRANCH   6   7
ENDBRANCH   5   6
ENDBRANCH   4   5
ENDBRANCH   3   4
ENDBRANCH   2   3
TORSDOF 36
ENDMDL
MODEL       62
REMARK 921   NORMALIZED FREE ENERGY PREDICTED BY IDOCK:   -2.12 KCAL/MOL
REMARK 922        TOTAL FREE ENERGY PREDICTED BY IDOCK:  -12.05 KCAL/MOL
REMARK 923 INTER-LIGAND FREE ENERGY PREDICTED BY IDOCK:   -9.67 KCAL/MOL
REMARK 924 INTRA-LIGAND FREE ENERGY PREDICTED BY IDOCK:   -2.38 KCAL/MOL
REMARK 927      BINDING AFFINITY PREDICTED BY RF-SCORE:    0.00 PKD
ROOT
HETATM    1  C   UNL     1      -8.523   8.660  72.098  1.00  0.00    -0.171 C  
HETATM    2  C   UNL     1      -7.385   8.453  73.084  1.00  0.00    -0.108 C  
ENDROOT
BRANCH   2   3
HETATM    3  C   UNL     1      -7.874   7.772  74.361  1.00  0.00    -0.247 C  
BRANCH   3   4
HETATM    4  C   UNL     1      -8.483   6.402  74.065  1.00  0.00    -0.123 C  
BRANCH   4   5
HETATM    5  C   UNL     1      -9.934   6.336  74.540  1.00  0.00    -0.356 C  
BRANCH   5   6
HETATM    6  C   UNL     1     -10.515   4.934  74.357  1.00  0.00    -0.325 C  
BRANCH   6   7
HETATM    7  C   UNL     1     -11.175   4.790  72.985  1.00  0.00    -0.344 C  
BRANCH   7   8
HETATM    8  C   UNL     1     -10.380   3.845  72.088  1.00  0.00    -0.139 C  
BRANCH   8   9
HETATM    9  C   UNL     1      -9.595   4.615  71.030  1.00  0.00    -0.245 C  
BRANCH   9  10
HETATM   10  C   UNL     1     -10.373   5.848  70.572  1.00  0.00    -0.297 C  
BRANCH  10  11
HETATM   11  C   UNL     1     -10.836   5.724  69.122  1.00  0.00    -0.355 C  
BRANCH  11  12
HETATM   12  C   UNL     1     -10.146   6.775  68.254  1.00  0.00    -0.173 C  
BRANCH  12  13
HETATM   13  C   UNL     1      -8.775   7.155  68.802  1.00  0.00    -0.124 C  
BRANCH  13  14
HETATM   14  C   UNL     1      -7.700   6.312  68.158  1.00  0.00    -0.104 C  
HETATM   15  O   UNL     1      -7.690   5.088  68.129  1.00  0.00    -0.082 OA 
BRANCH  14  16
HETATM   16  O   UNL     1      -6.771   7.114  67.564  1.00  0.00    -0.059 OA 
BRANCH  16  17
HETATM   17  C   UNL     1      -7.251   7.847  66.424  1.00  0.00    -0.082 C  
BRANCH  17  18
HETATM   18  C   UNL     1      -6.099   8.244  65.490  1.00  0.00    -0.045 C  
BRANCH  18  19
HETATM   19  O   UNL     1      -6.571   9.276  64.593  1.00  0.00    -0.074 OA 
BRANCH  19  20
HETATM   20  C   UNL     1      -7.426  10.189  65.125  1.00  0.00    -0.141 C  
HETATM   21  O   UNL     1      -7.234  10.859  66.129  1.00  0.00    -0.139 OA 
BRANCH  20  22
HETATM   22  C   UNL     1      -8.670  10.288  64.278  1.00  0.00    -0.217 C  
BRANCH  22  23
HETATM   23  C   UNL     1      -9.932  10.311  65.131  1.00  0.00    -0.395 C  
BRANCH  23  24
HETATM   24  C   UNL     1     -10.378  11.733  65.480  1.00  0.00    -0.304 C  
BRANCH  24  25
HETATM   25  C   UNL     1     -10.813  12.495  64.230  1.00  0.00    -0.400 C  
BRANCH  25  26
HETATM   26  C   UNL     1     -11.768  13.630  64.587  1.00  0.00    -0.414 C  
BRANCH  26  27
HETATM   27  C   UNL     1     -11.275  14.410  65.802  1.00  0.00    -0.326 C  
BRANCH  27  28
HETATM   28  C   UNL     1     -10.702  15.762  65.385  1.00  0.00    -0.420 C  
BRANCH  28  29
HETATM   29  C   UNL     1     -10.634  16.720  66.572  1.00  0.00    -0.198 C  
BRANCH  29  30
HETATM   30  C   UNL     1     -10.273  15.976  67.855  1.00  0.00    -0.258 C  
BRANCH  30  31
HETATM   31  C   UNL     1     -11.525  15.617  68.654  1.00  0.00    -0.381 C  
BRANCH  31  32
HETATM   32  C   UNL     1     -11.307  15.854  70.148  1.00  0.00    -0.369 C  
BRANCH  32  33
HETATM   33  C   UNL     1     -12.009  14.787  70.985  1.00  0.00    -0.389 C  
HETATM   34  C   UNL     1     -12.573  15.377  72.267  1.00  0.00    -0.455 C  
ENDBRANCH  32  33
ENDBRANCH  31  32
ENDBRANCH  30  31
ENDBRANCH  29  30
ENDBRANCH  28  29
ENDBRANCH  27  28
ENDBRANCH  26  27
ENDBRANCH  25  26
ENDBRANCH  24  25
ENDBRANCH  23  24
ENDBRANCH  22  23
ENDBRANCH  20  22
ENDBRANCH  19  20
ENDBRANCH  18  19
BRANCH  18  35
HETATM   35  C   UNL     1      -5.694   7.040  64.642  1.00  0.00    -0.032 C  
BRANCH  35  36
HETATM   36  O   UNL     1      -6.427   5.868  65.025  1.00  0.00    -0.039 OA 
BRANCH  36  37
HETATM   37  P   UNL     1      -7.080   4.991  63.685  1.00  0.00    -0.050 P  
HETATM   38  O   UNL     1      -8.257   4.429  64.664  1.00  0.00    -0.100 OA 
HETATM   39  O   UNL     1      -7.450   6.328  63.075  1.00  0.00    -0.057 OA 
BRANCH  37  40
HETATM   40  O   UNL     1      -7.734   4.114  62.345  1.00  0.00    -0.057 OA 
BRANCH  40  41
HETATM   41  C   UNL     1      -9.164   3.833  62.373  1.00  0.00    -0.096 C  
BRANCH  41  42
HETATM   42  C   UNL     1      -9.612   2.351  62.475  1.00  0.00    -0.089 C  
HETATM   43  H   UNL     1      -8.832   0.629  63.062  1.00  0.00     0.000 HD 
HETATM   44  O   UNL     1      -8.557   1.537  62.999  1.00  0.00    -0.064 OA 
BRANCH  42  45
HETATM   45  C   UNL     1     -10.884   2.153  63.313  1.00  0.00    -0.221 C  
HETATM   46  O   UNL     1     -11.068   3.241  64.229  1.00  0.00    -0.604 OA 
HETATM   47  H   UNL     1     -11.855   3.119  64.747  1.00  0.00     0.000 HD 
ENDBRANCH  42  45
ENDBRANCH  41  42
ENDBRANCH  40  41
ENDBRANCH  37  40
ENDBRANCH  36  37
ENDBRANCH  35  36
ENDBRANCH  18  35
ENDBRANCH  17  18
ENDBRANCH  16  17
ENDBRANCH  14  16
ENDBRANCH  13  14
ENDBRANCH  12  13
ENDBRANCH  11  12
ENDBRANCH  10  11
ENDBRANCH   9  10
ENDBRANCH   8   9
ENDBRANCH   7   8
ENDBRANCH   6   7
ENDBRANCH   5   6
ENDBRANCH   4   5
ENDBRANCH   3   4
ENDBRANCH   2   3
TORSDOF 36
ENDMDL
MODEL       63
REMARK 921   NORMALIZED FREE ENERGY PREDICTED BY IDOCK:   -2.09 KCAL/MOL
REMARK 922        TOTAL FREE ENERGY PREDICTED BY IDOCK:  -11.95 KCAL/MOL
REMARK 923 INTER-LIGAND FREE ENERGY PREDICTED BY IDOCK:   -8.89 KCAL/MOL
REMARK 924 INTRA-LIGAND FREE ENERGY PREDICTED BY IDOCK:   -3.06 KCAL/MOL
REMARK 927      BINDING AFFINITY PREDICTED BY RF-SCORE:    0.00 PKD
ROOT
HETATM    1  C   UNL     1     -12.032  12.176  67.907  1.00  0.00    -0.218 C  
HETATM    2  C   UNL     1     -11.697  13.171  66.808  1.00  0.00    -0.439 C  
ENDROOT
BRANCH   2   3
HETATM    3  C   UNL     1     -10.350  13.845  67.061  1.00  0.00    -0.267 C  
BRANCH   3   4
HETATM    4  C   UNL     1     -10.492  15.045  67.996  1.00  0.00    -0.242 C  
BRANCH   4   5
HETATM    5  C   UNL     1     -11.901  15.116  68.582  1.00  0.00    -0.329 C  
BRANCH   5   6
HETATM    6  C   UNL     1     -11.873  15.048  70.109  1.00  0.00    -0.357 C  
BRANCH   6   7
HETATM    7  C   UNL     1     -13.170  15.592  70.705  1.00  0.00    -0.391 C  
BRANCH   7   8
HETATM    8  C   UNL     1     -13.424  15.012  72.094  1.00  0.00    -0.508 C  
BRANCH   8   9
HETATM    9  C   UNL     1     -14.065  13.630  72.008  1.00  0.00    -0.456 C  
BRANCH   9  10
HETATM   10  C   UNL     1     -13.028  12.536  72.262  1.00  0.00    -0.216 C  
BRANCH  10  11
HETATM   11  C   UNL     1     -13.196  11.359  71.303  1.00  0.00    -0.143 C  
BRANCH  11  12
HETATM   12  C   UNL     1     -12.295  10.199  71.727  1.00  0.00    -0.401 C  
BRANCH  12  13
HETATM   13  C   UNL     1     -11.826   9.377  70.532  1.00  0.00    -0.207 C  
BRANCH  13  14
HETATM   14  C   UNL     1     -12.021   7.903  70.801  1.00  0.00    -0.131 C  
HETATM   15  O   UNL     1     -13.079   7.382  71.131  1.00  0.00    -0.313 OA 
BRANCH  14  16
HETATM   16  O   UNL     1     -10.860   7.228  70.565  1.00  0.00    -0.231 OA 
BRANCH  16  17
HETATM   17  C   UNL     1     -11.025   5.954  69.919  1.00  0.00    -0.374 C  
BRANCH  17  18
HETATM   18  C   UNL     1      -9.937   5.718  68.862  1.00  0.00    -0.161 C  
BRANCH  18  19
HETATM   19  O   UNL     1     -10.516   4.970  67.767  1.00  0.00    -0.101 OA 
BRANCH  19  20
HETATM   20  C   UNL     1      -9.997   5.213  66.534  1.00  0.00    -0.212 C  
HETATM   21  O   UNL     1     -10.133   4.511  65.543  1.00  0.00    -0.208 OA 
BRANCH  20  22
HETATM   22  C   UNL     1      -9.229   6.510  66.542  1.00  0.00    -0.179 C  
BRANCH  22  23
HETATM   23  C   UNL     1     -10.154   7.711  66.694  1.00  0.00    -0.278 C  
BRANCH  23  24
HETATM   24  C   UNL     1      -9.705   8.907  65.851  1.00  0.00    -0.259 C  
BRANCH  24  25
HETATM   25  C   UNL     1      -9.761  10.202  66.660  1.00  0.00    -0.242 C  
BRANCH  25  26
HETATM   26  C   UNL     1      -9.686   9.914  68.156  1.00  0.00    -0.161 C  
BRANCH  26  27
HETATM   27  C   UNL     1      -8.243   9.929  68.653  1.00  0.00    -0.108 C  
BRANCH  27  28
HETATM   28  C   UNL     1      -7.337  10.666  67.670  1.00  0.00    -0.090 C  
BRANCH  28  29
HETATM   29  C   UNL     1      -5.934  10.063  67.657  1.00  0.00    -0.053 C  
BRANCH  29  30
HETATM   30  C   UNL     1      -5.970   8.604  67.212  1.00  0.00    -0.051 C  
BRANCH  30  31
HETATM   31  C   UNL     1      -5.377   8.439  65.814  1.00  0.00    -0.031 C  
BRANCH  31  32
HETATM   32  C   UNL     1      -6.438   7.967  64.821  1.00  0.00    -0.048 C  
BRANCH  32  33
HETATM   33  C   UNL     1      -6.418   8.809  63.547  1.00  0.00    -0.089 C  
HETATM   34  C   UNL     1      -7.103  10.148  63.762  1.00  0.00    -0.103 C  
ENDBRANCH  32  33
ENDBRANCH  31  32
ENDBRANCH  30  31
ENDBRANCH  29  30
ENDBRANCH  28  29
ENDBRANCH  27  28
ENDBRANCH  26  27
ENDBRANCH  25  26
ENDBRANCH  24  25
ENDBRANCH  23  24
ENDBRANCH  22  23
ENDBRANCH  20  22
ENDBRANCH  19  20
ENDBRANCH  18  19
BRANCH  18  35
HETATM   35  C   UNL     1      -8.818   4.871  69.464  1.00  0.00    -0.090 C  
BRANCH  35  36
HETATM   36  O   UNL     1      -9.326   3.985  70.471  1.00  0.00    -0.119 OA 
BRANCH  36  37
HETATM   37  P   UNL     1      -8.548   4.163  72.006  1.00  0.00    -0.108 P  
HETATM   38  O   UNL     1      -7.690   5.408  71.393  1.00  0.00    -0.101 OA 
HETATM   39  O   UNL     1      -9.883   4.621  72.556  1.00  0.00    -0.148 OA 
BRANCH  37  40
HETATM   40  O   UNL     1      -7.769   4.342  73.540  1.00  0.00    -0.079 OA 
BRANCH  40  41
HETATM   41  C   UNL     1      -8.136   5.506  74.336  1.00  0.00    -0.104 C  
BRANCH  41  42
HETATM   42  C   UNL     1      -7.065   6.610  74.548  1.00  0.00    -0.092 C  
HETATM   43  H   UNL     1      -5.095   6.768  74.444  1.00  0.00     0.000 HD 
HETATM   44  O   UNL     1      -5.751   6.092  74.314  1.00  0.00    -0.055 OA 
BRANCH  42  45
HETATM   45  C   UNL     1      -7.293   7.856  73.681  1.00  0.00    -0.136 C  
HETATM   46  O   UNL     1      -6.360   8.892  74.017  1.00  0.00    -0.263 OA 
HETATM   47  H   UNL     1      -6.501   9.664  73.481  1.00  0.00     0.000 HD 
ENDBRANCH  42  45
ENDBRANCH  41  42
ENDBRANCH  40  41
ENDBRANCH  37  40
ENDBRANCH  36  37
ENDBRANCH  35  36
ENDBRANCH  18  35
ENDBRANCH  17  18
ENDBRANCH  16  17
ENDBRANCH  14  16
ENDBRANCH  13  14
ENDBRANCH  12  13
ENDBRANCH  11  12
ENDBRANCH  10  11
ENDBRANCH   9  10
ENDBRANCH   8   9
ENDBRANCH   7   8
ENDBRANCH   6   7
ENDBRANCH   5   6
ENDBRANCH   4   5
ENDBRANCH   3   4
ENDBRANCH   2   3
TORSDOF 36
ENDMDL
MODEL       64
REMARK 921   NORMALIZED FREE ENERGY PREDICTED BY IDOCK:   -2.02 KCAL/MOL
REMARK 922        TOTAL FREE ENERGY PREDICTED BY IDOCK:  -11.74 KCAL/MOL
REMARK 923 INTER-LIGAND FREE ENERGY PREDICTED BY IDOCK:   -8.91 KCAL/MOL
REMARK 924 INTRA-LIGAND FREE ENERGY PREDICTED BY IDOCK:   -2.83 KCAL/MOL
REMARK 927      BINDING AFFINITY PREDICTED BY RF-SCORE:    0.00 PKD
ROOT
HETATM    1  C   UNL     1     -11.985  12.054  68.190  1.00  0.00    -0.231 C  
HETATM    2  C   UNL     1     -11.658  12.772  66.891  1.00  0.00    -0.428 C  
ENDROOT
BRANCH   2   3
HETATM    3  C   UNL     1     -10.298  13.463  66.966  1.00  0.00    -0.247 C  
BRANCH   3   4
HETATM    4  C   UNL     1     -10.387  14.790  67.719  1.00  0.00    -0.244 C  
BRANCH   4   5
HETATM    5  C   UNL     1     -11.772  14.976  68.337  1.00  0.00    -0.341 C  
BRANCH   5   6
HETATM    6  C   UNL     1     -11.709  14.943  69.864  1.00  0.00    -0.347 C  
BRANCH   6   7
HETATM    7  C   UNL     1     -12.995  15.495  70.477  1.00  0.00    -0.339 C  
BRANCH   7   8
HETATM    8  C   UNL     1     -13.250  14.895  71.856  1.00  0.00    -0.441 C  
BRANCH   8   9
HETATM    9  C   UNL     1     -13.838  13.490  71.749  1.00  0.00    -0.301 C  
BRANCH   9  10
HETATM   10  C   UNL     1     -12.775  12.436  72.054  1.00  0.00    -0.119 C  
BRANCH  10  11
HETATM   11  C   UNL     1     -12.919  11.205  71.161  1.00  0.00    -0.393 C  
BRANCH  11  12
HETATM   12  C   UNL     1     -12.069  10.056  71.702  1.00  0.00    -0.420 C  
BRANCH  12  13
HETATM   13  C   UNL     1     -11.518   9.180  70.582  1.00  0.00    -0.310 C  
BRANCH  13  14
HETATM   14  C   UNL     1     -11.811   7.724  70.862  1.00  0.00    -0.239 C  
HETATM   15  O   UNL     1     -12.926   7.255  71.048  1.00  0.00    -0.307 OA 
BRANCH  14  16
HETATM   16  O   UNL     1     -10.657   7.000  70.818  1.00  0.00    -0.215 OA 
BRANCH  16  17
HETATM   17  C   UNL     1     -10.785   5.702  70.213  1.00  0.00    -0.294 C  
BRANCH  17  18
HETATM   18  C   UNL     1      -9.660   5.445  69.200  1.00  0.00    -0.141 C  
BRANCH  18  19
HETATM   19  O   UNL     1     -10.172   4.585  68.155  1.00  0.00    -0.018 OA 
BRANCH  19  20
HETATM   20  C   UNL     1      -9.645   4.768  66.915  1.00  0.00    -0.172 C  
HETATM   21  O   UNL     1      -9.768   4.016  65.960  1.00  0.00    -0.186 OA 
BRANCH  20  22
HETATM   22  C   UNL     1      -8.885   6.070  66.863  1.00  0.00    -0.116 C  
BRANCH  22  23
HETATM   23  C   UNL     1      -9.793   7.237  66.494  1.00  0.00    -0.202 C  
BRANCH  23  24
HETATM   24  C   UNL     1      -9.093   8.263  65.599  1.00  0.00    -0.122 C  
BRANCH  24  25
HETATM   25  C   UNL     1      -9.382   9.688  66.066  1.00  0.00    -0.263 C  
BRANCH  25  26
HETATM   26  C   UNL     1      -9.460   9.757  67.588  1.00  0.00    -0.164 C  
BRANCH  26  27
HETATM   27  C   UNL     1      -8.092  10.037  68.203  1.00  0.00    -0.108 C  
BRANCH  27  28
HETATM   28  C   UNL     1      -8.121  11.316  69.037  1.00  0.00    -0.045 C  
BRANCH  28  29
HETATM   29  C   UNL     1      -6.775  12.035  68.988  1.00  0.00    -0.100 C  
BRANCH  29  30
HETATM   30  C   UNL     1      -6.538  12.658  67.615  1.00  0.00    -0.143 C  
BRANCH  30  31
HETATM   31  C   UNL     1      -6.556  14.184  67.692  1.00  0.00    -0.173 C  
BRANCH  31  32
HETATM   32  C   UNL     1      -6.857  14.658  69.113  1.00  0.00    -0.126 C  
BRANCH  32  33
HETATM   33  C   UNL     1      -7.050  16.172  69.163  1.00  0.00    -0.209 C  
HETATM   34  C   UNL     1      -7.913  16.655  68.010  1.00  0.00    -0.173 C  
ENDBRANCH  32  33
ENDBRANCH  31  32
ENDBRANCH  30  31
ENDBRANCH  29  30
ENDBRANCH  28  29
ENDBRANCH  27  28
ENDBRANCH  26  27
ENDBRANCH  25  26
ENDBRANCH  24  25
ENDBRANCH  23  24
ENDBRANCH  22  23
ENDBRANCH  20  22
ENDBRANCH  19  20
ENDBRANCH  18  19
BRANCH  18  35
HETATM   35  C   UNL     1      -8.514   4.708  69.889  1.00  0.00    -0.073 C  
BRANCH  35  36
HETATM   36  O   UNL     1      -8.996   3.897  70.970  1.00  0.00    -0.090 OA 
BRANCH  36  37
HETATM   37  P   UNL     1      -8.254   4.258  72.490  1.00  0.00    -0.102 P  
HETATM   38  O   UNL     1      -7.267   5.308  71.725  1.00  0.00    -0.075 OA 
HETATM   39  O   UNL     1      -9.559   4.912  72.898  1.00  0.00    -0.136 OA 
BRANCH  37  40
HETATM   40  O   UNL     1      -7.511   4.620  74.010  1.00  0.00    -0.079 OA 
BRANCH  40  41
HETATM   41  C   UNL     1      -7.718   5.960  74.545  1.00  0.00    -0.096 C  
BRANCH  41  42
HETATM   42  C   UNL     1      -6.511   6.937  74.544  1.00  0.00    -0.087 C  
HETATM   43  H   UNL     1      -4.628   6.927  73.935  1.00  0.00     0.000 HD 
HETATM   44  O   UNL     1      -5.367   6.329  73.935  1.00  0.00    -0.039 OA 
BRANCH  42  45
HETATM   45  C   UNL     1      -6.811   8.278  73.860  1.00  0.00    -0.129 C  
HETATM   46  O   UNL     1      -6.070   9.343  74.469  1.00  0.00    -0.323 OA 
HETATM   47  H   UNL     1      -6.256  10.172  74.046  1.00  0.00     0.000 HD 
ENDBRANCH  42  45
ENDBRANCH  41  42
ENDBRANCH  40  41
ENDBRANCH  37  40
ENDBRANCH  36  37
ENDBRANCH  35  36
ENDBRANCH  18  35
ENDBRANCH  17  18
ENDBRANCH  16  17
ENDBRANCH  14  16
ENDBRANCH  13  14
ENDBRANCH  12  13
ENDBRANCH  11  12
ENDBRANCH  10  11
ENDBRANCH   9  10
ENDBRANCH   8   9
ENDBRANCH   7   8
ENDBRANCH   6   7
ENDBRANCH   5   6
ENDBRANCH   4   5
ENDBRANCH   3   4
ENDBRANCH   2   3
TORSDOF 36
ENDMDL
MODEL       65
REMARK 921   NORMALIZED FREE ENERGY PREDICTED BY IDOCK:   -1.90 KCAL/MOL
REMARK 922        TOTAL FREE ENERGY PREDICTED BY IDOCK:  -11.37 KCAL/MOL
REMARK 923 INTER-LIGAND FREE ENERGY PREDICTED BY IDOCK:   -8.86 KCAL/MOL
REMARK 924 INTRA-LIGAND FREE ENERGY PREDICTED BY IDOCK:   -2.51 KCAL/MOL
REMARK 927      BINDING AFFINITY PREDICTED BY RF-SCORE:    0.00 PKD
ROOT
HETATM    1  C   UNL     1      -5.185   4.153  65.379  1.00  0.00    -0.009 C  
HETATM    2  C   UNL     1      -6.696   4.010  65.472  1.00  0.00    -0.052 C  
ENDROOT
BRANCH   2   3
HETATM    3  C   UNL     1      -7.090   2.919  66.465  1.00  0.00    -0.054 C  
BRANCH   3   4
HETATM    4  C   UNL     1      -8.491   3.155  67.027  1.00  0.00    -0.106 C  
BRANCH   4   5
HETATM    5  C   UNL     1      -8.699   2.374  68.324  1.00  0.00    -0.128 C  
BRANCH   5   6
HETATM    6  C   UNL     1      -9.046   3.306  69.484  1.00  0.00    -0.200 C  
BRANCH   6   7
HETATM    7  C   UNL     1      -7.976   3.247  70.574  1.00  0.00    -0.048 C  
BRANCH   7   8
HETATM    8  C   UNL     1      -7.284   4.596  70.741  1.00  0.00    -0.045 C  
BRANCH   8   9
HETATM    9  C   UNL     1      -7.868   5.375  71.917  1.00  0.00    -0.112 C  
BRANCH   9  10
HETATM   10  C   UNL     1      -9.307   4.942  72.191  1.00  0.00    -0.167 C  
BRANCH  10  11
HETATM   11  C   UNL     1     -10.290   6.101  72.039  1.00  0.00    -0.232 C  
BRANCH  11  12
HETATM   12  C   UNL     1     -10.909   6.091  70.642  1.00  0.00    -0.364 C  
BRANCH  12  13
HETATM   13  C   UNL     1      -9.970   6.687  69.599  1.00  0.00    -0.191 C  
BRANCH  13  14
HETATM   14  C   UNL     1     -10.505   6.438  68.208  1.00  0.00    -0.223 C  
HETATM   15  O   UNL     1     -11.659   6.633  67.853  1.00  0.00     0.055 OA 
BRANCH  14  16
HETATM   16  O   UNL     1      -9.498   6.019  67.390  1.00  0.00    -0.111 OA 
BRANCH  16  17
HETATM   17  C   UNL     1      -8.473   6.998  67.146  1.00  0.00    -0.121 C  
BRANCH  17  18
HETATM   18  C   UNL     1      -9.074   8.326  66.665  1.00  0.00    -0.166 C  
BRANCH  18  19
HETATM   19  O   UNL     1      -8.688   8.530  65.285  1.00  0.00    -0.179 OA 
BRANCH  19  20
HETATM   20  C   UNL     1      -7.638   9.368  65.073  1.00  0.00    -0.109 C  
HETATM   21  O   UNL     1      -6.464   9.128  65.310  1.00  0.00    -0.066 OA 
BRANCH  20  22
HETATM   22  C   UNL     1      -8.123  10.661  64.466  1.00  0.00     0.031 C  
BRANCH  22  23
HETATM   23  C   UNL     1      -9.347  10.445  63.584  1.00  0.00    -0.329 C  
BRANCH  23  24
HETATM   24  C   UNL     1     -10.646  10.878  64.267  1.00  0.00    -0.336 C  
BRANCH  24  25
HETATM   25  C   UNL     1     -11.222  12.131  63.609  1.00  0.00    -0.540 C  
BRANCH  25  26
HETATM   26  C   UNL     1     -10.974  13.364  64.473  1.00  0.00    -0.404 C  
BRANCH  26  27
HETATM   27  C   UNL     1     -11.571  13.194  65.867  1.00  0.00    -0.391 C  
BRANCH  27  28
HETATM   28  C   UNL     1     -11.573  14.520  66.623  1.00  0.00    -0.385 C  
BRANCH  28  29
HETATM   29  C   UNL     1     -10.603  14.483  67.802  1.00  0.00    -0.250 C  
BRANCH  29  30
HETATM   30  C   UNL     1     -11.207  13.729  68.983  1.00  0.00    -0.313 C  
BRANCH  30  31
HETATM   31  C   UNL     1     -12.092  14.645  69.827  1.00  0.00    -0.371 C  
BRANCH  31  32
HETATM   32  C   UNL     1     -13.024  13.832  70.724  1.00  0.00    -0.238 C  
BRANCH  32  33
HETATM   33  C   UNL     1     -13.714  14.722  71.756  1.00  0.00    -0.511 C  
HETATM   34  C   UNL     1     -12.973  14.704  73.082  1.00  0.00    -0.605 C  
ENDBRANCH  32  33
ENDBRANCH  31  32
ENDBRANCH  30  31
ENDBRANCH  29  30
ENDBRANCH  28  29
ENDBRANCH  27  28
ENDBRANCH  26  27
ENDBRANCH  25  26
ENDBRANCH  24  25
ENDBRANCH  23  24
ENDBRANCH  22  23
ENDBRANCH  20  22
ENDBRANCH  19  20
ENDBRANCH  18  19
BRANCH  18  35
HETATM   35  C   UNL     1      -8.491   9.475  67.485  1.00  0.00    -0.126 C  
BRANCH  35  36
HETATM   36  O   UNL     1      -8.215   9.061  68.831  1.00  0.00    -0.116 OA 
BRANCH  36  37
HETATM   37  P   UNL     1      -7.169  10.141  69.685  1.00  0.00    -0.156 P  
HETATM   38  O   UNL     1      -7.807   9.604  71.087  1.00  0.00    -0.289 OA 
HETATM   39  O   UNL     1      -6.011   9.276  69.229  1.00  0.00    -0.038 OA 
BRANCH  37  40
HETATM   40  O   UNL     1      -6.122  11.221  70.541  1.00  0.00    -0.249 OA 
BRANCH  40  41
HETATM   41  C   UNL     1      -6.100  12.609  70.099  1.00  0.00    -0.093 C  
BRANCH  41  42
HETATM   42  C   UNL     1      -6.715  12.941  68.713  1.00  0.00    -0.093 C  
HETATM   43  H   UNL     1      -7.825  14.373  67.916  1.00  0.00     0.000 HD 
HETATM   44  O   UNL     1      -7.448  14.170  68.765  1.00  0.00    -0.122 OA 
BRANCH  42  45
HETATM   45  C   UNL     1      -5.677  13.004  67.583  1.00  0.00    -0.118 C  
HETATM   46  O   UNL     1      -5.784  11.861  66.724  1.00  0.00    -0.192 OA 
HETATM   47  H   UNL     1      -5.142  11.900  66.025  1.00  0.00     0.000 HD 
ENDBRANCH  42  45
ENDBRANCH  41  42
ENDBRANCH  40  41
ENDBRANCH  37  40
ENDBRANCH  36  37
ENDBRANCH  35  36
ENDBRANCH  18  35
ENDBRANCH  17  18
ENDBRANCH  16  17
ENDBRANCH  14  16
ENDBRANCH  13  14
ENDBRANCH  12  13
ENDBRANCH  11  12
ENDBRANCH  10  11
ENDBRANCH   9  10
ENDBRANCH   8   9
ENDBRANCH   7   8
ENDBRANCH   6   7
ENDBRANCH   5   6
ENDBRANCH   4   5
ENDBRANCH   3   4
ENDBRANCH   2   3
TORSDOF 36
ENDMDL
MODEL       66
REMARK 921   NORMALIZED FREE ENERGY PREDICTED BY IDOCK:   -1.87 KCAL/MOL
REMARK 922        TOTAL FREE ENERGY PREDICTED BY IDOCK:  -11.26 KCAL/MOL
REMARK 923 INTER-LIGAND FREE ENERGY PREDICTED BY IDOCK:   -7.69 KCAL/MOL
REMARK 924 INTRA-LIGAND FREE ENERGY PREDICTED BY IDOCK:   -3.58 KCAL/MOL
REMARK 927      BINDING AFFINITY PREDICTED BY RF-SCORE:    0.00 PKD
ROOT
HETATM    1  C   UNL     1      -7.609  12.235  68.957  1.00  0.00     0.103 C  
HETATM    2  C   UNL     1      -8.989  12.739  68.567  1.00  0.00    -0.046 C  
ENDROOT
BRANCH   2   3
HETATM    3  C   UNL     1      -9.887  11.595  68.100  1.00  0.00    -0.191 C  
BRANCH   3   4
HETATM    4  C   UNL     1     -11.052  11.371  69.064  1.00  0.00    -0.300 C  
BRANCH   4   5
HETATM    5  C   UNL     1     -11.115   9.912  69.514  1.00  0.00    -0.255 C  
BRANCH   5   6
HETATM    6  C   UNL     1     -10.294   9.687  70.783  1.00  0.00    -0.356 C  
BRANCH   6   7
HETATM    7  C   UNL     1     -10.453   8.254  71.291  1.00  0.00    -0.262 C  
BRANCH   7   8
HETATM    8  C   UNL     1     -11.785   7.656  70.845  1.00  0.00    -0.291 C  
BRANCH   8   9
HETATM    9  C   UNL     1     -11.573   6.404  69.998  1.00  0.00    -0.446 C  
BRANCH   9  10
HETATM   10  C   UNL     1     -10.220   5.764  70.308  1.00  0.00    -0.295 C  
BRANCH  10  11
HETATM   11  C   UNL     1      -9.265   5.849  69.120  1.00  0.00    -0.131 C  
BRANCH  11  12
HETATM   12  C   UNL     1      -7.837   5.535  69.566  1.00  0.00    -0.087 C  
BRANCH  12  13
HETATM   13  C   UNL     1      -7.107   6.781  70.057  1.00  0.00    -0.071 C  
BRANCH  13  14
HETATM   14  C   UNL     1      -7.058   7.825  68.965  1.00  0.00    -0.074 C  
HETATM   15  O   UNL     1      -7.854   8.745  68.837  1.00  0.00    -0.100 OA 
BRANCH  14  16
HETATM   16  O   UNL     1      -5.963   7.625  68.178  1.00  0.00    -0.037 OA 
BRANCH  16  17
HETATM   17  C   UNL     1      -6.242   7.020  66.904  1.00  0.00    -0.041 C  
BRANCH  17  18
HETATM   18  C   UNL     1      -7.569   7.525  66.323  1.00  0.00    -0.088 C  
BRANCH  18  19
HETATM   19  O   UNL     1      -8.320   6.388  65.836  1.00  0.00    -0.130 OA 
BRANCH  19  20
HETATM   20  C   UNL     1      -7.642   5.518  65.040  1.00  0.00    -0.081 C  
HETATM   21  O   UNL     1      -6.721   5.797  64.286  1.00  0.00    -0.043 OA 
BRANCH  20  22
HETATM   22  C   UNL     1      -8.176   4.120  65.230  1.00  0.00    -0.102 C  
BRANCH  22  23
HETATM   23  C   UNL     1      -9.572   4.129  65.841  1.00  0.00    -0.193 C  
BRANCH  23  24
HETATM   24  C   UNL     1      -9.732   3.087  66.951  1.00  0.00     0.198 C  
BRANCH  24  25
HETATM   25  C   UNL     1      -8.589   2.073  66.922  1.00  0.00    -0.117 C  
BRANCH  25  26
HETATM   26  C   UNL     1      -7.681   2.241  68.136  1.00  0.00    -0.054 C  
BRANCH  26  27
HETATM   27  C   UNL     1      -8.236   1.504  69.352  1.00  0.00    -0.063 C  
BRANCH  27  28
HETATM   28  C   UNL     1      -8.823   2.486  70.362  1.00  0.00    -0.145 C  
BRANCH  28  29
HETATM   29  C   UNL     1      -9.998   1.865  71.114  1.00  0.00    -0.042 C  
BRANCH  29  30
HETATM   30  C   UNL     1      -9.741   1.856  72.618  1.00  0.00    -0.157 C  
BRANCH  30  31
HETATM   31  C   UNL     1      -8.801   2.991  73.024  1.00  0.00    -0.087 C  
BRANCH  31  32
HETATM   32  C   UNL     1      -7.686   2.479  73.934  1.00  0.00    -0.050 C  
BRANCH  32  33
HETATM   33  C   UNL     1      -6.352   2.418  73.195  1.00  0.00    -0.013 C  
HETATM   34  C   UNL     1      -6.159   3.635  72.306  1.00  0.00    -0.013 C  
ENDBRANCH  32  33
ENDBRANCH  31  32
ENDBRANCH  30  31
ENDBRANCH  29  30
ENDBRANCH  28  29
ENDBRANCH  27  28
ENDBRANCH  26  27
ENDBRANCH  25  26
ENDBRANCH  24  25
ENDBRANCH  23  24
ENDBRANCH  22  23
ENDBRANCH  20  22
ENDBRANCH  19  20
ENDBRANCH  18  19
BRANCH  18  35
HETATM   35  C   UNL     1      -7.289   8.441  65.134  1.00  0.00    -0.081 C  
BRANCH  35  36
HETATM   36  O   UNL     1      -8.479   8.672  64.367  1.00  0.00    -0.160 OA 
BRANCH  36  37
HETATM   37  P   UNL     1      -9.085  10.286  64.497  1.00  0.00    -0.277 P  
HETATM   38  O   UNL     1      -8.002  10.566  65.684  1.00  0.00    -0.157 OA 
HETATM   39  O   UNL     1      -8.494  10.549  63.126  1.00  0.00    -0.167 OA 
BRANCH  37  40
HETATM   40  O   UNL     1      -9.690  11.902  64.627  1.00  0.00    -0.212 OA 
BRANCH  40  41
HETATM   41  C   UNL     1     -10.761  12.283  63.714  1.00  0.00    -0.449 C  
BRANCH  41  42
HETATM   42  C   UNL     1     -11.567  13.570  64.035  1.00  0.00    -0.353 C  
HETATM   43  H   UNL     1     -12.957  14.675  63.161  1.00  0.00     0.000 HD 
HETATM   44  O   UNL     1     -12.464  13.887  62.964  1.00  0.00    -0.689 OA 
BRANCH  42  45
HETATM   45  C   UNL     1     -12.346  13.489  65.356  1.00  0.00    -0.478 C  
HETATM   46  O   UNL     1     -12.256  12.177  65.925  1.00  0.00    -0.604 OA 
HETATM   47  H   UNL     1     -12.738  12.127  66.742  1.00  0.00     0.000 HD 
ENDBRANCH  42  45
ENDBRANCH  41  42
ENDBRANCH  40  41
ENDBRANCH  37  40
ENDBRANCH  36  37
ENDBRANCH  35  36
ENDBRANCH  18  35
ENDBRANCH  17  18
ENDBRANCH  16  17
ENDBRANCH  14  16
ENDBRANCH  13  14
ENDBRANCH  12  13
ENDBRANCH  11  12
ENDBRANCH  10  11
ENDBRANCH   9  10
ENDBRANCH   8   9
ENDBRANCH   7   8
ENDBRANCH   6   7
ENDBRANCH   5   6
ENDBRANCH   4   5
ENDBRANCH   3   4
ENDBRANCH   2   3
TORSDOF 36
ENDMDL
MODEL       67
REMARK 921   NORMALIZED FREE ENERGY PREDICTED BY IDOCK:   -1.81 KCAL/MOL
REMARK 922        TOTAL FREE ENERGY PREDICTED BY IDOCK:  -11.09 KCAL/MOL
REMARK 923 INTER-LIGAND FREE ENERGY PREDICTED BY IDOCK:   -7.33 KCAL/MOL
REMARK 924 INTRA-LIGAND FREE ENERGY PREDICTED BY IDOCK:   -3.76 KCAL/MOL
REMARK 927      BINDING AFFINITY PREDICTED BY RF-SCORE:    0.00 PKD
ROOT
HETATM    1  C   UNL     1      -7.797   7.413  74.478  1.00  0.00    -0.193 C  
HETATM    2  C   UNL     1      -9.028   7.054  73.663  1.00  0.00    -0.188 C  
ENDROOT
BRANCH   2   3
HETATM    3  C   UNL     1      -9.212   5.540  73.573  1.00  0.00    -0.130 C  
BRANCH   3   4
HETATM    4  C   UNL     1      -9.410   5.087  72.127  1.00  0.00    -0.163 C  
BRANCH   4   5
HETATM    5  C   UNL     1      -8.616   5.969  71.165  1.00  0.00    -0.129 C  
BRANCH   5   6
HETATM    6  C   UNL     1      -7.289   5.317  70.779  1.00  0.00    -0.073 C  
BRANCH   6   7
HETATM    7  C   UNL     1      -6.990   5.520  69.294  1.00  0.00    -0.063 C  
BRANCH   7   8
HETATM    8  C   UNL     1      -6.921   7.004  68.944  1.00  0.00    -0.079 C  
BRANCH   8   9
HETATM    9  C   UNL     1      -7.807   7.331  67.745  1.00  0.00    -0.114 C  
BRANCH   9  10
HETATM   10  C   UNL     1      -8.385   8.740  67.869  1.00  0.00    -0.118 C  
BRANCH  10  11
HETATM   11  C   UNL     1      -9.449   9.015  66.808  1.00  0.00    -0.238 C  
BRANCH  11  12
HETATM   12  C   UNL     1      -9.784  10.506  66.770  1.00  0.00    -0.220 C  
BRANCH  12  13
HETATM   13  C   UNL     1     -11.276  10.758  66.954  1.00  0.00    -0.109 C  
BRANCH  13  14
HETATM   14  C   UNL     1     -11.556  12.243  67.000  1.00  0.00    -0.349 C  
HETATM   15  O   UNL     1     -11.725  12.957  66.021  1.00  0.00    -0.360 OA 
BRANCH  14  16
HETATM   16  O   UNL     1     -11.651  12.659  68.295  1.00  0.00    -0.289 OA 
BRANCH  16  17
HETATM   17  C   UNL     1     -10.925  13.863  68.594  1.00  0.00    -0.261 C  
BRANCH  17  18
HETATM   18  C   UNL     1     -11.734  15.112  68.219  1.00  0.00    -0.314 C  
BRANCH  18  19
HETATM   19  O   UNL     1     -10.810  16.173  67.880  1.00  0.00    -0.320 OA 
BRANCH  19  20
HETATM   20  C   UNL     1     -10.494  16.296  66.563  1.00  0.00    -0.290 C  
HETATM   21  O   UNL     1     -11.242  16.091  65.619  1.00  0.00    -0.116 OA 
BRANCH  20  22
HETATM   22  C   UNL     1      -9.064  16.754  66.416  1.00  0.00    -0.321 C  
BRANCH  22  23
HETATM   23  C   UNL     1      -8.207  16.309  67.595  1.00  0.00    -0.166 C  
BRANCH  23  24
HETATM   24  C   UNL     1      -6.869  15.709  67.153  1.00  0.00    -0.127 C  
BRANCH  24  25
HETATM   25  C   UNL     1      -5.731  16.179  68.058  1.00  0.00    -0.128 C  
BRANCH  25  26
HETATM   26  C   UNL     1      -5.422  15.138  69.130  1.00  0.00    -0.094 C  
BRANCH  26  27
HETATM   27  C   UNL     1      -6.635  14.256  69.415  1.00  0.00    -0.132 C  
BRANCH  27  28
HETATM   28  C   UNL     1      -6.209  12.813  69.671  1.00  0.00    -0.120 C  
BRANCH  28  29
HETATM   29  C   UNL     1      -6.836  11.866  68.651  1.00  0.00    -0.086 C  
BRANCH  29  30
HETATM   30  C   UNL     1      -6.084  11.915  67.324  1.00  0.00    -0.141 C  
BRANCH  30  31
HETATM   31  C   UNL     1      -5.238  10.659  67.122  1.00  0.00    -0.041 C  
BRANCH  31  32
HETATM   32  C   UNL     1      -5.169  10.276  65.644  1.00  0.00    -0.067 C  
BRANCH  32  33
HETATM   33  C   UNL     1      -6.559  10.263  65.011  1.00  0.00    -0.114 C  
HETATM   34  C   UNL     1      -6.544   9.556  63.666  1.00  0.00    -0.104 C  
ENDBRANCH  32  33
ENDBRANCH  31  32
ENDBRANCH  30  31
ENDBRANCH  29  30
ENDBRANCH  28  29
ENDBRANCH  27  28
ENDBRANCH  26  27
ENDBRANCH  25  26
ENDBRANCH  24  25
ENDBRANCH  23  24
ENDBRANCH  22  23
ENDBRANCH  20  22
ENDBRANCH  19  20
ENDBRANCH  18  19
BRANCH  18  35
HETATM   35  C   UNL     1     -12.548  15.572  69.426  1.00  0.00     0.145 C  
BRANCH  35  36
HETATM   36  O   UNL     1     -11.840  15.330  70.650  1.00  0.00    -0.282 OA 
BRANCH  36  37
HETATM   37  P   UNL     1     -12.464  13.996  71.557  1.00  0.00    -0.213 P  
HETATM   38  O   UNL     1     -11.862  14.674  72.913  1.00  0.00    -0.113 OA 
HETATM   39  O   UNL     1     -13.852  14.514  71.241  1.00  0.00    -0.377 OA 
BRANCH  37  40
HETATM   40  O   UNL     1     -13.087  12.661  72.466  1.00  0.00    -0.310 OA 
BRANCH  40  41
HETATM   41  C   UNL     1     -13.696  11.574  71.710  1.00  0.00     0.324 C  
BRANCH  41  42
HETATM   42  C   UNL     1     -12.763  10.470  71.145  1.00  0.00    -0.418 C  
HETATM   43  H   UNL     1     -11.014   9.664  71.604  1.00  0.00     0.000 HD 
HETATM   44  O   UNL     1     -11.585  10.340  71.949  1.00  0.00     0.136 OA 
BRANCH  42  45
HETATM   45  C   UNL     1     -13.448   9.102  71.007  1.00  0.00    -0.021 C  
HETATM   46  O   UNL     1     -12.520   8.107  70.555  1.00  0.00    -0.441 OA 
HETATM   47  H   UNL     1     -12.944   7.261  70.470  1.00  0.00     0.000 HD 
ENDBRANCH  42  45
ENDBRANCH  41  42
ENDBRANCH  40  41
ENDBRANCH  37  40
ENDBRANCH  36  37
ENDBRANCH  35  36
ENDBRANCH  18  35
ENDBRANCH  17  18
ENDBRANCH  16  17
ENDBRANCH  14  16
ENDBRANCH  13  14
ENDBRANCH  12  13
ENDBRANCH  11  12
ENDBRANCH  10  11
ENDBRANCH   9  10
ENDBRANCH   8   9
ENDBRANCH   7   8
ENDBRANCH   6   7
ENDBRANCH   5   6
ENDBRANCH   4   5
ENDBRANCH   3   4
ENDBRANCH   2   3
TORSDOF 36
ENDMDL
MODEL       68
REMARK 921   NORMALIZED FREE ENERGY PREDICTED BY IDOCK:   -1.81 KCAL/MOL
REMARK 922        TOTAL FREE ENERGY PREDICTED BY IDOCK:  -11.08 KCAL/MOL
REMARK 923 INTER-LIGAND FREE ENERGY PREDICTED BY IDOCK:   -8.81 KCAL/MOL
REMARK 924 INTRA-LIGAND FREE ENERGY PREDICTED BY IDOCK:   -2.27 KCAL/MOL
REMARK 927      BINDING AFFINITY PREDICTED BY RF-SCORE:    0.00 PKD
ROOT
HETATM    1  C   UNL     1      -5.863   8.197  65.281  1.00  0.00    -0.044 C  
HETATM    2  C   UNL     1      -5.379   8.046  63.848  1.00  0.00    -0.041 C  
ENDROOT
BRANCH   2   3
HETATM    3  C   UNL     1      -6.276   8.810  62.876  1.00  0.00    -0.090 C  
BRANCH   3   4
HETATM    4  C   UNL     1      -7.708   8.912  63.399  1.00  0.00    -0.124 C  
BRANCH   4   5
HETATM    5  C   UNL     1      -8.639   9.490  62.335  1.00  0.00    -0.216 C  
BRANCH   5   6
HETATM    6  C   UNL     1      -9.003  10.942  62.644  1.00  0.00    -0.348 C  
BRANCH   6   7
HETATM    7  C   UNL     1     -10.345  11.027  63.370  1.00  0.00    -0.373 C  
BRANCH   7   8
HETATM    8  C   UNL     1     -10.160  10.953  64.883  1.00  0.00    -0.374 C  
BRANCH   8   9
HETATM    9  C   UNL     1      -8.969  11.794  65.337  1.00  0.00     0.151 C  
BRANCH   9  10
HETATM   10  C   UNL     1      -7.939  10.926  66.058  1.00  0.00    -0.132 C  
BRANCH  10  11
HETATM   11  C   UNL     1      -7.308  11.655  67.242  1.00  0.00    -0.136 C  
BRANCH  11  12
HETATM   12  C   UNL     1      -5.893  11.135  67.492  1.00  0.00    -0.048 C  
BRANCH  12  13
HETATM   13  C   UNL     1      -5.347  11.593  68.839  1.00  0.00    -0.049 C  
BRANCH  13  14
HETATM   14  C   UNL     1      -6.006  10.825  69.961  1.00  0.00    -0.094 C  
HETATM   15  O   UNL     1      -6.534  11.329  70.943  1.00  0.00    -0.178 OA 
BRANCH  14  16
HETATM   16  O   UNL     1      -5.978   9.489  69.690  1.00  0.00    -0.036 OA 
BRANCH  16  17
HETATM   17  C   UNL     1      -7.018   9.032  68.808  1.00  0.00    -0.062 C  
BRANCH  17  18
HETATM   18  C   UNL     1      -8.046   8.171  69.554  1.00  0.00    -0.119 C  
BRANCH  18  19
HETATM   19  O   UNL     1      -9.330   8.835  69.495  1.00  0.00    -0.154 OA 
BRANCH  19  20
HETATM   20  C   UNL     1      -9.952   8.835  68.286  1.00  0.00    -0.176 C  
HETATM   21  O   UNL     1      -9.936   7.929  67.466  1.00  0.00    -0.163 OA 
BRANCH  20  22
HETATM   22  C   UNL     1     -10.703  10.128  68.091  1.00  0.00    -0.285 C  
BRANCH  22  23
HETATM   23  C   UNL     1     -10.991  10.817  69.419  1.00  0.00    -0.305 C  
BRANCH  23  24
HETATM   24  C   UNL     1     -10.864  12.340  69.329  1.00  0.00    -0.082 C  
BRANCH  24  25
HETATM   25  C   UNL     1     -12.165  12.972  68.835  1.00  0.00    -0.072 C  
BRANCH  25  26
HETATM   26  C   UNL     1     -11.886  14.250  68.050  1.00  0.00    -0.379 C  
BRANCH  26  27
HETATM   27  C   UNL     1     -10.402  14.605  68.073  1.00  0.00    -0.235 C  
BRANCH  27  28
HETATM   28  C   UNL     1      -9.789  14.470  66.682  1.00  0.00    -0.282 C  
BRANCH  28  29
HETATM   29  C   UNL     1      -9.394  15.834  66.121  1.00  0.00    -0.381 C  
BRANCH  29  30
HETATM   30  C   UNL     1     -10.624  16.614  65.665  1.00  0.00    -0.282 C  
BRANCH  30  31
HETATM   31  C   UNL     1     -10.534  18.080  66.084  1.00  0.00    -0.336 C  
BRANCH  31  32
HETATM   32  C   UNL     1      -9.440  18.285  67.130  1.00  0.00    -0.268 C  
BRANCH  32  33
HETATM   33  C   UNL     1      -9.242  19.767  67.442  1.00  0.00    -0.433 C  
HETATM   34  C   UNL     1      -7.865  20.241  67.011  1.00  0.00    -0.368 C  
ENDBRANCH  32  33
ENDBRANCH  31  32
ENDBRANCH  30  31
ENDBRANCH  29  30
ENDBRANCH  28  29
ENDBRANCH  27  28
ENDBRANCH  26  27
ENDBRANCH  25  26
ENDBRANCH  24  25
ENDBRANCH  23  24
ENDBRANCH  22  23
ENDBRANCH  20  22
ENDBRANCH  19  20
ENDBRANCH  18  19
BRANCH  18  35
HETATM   35  C   UNL     1      -7.646   8.060  71.023  1.00  0.00    -0.083 C  
BRANCH  35  36
HETATM   36  O   UNL     1      -8.571   8.764  71.865  1.00  0.00    -0.286 OA 
BRANCH  36  37
HETATM   37  P   UNL     1      -9.631   7.723  72.750  1.00  0.00    -0.277 P  
HETATM   38  O   UNL     1      -8.781   8.056  74.102  1.00  0.00    -0.258 OA 
HETATM   39  O   UNL     1     -10.726   8.742  72.512  1.00  0.00    -0.250 OA 
BRANCH  37  40
HETATM   40  O   UNL     1     -10.691   6.681  73.637  1.00  0.00    -0.301 OA 
BRANCH  40  41
HETATM   41  C   UNL     1     -11.189   5.500  72.944  1.00  0.00    -0.305 C  
BRANCH  41  42
HETATM   42  C   UNL     1     -10.160   4.419  72.516  1.00  0.00    -0.177 C  
HETATM   43  H   UNL     1      -8.670   4.256  71.223  1.00  0.00     0.000 HD 
HETATM   44  O   UNL     1      -9.300   4.917  71.485  1.00  0.00    -0.141 OA 
BRANCH  42  45
HETATM   45  C   UNL     1      -9.315   3.885  73.682  1.00  0.00    -0.103 C  
HETATM   46  O   UNL     1      -8.793   4.960  74.473  1.00  0.00    -0.111 OA 
HETATM   47  H   UNL     1      -8.271   4.630  75.194  1.00  0.00     0.000 HD 
ENDBRANCH  42  45
ENDBRANCH  41  42
ENDBRANCH  40  41
ENDBRANCH  37  40
ENDBRANCH  36  37
ENDBRANCH  35  36
ENDBRANCH  18  35
ENDBRANCH  17  18
ENDBRANCH  16  17
ENDBRANCH  14  16
ENDBRANCH  13  14
ENDBRANCH  12  13
ENDBRANCH  11  12
ENDBRANCH  10  11
ENDBRANCH   9  10
ENDBRANCH   8   9
ENDBRANCH   7   8
ENDBRANCH   6   7
ENDBRANCH   5   6
ENDBRANCH   4   5
ENDBRANCH   3   4
ENDBRANCH   2   3
TORSDOF 36
ENDMDL
MODEL       69
REMARK 921   NORMALIZED FREE ENERGY PREDICTED BY IDOCK:   -1.76 KCAL/MOL
REMARK 922        TOTAL FREE ENERGY PREDICTED BY IDOCK:  -10.94 KCAL/MOL
REMARK 923 INTER-LIGAND FREE ENERGY PREDICTED BY IDOCK:   -8.74 KCAL/MOL
REMARK 924 INTRA-LIGAND FREE ENERGY PREDICTED BY IDOCK:   -2.20 KCAL/MOL
REMARK 927      BINDING AFFINITY PREDICTED BY RF-SCORE:    0.00 PKD
ROOT
HETATM    1  C   UNL     1      -8.536   8.693  72.086  1.00  0.00    -0.171 C  
HETATM    2  C   UNL     1      -7.427   8.515  73.111  1.00  0.00    -0.034 C  
ENDROOT
BRANCH   2   3
HETATM    3  C   UNL     1      -7.945   7.834  74.376  1.00  0.00    -0.264 C  
BRANCH   3   4
HETATM    4  C   UNL     1      -8.525   6.453  74.070  1.00  0.00    -0.123 C  
BRANCH   4   5
HETATM    5  C   UNL     1      -9.985   6.364  74.510  1.00  0.00    -0.370 C  
BRANCH   5   6
HETATM    6  C   UNL     1     -10.528   4.945  74.350  1.00  0.00    -0.325 C  
BRANCH   6   7
HETATM    7  C   UNL     1     -11.155   4.750  72.970  1.00  0.00    -0.352 C  
BRANCH   7   8
HETATM    8  C   UNL     1     -10.302   3.831  72.101  1.00  0.00    -0.120 C  
BRANCH   8   9
HETATM    9  C   UNL     1      -9.525   4.625  71.053  1.00  0.00    -0.227 C  
BRANCH   9  10
HETATM   10  C   UNL     1     -10.353   5.806  70.547  1.00  0.00    -0.312 C  
BRANCH  10  11
HETATM   11  C   UNL     1     -10.733   5.648  69.077  1.00  0.00    -0.307 C  
BRANCH  11  12
HETATM   12  C   UNL     1     -10.098   6.761  68.244  1.00  0.00    -0.173 C  
BRANCH  12  13
HETATM   13  C   UNL     1      -8.810   7.280  68.873  1.00  0.00    -0.127 C  
BRANCH  13  14
HETATM   14  C   UNL     1      -7.620   6.521  68.336  1.00  0.00    -0.104 C  
HETATM   15  O   UNL     1      -7.478   5.307  68.391  1.00  0.00    -0.073 OA 
BRANCH  14  16
HETATM   16  O   UNL     1      -6.754   7.381  67.728  1.00  0.00    -0.058 OA 
BRANCH  16  17
HETATM   17  C   UNL     1      -7.271   8.023  66.550  1.00  0.00    -0.080 C  
BRANCH  17  18
HETATM   18  C   UNL     1      -6.139   8.561  65.664  1.00  0.00    -0.048 C  
BRANCH  18  19
HETATM   19  O   UNL     1      -6.711   9.462  64.686  1.00  0.00    -0.083 OA 
BRANCH  19  20
HETATM   20  C   UNL     1      -7.662  10.319  65.144  1.00  0.00    -0.136 C  
HETATM   21  O   UNL     1      -7.560  11.062  66.109  1.00  0.00    -0.145 OA 
BRANCH  20  22
HETATM   22  C   UNL     1      -8.886  10.249  64.265  1.00  0.00    -0.234 C  
BRANCH  22  23
HETATM   23  C   UNL     1     -10.167  10.445  65.068  1.00  0.00    -0.334 C  
BRANCH  23  24
HETATM   24  C   UNL     1     -10.552  11.920  65.206  1.00  0.00    -0.320 C  
BRANCH  24  25
HETATM   25  C   UNL     1     -10.900  12.526  63.848  1.00  0.00    -0.472 C  
BRANCH  25  26
HETATM   26  C   UNL     1     -11.994  13.581  63.986  1.00  0.00    -0.501 C  
BRANCH  26  27
HETATM   27  C   UNL     1     -11.757  14.472  65.201  1.00  0.00    -0.376 C  
BRANCH  27  28
HETATM   28  C   UNL     1     -10.552  15.383  64.981  1.00  0.00    -0.445 C  
BRANCH  28  29
HETATM   29  C   UNL     1     -10.532  16.524  65.995  1.00  0.00    -0.320 C  
BRANCH  29  30
HETATM   30  C   UNL     1      -9.276  16.465  66.860  1.00  0.00    -0.237 C  
BRANCH  30  31
HETATM   31  C   UNL     1      -8.051  16.952  66.087  1.00  0.00    -0.295 C  
BRANCH  31  32
HETATM   32  C   UNL     1      -7.334  18.068  66.845  1.00  0.00    -0.230 C  
BRANCH  32  33
HETATM   33  C   UNL     1      -6.847  19.158  65.893  1.00  0.00    -0.295 C  
HETATM   34  C   UNL     1      -7.583  20.466  66.130  1.00  0.00    -0.171 C  
ENDBRANCH  32  33
ENDBRANCH  31  32
ENDBRANCH  30  31
ENDBRANCH  29  30
ENDBRANCH  28  29
ENDBRANCH  27  28
ENDBRANCH  26  27
ENDBRANCH  25  26
ENDBRANCH  24  25
ENDBRANCH  23  24
ENDBRANCH  22  23
ENDBRANCH  20  22
ENDBRANCH  19  20
ENDBRANCH  18  19
BRANCH  18  35
HETATM   35  C   UNL     1      -5.492   7.403  64.907  1.00  0.00    -0.033 C  
BRANCH  35  36
HETATM   36  O   UNL     1      -6.067   6.147  65.293  1.00  0.00    -0.028 OA 
BRANCH  36  37
HETATM   37  P   UNL     1      -6.461   5.126  63.954  1.00  0.00    -0.030 P  
HETATM   38  O   UNL     1      -7.668   4.479  64.840  1.00  0.00    -0.079 OA 
HETATM   39  O   UNL     1      -6.911   6.372  63.220  1.00  0.00    -0.043 OA 
BRANCH  37  40
HETATM   40  O   UNL     1      -6.855   4.103  62.615  1.00  0.00    -0.030 OA 
BRANCH  40  41
HETATM   41  C   UNL     1      -8.225   3.610  62.540  1.00  0.00    -0.072 C  
BRANCH  41  42
HETATM   42  C   UNL     1      -8.471   2.102  62.812  1.00  0.00    -0.073 C  
HETATM   43  H   UNL     1      -7.568   0.629  63.778  1.00  0.00     0.000 HD 
HETATM   44  O   UNL     1      -7.417   1.552  63.611  1.00  0.00    -0.049 OA 
BRANCH  42  45
HETATM   45  C   UNL     1      -9.827   1.814  63.473  1.00  0.00    -0.122 C  
HETATM   46  O   UNL     1      -9.661   1.473  64.856  1.00  0.00    -0.320 OA 
HETATM   47  H   UNL     1     -10.500   1.295  65.265  1.00  0.00     0.000 HD 
ENDBRANCH  42  45
ENDBRANCH  41  42
ENDBRANCH  40  41
ENDBRANCH  37  40
ENDBRANCH  36  37
ENDBRANCH  35  36
ENDBRANCH  18  35
ENDBRANCH  17  18
ENDBRANCH  16  17
ENDBRANCH  14  16
ENDBRANCH  13  14
ENDBRANCH  12  13
ENDBRANCH  11  12
ENDBRANCH  10  11
ENDBRANCH   9  10
ENDBRANCH   8   9
ENDBRANCH   7   8
ENDBRANCH   6   7
ENDBRANCH   5   6
ENDBRANCH   4   5
ENDBRANCH   3   4
ENDBRANCH   2   3
TORSDOF 36
ENDMDL
MODEL       70
REMARK 921   NORMALIZED FREE ENERGY PREDICTED BY IDOCK:   -1.74 KCAL/MOL
REMARK 922        TOTAL FREE ENERGY PREDICTED BY IDOCK:  -10.87 KCAL/MOL
REMARK 923 INTER-LIGAND FREE ENERGY PREDICTED BY IDOCK:   -7.64 KCAL/MOL
REMARK 924 INTRA-LIGAND FREE ENERGY PREDICTED BY IDOCK:   -3.23 KCAL/MOL
REMARK 927      BINDING AFFINITY PREDICTED BY RF-SCORE:    0.00 PKD
ROOT
HETATM    1  C   UNL     1      -6.983   2.625  64.771  1.00  0.00    -0.049 C  
HETATM    2  C   UNL     1      -8.378   2.468  65.353  1.00  0.00    -0.096 C  
ENDROOT
BRANCH   2   3
HETATM    3  C   UNL     1      -8.326   1.946  66.787  1.00  0.00    -0.088 C  
BRANCH   3   4
HETATM    4  C   UNL     1      -9.231   2.760  67.711  1.00  0.00    -0.246 C  
BRANCH   4   5
HETATM    5  C   UNL     1      -9.328   2.111  69.091  1.00  0.00    -0.184 C  
BRANCH   5   6
HETATM    6  C   UNL     1      -9.395   3.164  70.197  1.00  0.00    -0.238 C  
BRANCH   6   7
HETATM    7  C   UNL     1      -8.854   2.610  71.514  1.00  0.00    -0.127 C  
BRANCH   7   8
HETATM    8  C   UNL     1      -7.855   3.573  72.149  1.00  0.00    -0.059 C  
BRANCH   8   9
HETATM    9  C   UNL     1      -8.190   3.832  73.615  1.00  0.00    -0.087 C  
BRANCH   9  10
HETATM   10  C   UNL     1      -9.692   3.692  73.859  1.00  0.00    -0.143 C  
BRANCH  10  11
HETATM   11  C   UNL     1     -10.365   5.048  74.061  1.00  0.00    -0.299 C  
BRANCH  11  12
HETATM   12  C   UNL     1     -11.220   5.400  72.845  1.00  0.00    -0.372 C  
BRANCH  12  13
HETATM   13  C   UNL     1     -10.498   6.350  71.896  1.00  0.00    -0.239 C  
BRANCH  13  14
HETATM   14  C   UNL     1     -11.494   7.101  71.045  1.00  0.00    -0.297 C  
HETATM   15  O   UNL     1     -12.272   7.951  71.458  1.00  0.00    -0.294 OA 
BRANCH  14  16
HETATM   16  O   UNL     1     -11.360   6.735  69.738  1.00  0.00    -0.309 OA 
BRANCH  16  17
HETATM   17  C   UNL     1     -10.085   7.051  69.153  1.00  0.00    -0.180 C  
BRANCH  17  18
HETATM   18  C   UNL     1     -10.165   8.319  68.292  1.00  0.00    -0.208 C  
BRANCH  18  19
HETATM   19  O   UNL     1      -9.874   7.961  66.920  1.00  0.00    -0.195 OA 
BRANCH  19  20
HETATM   20  C   UNL     1      -8.563   7.769  66.615  1.00  0.00    -0.136 C  
HETATM   21  O   UNL     1      -7.892   6.787  66.895  1.00  0.00    -0.104 OA 
BRANCH  20  22
HETATM   22  C   UNL     1      -8.034   8.952  65.842  1.00  0.00    -0.107 C  
BRANCH  22  23
HETATM   23  C   UNL     1      -9.093   9.537  64.915  1.00  0.00    -0.276 C  
BRANCH  23  24
HETATM   24  C   UNL     1      -9.638  10.876  65.419  1.00  0.00    -0.271 C  
BRANCH  24  25
HETATM   25  C   UNL     1     -10.332  11.644  64.297  1.00  0.00    -0.371 C  
BRANCH  25  26
HETATM   26  C   UNL     1     -10.853  12.988  64.797  1.00  0.00    -0.357 C  
BRANCH  26  27
HETATM   27  C   UNL     1     -11.553  12.846  66.145  1.00  0.00    -0.423 C  
BRANCH  27  28
HETATM   28  C   UNL     1     -12.299  14.128  66.508  1.00  0.00    -0.405 C  
BRANCH  28  29
HETATM   29  C   UNL     1     -11.978  14.565  67.935  1.00  0.00    -0.322 C  
BRANCH  29  30
HETATM   30  C   UNL     1     -10.494  14.886  68.087  1.00  0.00    -0.242 C  
BRANCH  30  31
HETATM   31  C   UNL     1     -10.265  16.392  68.208  1.00  0.00    -0.255 C  
BRANCH  31  32
HETATM   32  C   UNL     1      -9.452  16.920  67.027  1.00  0.00    -0.251 C  
BRANCH  32  33
HETATM   33  C   UNL     1      -7.952  16.785  67.283  1.00  0.00    -0.197 C  
HETATM   34  C   UNL     1      -7.169  16.789  65.982  1.00  0.00     0.190 C  
ENDBRANCH  32  33
ENDBRANCH  31  32
ENDBRANCH  30  31
ENDBRANCH  29  30
ENDBRANCH  28  29
ENDBRANCH  27  28
ENDBRANCH  26  27
ENDBRANCH  25  26
ENDBRANCH  24  25
ENDBRANCH  23  24
ENDBRANCH  22  23
ENDBRANCH  20  22
ENDBRANCH  19  20
ENDBRANCH  18  19
BRANCH  18  35
HETATM   35  C   UNL     1      -9.100   9.313  68.749  1.00  0.00    -0.136 C  
BRANCH  35  36
HETATM   36  O   UNL     1      -8.527   8.916  70.003  1.00  0.00    -0.121 OA 
BRANCH  36  37
HETATM   37  P   UNL     1      -6.966   9.599  70.297  1.00  0.00    -0.141 P  
HETATM   38  O   UNL     1      -7.045   9.046  71.830  1.00  0.00    -0.291 OA 
HETATM   39  O   UNL     1      -6.403   8.555  69.354  1.00  0.00    -0.037 OA 
BRANCH  37  40
HETATM   40  O   UNL     1      -5.403  10.282  70.593  1.00  0.00    -0.052 OA 
BRANCH  40  41
HETATM   41  C   UNL     1      -5.133  11.590  70.010  1.00  0.00    -0.072 C  
BRANCH  41  42
HETATM   42  C   UNL     1      -6.186  12.711  70.220  1.00  0.00     0.022 C  
HETATM   43  H   UNL     1      -7.013  13.668  71.742  1.00  0.00     0.000 HD 
HETATM   44  O   UNL     1      -6.368  12.982  71.614  1.00  0.00     0.653 OA 
BRANCH  42  45
HETATM   45  C   UNL     1      -5.847  14.013  69.479  1.00  0.00    -0.097 C  
HETATM   46  O   UNL     1      -5.768  15.116  70.392  1.00  0.00    -0.134 OA 
HETATM   47  H   UNL     1      -5.558  15.922  69.934  1.00  0.00     0.000 HD 
ENDBRANCH  42  45
ENDBRANCH  41  42
ENDBRANCH  40  41
ENDBRANCH  37  40
ENDBRANCH  36  37
ENDBRANCH  35  36
ENDBRANCH  18  35
ENDBRANCH  17  18
ENDBRANCH  16  17
ENDBRANCH  14  16
ENDBRANCH  13  14
ENDBRANCH  12  13
ENDBRANCH  11  12
ENDBRANCH  10  11
ENDBRANCH   9  10
ENDBRANCH   8   9
ENDBRANCH   7   8
ENDBRANCH   6   7
ENDBRANCH   5   6
ENDBRANCH   4   5
ENDBRANCH   3   4
ENDBRANCH   2   3
TORSDOF 36
ENDMDL
MODEL       71
REMARK 921   NORMALIZED FREE ENERGY PREDICTED BY IDOCK:   -1.65 KCAL/MOL
REMARK 922        TOTAL FREE ENERGY PREDICTED BY IDOCK:  -10.60 KCAL/MOL
REMARK 923 INTER-LIGAND FREE ENERGY PREDICTED BY IDOCK:   -7.12 KCAL/MOL
REMARK 924 INTRA-LIGAND FREE ENERGY PREDICTED BY IDOCK:   -3.48 KCAL/MOL
REMARK 927      BINDING AFFINITY PREDICTED BY RF-SCORE:    0.00 PKD
ROOT
HETATM    1  C   UNL     1     -13.124  13.123  70.462  1.00  0.00     0.241 C  
HETATM    2  C   UNL     1     -11.861  13.519  69.716  1.00  0.00    -0.395 C  
ENDROOT
BRANCH   2   3
HETATM    3  C   UNL     1     -12.113  13.620  68.212  1.00  0.00    -0.306 C  
BRANCH   3   4
HETATM    4  C   UNL     1     -10.984  12.974  67.412  1.00  0.00    -0.284 C  
BRANCH   4   5
HETATM    5  C   UNL     1     -10.330  11.843  68.205  1.00  0.00    -0.210 C  
BRANCH   5   6
HETATM    6  C   UNL     1     -10.869  10.479  67.776  1.00  0.00    -0.347 C  
BRANCH   6   7
HETATM    7  C   UNL     1     -11.086   9.571  68.986  1.00  0.00    -0.060 C  
BRANCH   7   8
HETATM    8  C   UNL     1     -10.206   9.995  70.158  1.00  0.00    -0.297 C  
BRANCH   8   9
HETATM    9  C   UNL     1      -9.153   8.934  70.471  1.00  0.00    -0.233 C  
BRANCH   9  10
HETATM   10  C   UNL     1      -9.751   7.816  71.325  1.00  0.00    -0.179 C  
BRANCH  10  11
HETATM   11  C   UNL     1     -10.125   8.305  72.723  1.00  0.00    -0.333 C  
BRANCH  11  12
HETATM   12  C   UNL     1      -8.963   8.084  73.690  1.00  0.00    -0.313 C  
BRANCH  12  13
HETATM   13  C   UNL     1      -7.763   7.443  73.001  1.00  0.00    -0.105 C  
BRANCH  13  14
HETATM   14  C   UNL     1      -6.570   8.367  73.057  1.00  0.00    -0.090 C  
HETATM   15  O   UNL     1      -6.466   9.337  73.796  1.00  0.00    -0.324 OA 
BRANCH  14  16
HETATM   16  O   UNL     1      -5.600   7.928  72.206  1.00  0.00    -0.036 OA 
BRANCH  16  17
HETATM   17  C   UNL     1      -5.305   6.524  72.302  1.00  0.00    -0.032 C  
BRANCH  17  18
HETATM   18  C   UNL     1      -5.289   5.860  70.919  1.00  0.00    -0.013 C  
BRANCH  18  19
HETATM   19  O   UNL     1      -5.855   6.785  69.960  1.00  0.00    -0.022 OA 
BRANCH  19  20
HETATM   20  C   UNL     1      -5.379   6.698  68.689  1.00  0.00    -0.016 C  
HETATM   21  O   UNL     1      -5.141   5.669  68.076  1.00  0.00    -0.003 OA 
BRANCH  20  22
HETATM   22  C   UNL     1      -5.199   8.079  68.109  1.00  0.00    -0.032 C  
BRANCH  22  23
HETATM   23  C   UNL     1      -5.272   9.155  69.186  1.00  0.00    -0.036 C  
BRANCH  23  24
HETATM   24  C   UNL     1      -5.525  10.549  68.606  1.00  0.00    -0.041 C  
BRANCH  24  25
HETATM   25  C   UNL     1      -6.484  11.345  69.489  1.00  0.00    -0.122 C  
BRANCH  25  26
HETATM   26  C   UNL     1      -6.715  12.742  68.921  1.00  0.00    -0.097 C  
BRANCH  26  27
HETATM   27  C   UNL     1      -6.496  13.817  69.982  1.00  0.00    -0.027 C  
BRANCH  27  28
HETATM   28  C   UNL     1      -7.156  15.131  69.570  1.00  0.00    -0.195 C  
BRANCH  28  29
HETATM   29  C   UNL     1      -8.656  14.949  69.354  1.00  0.00    -0.054 C  
BRANCH  29  30
HETATM   30  C   UNL     1      -9.140  15.765  68.159  1.00  0.00    -0.185 C  
BRANCH  30  31
HETATM   31  C   UNL     1      -9.759  17.087  68.608  1.00  0.00    -0.282 C  
BRANCH  31  32
HETATM   32  C   UNL     1      -9.456  18.202  67.608  1.00  0.00    -0.264 C  
BRANCH  32  33
HETATM   33  C   UNL     1     -10.645  19.147  67.456  1.00  0.00    -0.567 C  
HETATM   34  C   UNL     1     -10.371  20.213  66.409  1.00  0.00    -0.510 C  
ENDBRANCH  32  33
ENDBRANCH  31  32
ENDBRANCH  30  31
ENDBRANCH  29  30
ENDBRANCH  28  29
ENDBRANCH  27  28
ENDBRANCH  26  27
ENDBRANCH  25  26
ENDBRANCH  24  25
ENDBRANCH  23  24
ENDBRANCH  22  23
ENDBRANCH  20  22
ENDBRANCH  19  20
ENDBRANCH  18  19
BRANCH  18  35
HETATM   35  C   UNL     1      -6.173   4.615  70.941  1.00  0.00    -0.019 C  
BRANCH  35  36
HETATM   36  O   UNL     1      -7.360   4.810  70.158  1.00  0.00    -0.052 OA 
BRANCH  36  37
HETATM   37  P   UNL     1      -8.654   3.745  70.587  1.00  0.00    -0.077 P  
HETATM   38  O   UNL     1      -8.885   3.435  69.002  1.00  0.00    -0.087 OA 
HETATM   39  O   UNL     1      -7.612   2.827  71.191  1.00  0.00    -0.036 OA 
BRANCH  37  40
HETATM   40  O   UNL     1      -9.949   2.680  71.015  1.00  0.00    -0.068 OA 
BRANCH  40  41
HETATM   41  C   UNL     1     -10.189   2.470  72.437  1.00  0.00    -0.148 C  
BRANCH  41  42
HETATM   42  C   UNL     1     -10.615   3.695  73.291  1.00  0.00    -0.188 C  
HETATM   43  H   UNL     1      -9.820   4.836  74.699  1.00  0.00     0.000 HD 
HETATM   44  O   UNL     1      -9.559   4.087  74.176  1.00  0.00    -0.104 OA 
BRANCH  42  45
HETATM   45  C   UNL     1     -11.061   4.900  72.451  1.00  0.00    -0.041 C  
HETATM   46  O   UNL     1     -12.280   5.457  72.961  1.00  0.00    -0.533 OA 
HETATM   47  H   UNL     1     -12.556   6.203  72.441  1.00  0.00     0.000 HD 
ENDBRANCH  42  45
ENDBRANCH  41  42
ENDBRANCH  40  41
ENDBRANCH  37  40
ENDBRANCH  36  37
ENDBRANCH  35  36
ENDBRANCH  18  35
ENDBRANCH  17  18
ENDBRANCH  16  17
ENDBRANCH  14  16
ENDBRANCH  13  14
ENDBRANCH  12  13
ENDBRANCH  11  12
ENDBRANCH  10  11
ENDBRANCH   9  10
ENDBRANCH   8   9
ENDBRANCH   7   8
ENDBRANCH   6   7
ENDBRANCH   5   6
ENDBRANCH   4   5
ENDBRANCH   3   4
ENDBRANCH   2   3
TORSDOF 36
ENDMDL
MODEL       72
REMARK 921   NORMALIZED FREE ENERGY PREDICTED BY IDOCK:   -1.42 KCAL/MOL
REMARK 922        TOTAL FREE ENERGY PREDICTED BY IDOCK:   -9.89 KCAL/MOL
REMARK 923 INTER-LIGAND FREE ENERGY PREDICTED BY IDOCK:   -7.22 KCAL/MOL
REMARK 924 INTRA-LIGAND FREE ENERGY PREDICTED BY IDOCK:   -2.67 KCAL/MOL
REMARK 927      BINDING AFFINITY PREDICTED BY RF-SCORE:    0.00 PKD
ROOT
HETATM    1  C   UNL     1      -5.577   8.824  72.662  1.00  0.00    -0.071 C  
HETATM    2  C   UNL     1      -6.848   8.077  72.293  1.00  0.00    -0.077 C  
ENDROOT
BRANCH   2   3
HETATM    3  C   UNL     1      -6.532   6.755  71.595  1.00  0.00    -0.045 C  
BRANCH   3   4
HETATM    4  C   UNL     1      -6.925   5.558  72.461  1.00  0.00    -0.083 C  
BRANCH   4   5
HETATM    5  C   UNL     1      -7.859   4.618  71.701  1.00  0.00    -0.097 C  
BRANCH   5   6
HETATM    6  C   UNL     1      -7.090   3.455  71.077  1.00  0.00    -0.033 C  
BRANCH   6   7
HETATM    7  C   UNL     1      -7.960   2.201  70.999  1.00  0.00    -0.050 C  
BRANCH   7   8
HETATM    8  C   UNL     1      -9.416   2.558  70.710  1.00  0.00    -0.210 C  
BRANCH   8   9
HETATM    9  C   UNL     1      -9.748   2.371  69.232  1.00  0.00     0.111 C  
BRANCH   9  10
HETATM   10  C   UNL     1      -9.765   3.716  68.507  1.00  0.00    -0.063 C  
BRANCH  10  11
HETATM   11  C   UNL     1      -8.569   3.873  67.570  1.00  0.00    -0.111 C  
BRANCH  11  12
HETATM   12  C   UNL     1      -8.156   5.341  67.481  1.00  0.00    -0.100 C  
BRANCH  12  13
HETATM   13  C   UNL     1      -8.825   6.051  66.310  1.00  0.00    -0.144 C  
BRANCH  13  14
HETATM   14  C   UNL     1     -10.092   6.737  66.765  1.00  0.00    -0.183 C  
HETATM   15  O   UNL     1     -11.120   6.163  67.101  1.00  0.00    -0.333 OA 
BRANCH  14  16
HETATM   16  O   UNL     1      -9.904   8.086  66.804  1.00  0.00    -0.213 OA 
BRANCH  16  17
HETATM   17  C   UNL     1      -8.585   8.498  67.202  1.00  0.00    -0.122 C  
BRANCH  17  18
HETATM   18  C   UNL     1      -8.440   8.512  68.730  1.00  0.00    -0.123 C  
BRANCH  18  19
HETATM   19  O   UNL     1      -9.732   8.810  69.310  1.00  0.00    -0.167 OA 
BRANCH  19  20
HETATM   20  C   UNL     1     -10.169   7.956  70.274  1.00  0.00    -0.200 C  
HETATM   21  O   UNL     1     -10.679   6.861  70.091  1.00  0.00    -0.218 OA 
BRANCH  20  22
HETATM   22  C   UNL     1      -9.914   8.544  71.639  1.00  0.00    -0.329 C  
BRANCH  22  23
HETATM   23  C   UNL     1     -11.203   9.019  72.297  1.00  0.00    -0.160 C  
BRANCH  23  24
HETATM   24  C   UNL     1     -12.440   8.718  71.448  1.00  0.00    -0.348 C  
BRANCH  24  25
HETATM   25  C   UNL     1     -13.149  10.005  71.031  1.00  0.00    -0.435 C  
BRANCH  25  26
HETATM   26  C   UNL     1     -12.200  11.198  71.104  1.00  0.00    -0.387 C  
BRANCH  26  27
HETATM   27  C   UNL     1     -12.764  12.404  70.358  1.00  0.00     0.033 C  
BRANCH  27  28
HETATM   28  C   UNL     1     -11.648  13.195  69.681  1.00  0.00    -0.321 C  
BRANCH  28  29
HETATM   29  C   UNL     1     -12.100  13.733  68.326  1.00  0.00    -0.314 C  
BRANCH  29  30
HETATM   30  C   UNL     1     -11.074  14.707  67.754  1.00  0.00    -0.306 C  
BRANCH  30  31
HETATM   31  C   UNL     1     -10.940  15.947  68.635  1.00  0.00    -0.320 C  
BRANCH  31  32
HETATM   32  C   UNL     1     -10.720  17.200  67.789  1.00  0.00    -0.329 C  
BRANCH  32  33
HETATM   33  C   UNL     1     -10.329  18.393  68.657  1.00  0.00    -0.286 C  
HETATM   34  C   UNL     1      -9.273  19.247  67.976  1.00  0.00    -0.375 C  
ENDBRANCH  32  33
ENDBRANCH  31  32
ENDBRANCH  30  31
ENDBRANCH  29  30
ENDBRANCH  28  29
ENDBRANCH  27  28
ENDBRANCH  26  27
ENDBRANCH  25  26
ENDBRANCH  24  25
ENDBRANCH  23  24
ENDBRANCH  22  23
ENDBRANCH  20  22
ENDBRANCH  19  20
ENDBRANCH  18  19
BRANCH  18  35
HETATM   35  C   UNL     1      -7.479   9.624  69.140  1.00  0.00    -0.079 C  
BRANCH  35  36
HETATM   36  O   UNL     1      -7.173  10.480  68.030  1.00  0.00    -0.085 OA 
BRANCH  36  37
HETATM   37  P   UNL     1      -6.991  12.143  68.467  1.00  0.00    -0.102 P  
HETATM   38  O   UNL     1      -8.323  12.013  69.400  1.00  0.00     0.498 OA 
HETATM   39  O   UNL     1      -5.739  11.741  69.220  1.00  0.00    -0.056 OA 
BRANCH  37  40
HETATM   40  O   UNL     1      -6.810  13.807  68.905  1.00  0.00    -0.101 OA 
BRANCH  40  41
HETATM   41  C   UNL     1      -6.458  14.737  67.840  1.00  0.00    -0.162 C  
BRANCH  41  42
HETATM   42  C   UNL     1      -7.091  16.154  67.872  1.00  0.00    -0.132 C  
HETATM   43  H   UNL     1      -7.910  17.354  69.217  1.00  0.00     0.000 HD 
HETATM   44  O   UNL     1      -7.523  16.486  69.197  1.00  0.00    -0.226 OA 
BRANCH  42  45
HETATM   45  C   UNL     1      -6.158  17.252  67.341  1.00  0.00    -0.141 C  
HETATM   46  O   UNL     1      -5.787  16.996  65.980  1.00  0.00    -0.225 OA 
HETATM   47  H   UNL     1      -5.210  17.675  65.652  1.00  0.00     0.000 HD 
ENDBRANCH  42  45
ENDBRANCH  41  42
ENDBRANCH  40  41
ENDBRANCH  37  40
ENDBRANCH  36  37
ENDBRANCH  35  36
ENDBRANCH  18  35
ENDBRANCH  17  18
ENDBRANCH  16  17
ENDBRANCH  14  16
ENDBRANCH  13  14
ENDBRANCH  12  13
ENDBRANCH  11  12
ENDBRANCH  10  11
ENDBRANCH   9  10
ENDBRANCH   8   9
ENDBRANCH   7   8
ENDBRANCH   6   7
ENDBRANCH   5   6
ENDBRANCH   4   5
ENDBRANCH   3   4
ENDBRANCH   2   3
TORSDOF 36
ENDMDL
MODEL       73
REMARK 921   NORMALIZED FREE ENERGY PREDICTED BY IDOCK:   -1.39 KCAL/MOL
REMARK 922        TOTAL FREE ENERGY PREDICTED BY IDOCK:   -9.78 KCAL/MOL
REMARK 923 INTER-LIGAND FREE ENERGY PREDICTED BY IDOCK:   -4.87 KCAL/MOL
REMARK 924 INTRA-LIGAND FREE ENERGY PREDICTED BY IDOCK:   -4.92 KCAL/MOL
REMARK 927      BINDING AFFINITY PREDICTED BY RF-SCORE:    0.00 PKD
ROOT
HETATM    1  C   UNL     1     -13.116  12.341  70.149  1.00  0.00     0.836 C  
HETATM    2  C   UNL     1     -11.775  12.778  69.582  1.00  0.00    -0.372 C  
ENDROOT
BRANCH   2   3
HETATM    3  C   UNL     1     -11.813  12.846  68.057  1.00  0.00    -0.390 C  
BRANCH   3   4
HETATM    4  C   UNL     1     -10.561  12.224  67.439  1.00  0.00    -0.247 C  
BRANCH   4   5
HETATM    5  C   UNL     1      -9.944  11.190  68.378  1.00  0.00    -0.193 C  
BRANCH   5   6
HETATM    6  C   UNL     1     -10.560   9.808  68.166  1.00  0.00    -0.276 C  
BRANCH   6   7
HETATM    7  C   UNL     1     -10.641   9.036  69.482  1.00  0.00    -0.231 C  
BRANCH   7   8
HETATM    8  C   UNL     1      -9.585   9.520  70.471  1.00  0.00    -0.312 C  
BRANCH   8   9
HETATM    9  C   UNL     1      -8.652   8.385  70.884  1.00  0.00    -0.167 C  
BRANCH   9  10
HETATM   10  C   UNL     1      -9.231   7.614  72.070  1.00  0.00    -0.176 C  
BRANCH  10  11
HETATM   11  C   UNL     1      -9.073   8.382  73.380  1.00  0.00    -0.145 C  
BRANCH  11  12
HETATM   12  C   UNL     1      -7.774   7.978  74.077  1.00  0.00    -0.245 C  
BRANCH  12  13
HETATM   13  C   UNL     1      -7.021   6.904  73.300  1.00  0.00    -0.074 C  
BRANCH  13  14
HETATM   14  C   UNL     1      -5.697   7.443  72.809  1.00  0.00    -0.040 C  
HETATM   15  O   UNL     1      -5.185   8.491  73.178  1.00  0.00    -0.043 OA 
BRANCH  14  16
HETATM   16  O   UNL     1      -5.129   6.561  71.938  1.00  0.00    -0.025 OA 
BRANCH  16  17
HETATM   17  C   UNL     1      -5.175   5.187  72.358  1.00  0.00    -0.008 C  
BRANCH  17  18
HETATM   18  C   UNL     1      -5.504   4.255  71.184  1.00  0.00    -0.008 C  
BRANCH  18  19
HETATM   19  O   UNL     1      -5.990   5.058  70.083  1.00  0.00    -0.016 OA 
BRANCH  19  20
HETATM   20  C   UNL     1      -5.574   4.690  68.842  1.00  0.00    -0.012 C  
HETATM   21  O   UNL     1      -5.401   3.546  68.448  1.00  0.00    -0.011 OA 
BRANCH  20  22
HETATM   22  C   UNL     1      -5.371   5.912  67.981  1.00  0.00    -0.004 C  
BRANCH  22  23
HETATM   23  C   UNL     1      -5.656   7.196  68.751  1.00  0.00    -0.018 C  
BRANCH  23  24
HETATM   24  C   UNL     1      -5.944   8.381  67.827  1.00  0.00    -0.047 C  
BRANCH  24  25
HETATM   25  C   UNL     1      -6.281   9.636  68.630  1.00  0.00    -0.043 C  
BRANCH  25  26
HETATM   26  C   UNL     1      -6.449  10.843  67.713  1.00  0.00    -0.063 C  
BRANCH  26  27
HETATM   27  C   UNL     1      -5.665  10.668  66.415  1.00  0.00    -0.087 C  
BRANCH  27  28
HETATM   28  C   UNL     1      -6.590  10.261  65.271  1.00  0.00    -0.119 C  
BRANCH  28  29
HETATM   29  C   UNL     1      -8.034  10.659  65.564  1.00  0.00    -0.116 C  
BRANCH  29  30
HETATM   30  C   UNL     1      -8.986   9.496  65.299  1.00  0.00    -0.244 C  
BRANCH  30  31
HETATM   31  C   UNL     1      -8.271   8.350  64.583  1.00  0.00    -0.157 C  
BRANCH  31  32
HETATM   32  C   UNL     1      -8.278   7.083  65.436  1.00  0.00    -0.133 C  
BRANCH  32  33
HETATM   33  C   UNL     1      -9.240   7.214  66.614  1.00  0.00    -0.193 C  
HETATM   34  C   UNL     1      -8.938   6.182  67.689  1.00  0.00    -0.111 C  
ENDBRANCH  32  33
ENDBRANCH  31  32
ENDBRANCH  30  31
ENDBRANCH  29  30
ENDBRANCH  28  29
ENDBRANCH  27  28
ENDBRANCH  26  27
ENDBRANCH  25  26
ENDBRANCH  24  25
ENDBRANCH  23  24
ENDBRANCH  22  23
ENDBRANCH  20  22
ENDBRANCH  19  20
ENDBRANCH  18  19
BRANCH  18  35
HETATM   35  C   UNL     1      -6.623   3.299  71.592  1.00  0.00    -0.022 C  
BRANCH  35  36
HETATM   36  O   UNL     1      -7.754   3.425  70.718  1.00  0.00    -0.040 OA 
BRANCH  36  37
HETATM   37  P   UNL     1      -9.256   3.010  71.467  1.00  0.00    -0.139 P  
HETATM   38  O   UNL     1      -9.772   2.417  70.037  1.00  0.00    -0.043 OA 
HETATM   39  O   UNL     1      -8.497   1.968  72.264  1.00  0.00    -0.053 OA 
BRANCH  37  40
HETATM   40  O   UNL     1     -10.760   2.594  72.216  1.00  0.00     0.020 OA 
BRANCH  40  41
HETATM   41  C   UNL     1     -10.813   2.655  73.671  1.00  0.00    -0.195 C  
BRANCH  41  42
HETATM   42  C   UNL     1     -10.384   3.978  74.360  1.00  0.00    -0.222 C  
HETATM   43  H   UNL     1      -8.695   4.914  74.795  1.00  0.00     0.000 HD 
HETATM   44  O   UNL     1      -8.958   4.104  74.373  1.00  0.00    -0.100 OA 
BRANCH  42  45
HETATM   45  C   UNL     1     -11.008   5.229  73.723  1.00  0.00    -0.201 C  
HETATM   46  O   UNL     1     -12.253   4.913  73.087  1.00  0.00    -0.379 OA 
HETATM   47  H   UNL     1     -12.639   5.687  72.693  1.00  0.00     0.000 HD 
ENDBRANCH  42  45
ENDBRANCH  41  42
ENDBRANCH  40  41
ENDBRANCH  37  40
ENDBRANCH  36  37
ENDBRANCH  35  36
ENDBRANCH  18  35
ENDBRANCH  17  18
ENDBRANCH  16  17
ENDBRANCH  14  16
ENDBRANCH  13  14
ENDBRANCH  12  13
ENDBRANCH  11  12
ENDBRANCH  10  11
ENDBRANCH   9  10
ENDBRANCH   8   9
ENDBRANCH   7   8
ENDBRANCH   6   7
ENDBRANCH   5   6
ENDBRANCH   4   5
ENDBRANCH   3   4
ENDBRANCH   2   3
TORSDOF 36
ENDMDL
MODEL       74
REMARK 921   NORMALIZED FREE ENERGY PREDICTED BY IDOCK:   -1.34 KCAL/MOL
REMARK 922        TOTAL FREE ENERGY PREDICTED BY IDOCK:   -9.64 KCAL/MOL
REMARK 923 INTER-LIGAND FREE ENERGY PREDICTED BY IDOCK:   -6.34 KCAL/MOL
REMARK 924 INTRA-LIGAND FREE ENERGY PREDICTED BY IDOCK:   -3.31 KCAL/MOL
REMARK 927      BINDING AFFINITY PREDICTED BY RF-SCORE:    0.00 PKD
ROOT
HETATM    1  C   UNL     1      -6.504  13.976  67.435  1.00  0.00     0.094 C  
HETATM    2  C   UNL     1      -6.007  12.549  67.269  1.00  0.00    -0.111 C  
ENDROOT
BRANCH   2   3
HETATM    3  C   UNL     1      -5.507  11.978  68.595  1.00  0.00    -0.049 C  
BRANCH   3   4
HETATM    4  C   UNL     1      -5.671  10.460  68.646  1.00  0.00    -0.041 C  
BRANCH   4   5
HETATM    5  C   UNL     1      -6.848  10.008  67.783  1.00  0.00    -0.076 C  
BRANCH   5   6
HETATM    6  C   UNL     1      -8.162  10.065  68.560  1.00  0.00    -0.108 C  
BRANCH   6   7
HETATM    7  C   UNL     1      -7.905  10.203  70.061  1.00  0.00    -0.131 C  
BRANCH   7   8
HETATM    8  C   UNL     1      -8.547   9.057  70.837  1.00  0.00    -0.263 C  
BRANCH   8   9
HETATM    9  C   UNL     1      -7.658   7.816  70.830  1.00  0.00    -0.078 C  
BRANCH   9  10
HETATM   10  C   UNL     1      -6.287   8.131  71.429  1.00  0.00    -0.037 C  
BRANCH  10  11
HETATM   11  C   UNL     1      -5.379   6.904  71.448  1.00  0.00    -0.027 C  
BRANCH  11  12
HETATM   12  C   UNL     1      -5.534   6.151  72.769  1.00  0.00    -0.036 C  
BRANCH  12  13
HETATM   13  C   UNL     1      -6.629   5.092  72.695  1.00  0.00    -0.056 C  
BRANCH  13  14
HETATM   14  C   UNL     1      -6.337   3.966  73.660  1.00  0.00    -0.032 C  
HETATM   15  O   UNL     1      -5.286   3.340  73.712  1.00  0.00     0.000 OA 
BRANCH  14  16
HETATM   16  O   UNL     1      -7.393   3.788  74.503  1.00  0.00    -0.056 OA 
BRANCH  16  17
HETATM   17  C   UNL     1      -8.522   4.641  74.241  1.00  0.00    -0.104 C  
BRANCH  17  18
HETATM   18  C   UNL     1      -9.814   3.826  74.094  1.00  0.00    -0.116 C  
BRANCH  18  19
HETATM   19  O   UNL     1      -9.475   2.516  73.580  1.00  0.00    -0.083 OA 
BRANCH  19  20
HETATM   20  C   UNL     1     -10.054   2.166  72.401  1.00  0.00    -0.157 C  
HETATM   21  O   UNL     1     -11.048   1.467  72.263  1.00  0.00    -0.012 OA 
BRANCH  20  22
HETATM   22  C   UNL     1      -9.303   2.789  71.251  1.00  0.00    -0.208 C  
BRANCH  22  23
HETATM   23  C   UNL     1      -9.393   1.935  69.992  1.00  0.00    -0.167 C  
BRANCH  23  24
HETATM   24  C   UNL     1      -8.875   2.665  68.750  1.00  0.00    -0.154 C  
BRANCH  24  25
HETATM   25  C   UNL     1      -7.771   3.656  69.116  1.00  0.00    -0.052 C  
BRANCH  25  26
HETATM   26  C   UNL     1      -7.624   4.730  68.042  1.00  0.00    -0.082 C  
BRANCH  26  27
HETATM   27  C   UNL     1      -8.324   6.022  68.450  1.00  0.00    -0.113 C  
BRANCH  27  28
HETATM   28  C   UNL     1      -9.530   6.294  67.554  1.00  0.00    -0.115 C  
BRANCH  28  29
HETATM   29  C   UNL     1      -9.404   5.554  66.225  1.00  0.00    -0.166 C  
BRANCH  29  30
HETATM   30  C   UNL     1      -8.308   6.168  65.358  1.00  0.00    -0.150 C  
BRANCH  30  31
HETATM   31  C   UNL     1      -8.166   7.666  65.629  1.00  0.00    -0.136 C  
BRANCH  31  32
HETATM   32  C   UNL     1      -7.994   8.444  64.325  1.00  0.00    -0.149 C  
BRANCH  32  33
HETATM   33  C   UNL     1      -9.052   9.537  64.190  1.00  0.00    -0.203 C  
HETATM   34  C   UNL     1      -9.139  10.044  62.760  1.00  0.00    -0.304 C  
ENDBRANCH  32  33
ENDBRANCH  31  32
ENDBRANCH  30  31
ENDBRANCH  29  30
ENDBRANCH  28  29
ENDBRANCH  27  28
ENDBRANCH  26  27
ENDBRANCH  25  26
ENDBRANCH  24  25
ENDBRANCH  23  24
ENDBRANCH  22  23
ENDBRANCH  20  22
ENDBRANCH  19  20
ENDBRANCH  18  19
BRANCH  18  35
HETATM   35  C   UNL     1     -10.729   4.503  73.076  1.00  0.00    -0.225 C  
BRANCH  35  36
HETATM   36  O   UNL     1     -11.011   5.858  73.454  1.00  0.00    -0.260 OA 
BRANCH  36  37
HETATM   37  P   UNL     1     -11.636   6.821  72.161  1.00  0.00    -0.267 P  
HETATM   38  O   UNL     1     -10.668   6.010  71.128  1.00  0.00    -0.241 OA 
HETATM   39  O   UNL     1     -12.961   6.113  72.359  1.00  0.00     0.009 OA 
BRANCH  37  40
HETATM   40  O   UNL     1     -12.261   7.785  70.866  1.00  0.00    -0.257 OA 
BRANCH  40  41
HETATM   41  C   UNL     1     -12.985   8.995  71.233  1.00  0.00    -0.230 C  
BRANCH  41  42
HETATM   42  C   UNL     1     -12.191  10.328  71.294  1.00  0.00    -0.395 C  
HETATM   43  H   UNL     1     -11.096  11.429  70.067  1.00  0.00     0.000 HD 
HETATM   44  O   UNL     1     -11.582  10.613  70.029  1.00  0.00    -0.271 OA 
BRANCH  42  45
HETATM   45  C   UNL     1     -13.041  11.525  71.742  1.00  0.00    -0.398 C  
HETATM   46  O   UNL     1     -12.681  12.709  71.018  1.00  0.00    -0.324 OA 
HETATM   47  H   UNL     1     -13.207  13.450  71.295  1.00  0.00     0.000 HD 
ENDBRANCH  42  45
ENDBRANCH  41  42
ENDBRANCH  40  41
ENDBRANCH  37  40
ENDBRANCH  36  37
ENDBRANCH  35  36
ENDBRANCH  18  35
ENDBRANCH  17  18
ENDBRANCH  16  17
ENDBRANCH  14  16
ENDBRANCH  13  14
ENDBRANCH  12  13
ENDBRANCH  11  12
ENDBRANCH  10  11
ENDBRANCH   9  10
ENDBRANCH   8   9
ENDBRANCH   7   8
ENDBRANCH   6   7
ENDBRANCH   5   6
ENDBRANCH   4   5
ENDBRANCH   3   4
ENDBRANCH   2   3
TORSDOF 36
ENDMDL
MODEL       75
REMARK 921   NORMALIZED FREE ENERGY PREDICTED BY IDOCK:   -1.33 KCAL/MOL
REMARK 922        TOTAL FREE ENERGY PREDICTED BY IDOCK:   -9.59 KCAL/MOL
REMARK 923 INTER-LIGAND FREE ENERGY PREDICTED BY IDOCK:   -5.54 KCAL/MOL
REMARK 924 INTRA-LIGAND FREE ENERGY PREDICTED BY IDOCK:   -4.06 KCAL/MOL
REMARK 927      BINDING AFFINITY PREDICTED BY RF-SCORE:    0.00 PKD
ROOT
HETATM    1  C   UNL     1      -6.222  13.149  67.170  1.00  0.00     0.334 C  
HETATM    2  C   UNL     1      -5.798  11.734  66.814  1.00  0.00    -0.110 C  
ENDROOT
BRANCH   2   3
HETATM    3  C   UNL     1      -5.195  11.015  68.020  1.00  0.00    -0.039 C  
BRANCH   3   4
HETATM    4  C   UNL     1      -5.580   9.536  68.038  1.00  0.00    -0.040 C  
BRANCH   4   5
HETATM    5  C   UNL     1      -7.000   9.335  67.511  1.00  0.00    -0.078 C  
BRANCH   5   6
HETATM    6  C   UNL     1      -8.042   9.766  68.543  1.00  0.00    -0.104 C  
BRANCH   6   7
HETATM    7  C   UNL     1      -7.401   9.973  69.915  1.00  0.00    -0.163 C  
BRANCH   7   8
HETATM    8  C   UNL     1      -8.036   9.063  70.963  1.00  0.00    -0.186 C  
BRANCH   8   9
HETATM    9  C   UNL     1      -7.593   7.613  70.779  1.00  0.00    -0.080 C  
BRANCH   9  10
HETATM   10  C   UNL     1      -6.068   7.516  70.742  1.00  0.00    -0.035 C  
BRANCH  10  11
HETATM   11  C   UNL     1      -5.595   6.102  70.408  1.00  0.00    -0.014 C  
BRANCH  11  12
HETATM   12  C   UNL     1      -5.571   5.240  71.669  1.00  0.00    -0.009 C  
BRANCH  12  13
HETATM   13  C   UNL     1      -6.918   4.579  71.933  1.00  0.00    -0.054 C  
BRANCH  13  14
HETATM   14  C   UNL     1      -6.727   3.274  72.671  1.00  0.00    -0.026 C  
HETATM   15  O   UNL     1      -6.022   2.349  72.292  1.00  0.00    -0.008 OA 
BRANCH  14  16
HETATM   16  O   UNL     1      -7.410   3.302  73.851  1.00  0.00    -0.049 OA 
BRANCH  16  17
HETATM   17  C   UNL     1      -8.278   4.436  74.017  1.00  0.00    -0.096 C  
BRANCH  17  18
HETATM   18  C   UNL     1      -9.651   4.014  74.559  1.00  0.00    -0.117 C  
BRANCH  18  19
HETATM   19  O   UNL     1      -9.915   2.656  74.133  1.00  0.00    -0.096 OA 
BRANCH  19  20
HETATM   20  C   UNL     1     -10.845   2.504  73.153  1.00  0.00    -0.148 C  
HETATM   21  O   UNL     1     -12.021   2.215  73.313  1.00  0.00    -0.065 OA 
BRANCH  20  22
HETATM   22  C   UNL     1     -10.223   2.770  71.804  1.00  0.00     0.011 C  
BRANCH  22  23
HETATM   23  C   UNL     1      -9.447   1.561  71.295  1.00  0.00    -0.190 C  
BRANCH  23  24
HETATM   24  C   UNL     1      -8.836   1.798  69.912  1.00  0.00    -0.118 C  
BRANCH  24  25
HETATM   25  C   UNL     1      -9.348   3.101  69.300  1.00  0.00    -0.223 C  
BRANCH  25  26
HETATM   26  C   UNL     1      -8.967   3.198  67.826  1.00  0.00    -0.188 C  
BRANCH  26  27
HETATM   27  C   UNL     1      -7.835   2.236  67.480  1.00  0.00    -0.060 C  
BRANCH  27  28
HETATM   28  C   UNL     1      -7.443   2.363  66.010  1.00  0.00    -0.067 C  
BRANCH  28  29
HETATM   29  C   UNL     1      -5.934   2.536  65.857  1.00  0.00    -0.023 C  
BRANCH  29  30
HETATM   30  C   UNL     1      -5.480   3.889  66.398  1.00  0.00    -0.013 C  
BRANCH  30  31
HETATM   31  C   UNL     1      -5.243   4.885  65.263  1.00  0.00    -0.012 C  
BRANCH  31  32
HETATM   32  C   UNL     1      -5.882   6.236  65.579  1.00  0.00    -0.025 C  
BRANCH  32  33
HETATM   33  C   UNL     1      -7.364   6.083  65.913  1.00  0.00    -0.076 C  
HETATM   34  C   UNL     1      -8.194   5.881  64.657  1.00  0.00    -0.120 C  
ENDBRANCH  32  33
ENDBRANCH  31  32
ENDBRANCH  30  31
ENDBRANCH  29  30
ENDBRANCH  28  29
ENDBRANCH  27  28
ENDBRANCH  26  27
ENDBRANCH  25  26
ENDBRANCH  24  25
ENDBRANCH  23  24
ENDBRANCH  22  23
ENDBRANCH  20  22
ENDBRANCH  19  20
ENDBRANCH  18  19
BRANCH  18  35
HETATM   35  C   UNL     1     -10.732   4.908  73.958  1.00  0.00    -0.294 C  
BRANCH  35  36
HETATM   36  O   UNL     1     -10.160   6.077  73.354  1.00  0.00    -0.176 OA 
BRANCH  36  37
HETATM   37  P   UNL     1     -11.194   6.832  72.192  1.00  0.00    -0.283 P  
HETATM   38  O   UNL     1     -12.400   5.839  72.663  1.00  0.00    -0.108 OA 
HETATM   39  O   UNL     1     -11.133   8.082  73.045  1.00  0.00    -0.382 OA 
BRANCH  37  40
HETATM   40  O   UNL     1     -12.229   7.587  71.029  1.00  0.00    -0.309 OA 
BRANCH  40  41
HETATM   41  C   UNL     1     -13.299   8.431  71.545  1.00  0.00    -0.286 C  
BRANCH  41  42
HETATM   42  C   UNL     1     -13.330   9.919  71.103  1.00  0.00    -0.301 C  
HETATM   43  H   UNL     1     -13.668  11.681  71.938  1.00  0.00     0.000 HD 
HETATM   44  O   UNL     1     -13.649  10.770  72.209  1.00  0.00    -0.244 OA 
BRANCH  42  45
HETATM   45  C   UNL     1     -12.024  10.388  70.447  1.00  0.00    -0.320 C  
HETATM   46  O   UNL     1     -12.048  10.159  69.032  1.00  0.00    -0.545 OA 
HETATM   47  H   UNL     1     -11.240  10.449  68.627  1.00  0.00     0.000 HD 
ENDBRANCH  42  45
ENDBRANCH  41  42
ENDBRANCH  40  41
ENDBRANCH  37  40
ENDBRANCH  36  37
ENDBRANCH  35  36
ENDBRANCH  18  35
ENDBRANCH  17  18
ENDBRANCH  16  17
ENDBRANCH  14  16
ENDBRANCH  13  14
ENDBRANCH  12  13
ENDBRANCH  11  12
ENDBRANCH  10  11
ENDBRANCH   9  10
ENDBRANCH   8   9
ENDBRANCH   7   8
ENDBRANCH   6   7
ENDBRANCH   5   6
ENDBRANCH   4   5
ENDBRANCH   3   4
ENDBRANCH   2   3
TORSDOF 36
ENDMDL
MODEL       76
REMARK 921   NORMALIZED FREE ENERGY PREDICTED BY IDOCK:   -1.28 KCAL/MOL
REMARK 922        TOTAL FREE ENERGY PREDICTED BY IDOCK:   -9.45 KCAL/MOL
REMARK 923 INTER-LIGAND FREE ENERGY PREDICTED BY IDOCK:   -6.94 KCAL/MOL
REMARK 924 INTRA-LIGAND FREE ENERGY PREDICTED BY IDOCK:   -2.51 KCAL/MOL
REMARK 927      BINDING AFFINITY PREDICTED BY RF-SCORE:    0.00 PKD
ROOT
HETATM    1  C   UNL     1      -5.440   9.708  71.587  1.00  0.00    -0.072 C  
HETATM    2  C   UNL     1      -6.571   8.897  70.977  1.00  0.00    -0.069 C  
ENDROOT
BRANCH   2   3
HETATM    3  C   UNL     1      -6.035   7.811  70.046  1.00  0.00    -0.023 C  
BRANCH   3   4
HETATM    4  C   UNL     1      -6.189   6.421  70.662  1.00  0.00    -0.039 C  
BRANCH   4   5
HETATM    5  C   UNL     1      -6.652   5.407  69.617  1.00  0.00    -0.046 C  
BRANCH   5   6
HETATM    6  C   UNL     1      -5.526   4.446  69.238  1.00  0.00    -0.012 C  
BRANCH   6   7
HETATM    7  C   UNL     1      -6.086   3.160  68.631  1.00  0.00    -0.028 C  
BRANCH   7   8
HETATM    8  C   UNL     1      -7.321   3.444  67.781  1.00  0.00    -0.058 C  
BRANCH   8   9
HETATM    9  C   UNL     1      -6.941   3.742  66.333  1.00  0.00    -0.059 C  
BRANCH   9  10
HETATM   10  C   UNL     1      -6.937   5.248  66.074  1.00  0.00    -0.067 C  
BRANCH  10  11
HETATM   11  C   UNL     1      -5.563   5.748  65.636  1.00  0.00    -0.013 C  
BRANCH  11  12
HETATM   12  C   UNL     1      -5.448   7.254  65.869  1.00  0.00    -0.028 C  
BRANCH  12  13
HETATM   13  C   UNL     1      -5.889   8.054  64.648  1.00  0.00    -0.045 C  
BRANCH  13  14
HETATM   14  C   UNL     1      -7.282   8.601  64.854  1.00  0.00    -0.084 C  
HETATM   15  O   UNL     1      -8.297   7.924  64.945  1.00  0.00    -0.142 OA 
BRANCH  14  16
HETATM   16  O   UNL     1      -7.235   9.958  64.982  1.00  0.00    -0.121 OA 
BRANCH  16  17
HETATM   17  C   UNL     1      -6.194  10.445  65.845  1.00  0.00    -0.118 C  
BRANCH  17  18
HETATM   18  C   UNL     1      -6.591  10.324  67.323  1.00  0.00    -0.068 C  
BRANCH  18  19
HETATM   19  O   UNL     1      -8.014  10.560  67.436  1.00  0.00    -0.109 OA 
BRANCH  19  20
HETATM   20  C   UNL     1      -8.731   9.605  68.087  1.00  0.00    -0.119 C  
HETATM   21  O   UNL     1      -9.064   8.519  67.636  1.00  0.00    -0.134 OA 
BRANCH  20  22
HETATM   22  C   UNL     1      -9.053  10.065  69.487  1.00  0.00    -0.236 C  
BRANCH  22  23
HETATM   23  C   UNL     1     -10.501  10.523  69.610  1.00  0.00    -0.257 C  
BRANCH  23  24
HETATM   24  C   UNL     1     -11.297  10.304  68.321  1.00  0.00    -0.245 C  
BRANCH  24  25
HETATM   25  C   UNL     1     -12.000  11.587  67.883  1.00  0.00    -0.145 C  
BRANCH  25  26
HETATM   26  C   UNL     1     -11.262  12.818  68.403  1.00  0.00    -0.313 C  
BRANCH  26  27
HETATM   27  C   UNL     1     -11.797  14.096  67.765  1.00  0.00    -0.414 C  
BRANCH  27  28
HETATM   28  C   UNL     1     -10.670  15.097  67.524  1.00  0.00    -0.284 C  
BRANCH  28  29
HETATM   29  C   UNL     1     -10.445  15.323  66.031  1.00  0.00    -0.328 C  
BRANCH  29  30
HETATM   30  C   UNL     1      -9.514  16.508  65.791  1.00  0.00    -0.149 C  
BRANCH  30  31
HETATM   31  C   UNL     1     -10.275  17.831  65.869  1.00  0.00    -0.231 C  
BRANCH  31  32
HETATM   32  C   UNL     1      -9.469  18.882  66.631  1.00  0.00    -0.357 C  
BRANCH  32  33
HETATM   33  C   UNL     1     -10.364  20.022  67.114  1.00  0.00    -0.554 C  
HETATM   34  C   UNL     1     -10.398  20.090  68.631  1.00  0.00    -0.370 C  
ENDBRANCH  32  33
ENDBRANCH  31  32
ENDBRANCH  30  31
ENDBRANCH  29  30
ENDBRANCH  28  29
ENDBRANCH  27  28
ENDBRANCH  26  27
ENDBRANCH  25  26
ENDBRANCH  24  25
ENDBRANCH  23  24
ENDBRANCH  22  23
ENDBRANCH  20  22
ENDBRANCH  19  20
ENDBRANCH  18  19
BRANCH  18  35
HETATM   35  C   UNL     1      -5.875  11.403  68.132  1.00  0.00    -0.045 C  
BRANCH  35  36
HETATM   36  O   UNL     1      -5.460  12.490  67.293  1.00  0.00    -0.225 OA 
BRANCH  36  37
HETATM   37  P   UNL     1      -5.974  14.039  67.862  1.00  0.00    -0.063 P  
HETATM   38  O   UNL     1      -7.511  13.630  67.500  1.00  0.00    -0.166 OA 
HETATM   39  O   UNL     1      -5.587  13.584  69.255  1.00  0.00    -0.075 OA 
BRANCH  37  40
HETATM   40  O   UNL     1      -6.489  15.590  68.432  1.00  0.00    -0.105 OA 
BRANCH  40  41
HETATM   41  C   UNL     1      -5.703  16.743  68.011  1.00  0.00    -0.118 C  
BRANCH  41  42
HETATM   42  C   UNL     1      -6.326  18.154  68.196  1.00  0.00    -0.190 C  
HETATM   43  H   UNL     1      -7.742  18.989  69.297  1.00  0.00     0.000 HD 
HETATM   44  O   UNL     1      -7.361  18.126  69.184  1.00  0.00    -0.228 OA 
BRANCH  42  45
HETATM   45  C   UNL     1      -5.295  19.234  68.555  1.00  0.00    -0.188 C  
HETATM   46  O   UNL     1      -5.580  20.462  67.872  1.00  0.00    -0.197 OA 
HETATM   47  H   UNL     1      -4.942  21.130  68.095  1.00  0.00     0.000 HD 
ENDBRANCH  42  45
ENDBRANCH  41  42
ENDBRANCH  40  41
ENDBRANCH  37  40
ENDBRANCH  36  37
ENDBRANCH  35  36
ENDBRANCH  18  35
ENDBRANCH  17  18
ENDBRANCH  16  17
ENDBRANCH  14  16
ENDBRANCH  13  14
ENDBRANCH  12  13
ENDBRANCH  11  12
ENDBRANCH  10  11
ENDBRANCH   9  10
ENDBRANCH   8   9
ENDBRANCH   7   8
ENDBRANCH   6   7
ENDBRANCH   5   6
ENDBRANCH   4   5
ENDBRANCH   3   4
ENDBRANCH   2   3
TORSDOF 36
ENDMDL
MODEL       77
REMARK 921   NORMALIZED FREE ENERGY PREDICTED BY IDOCK:   -1.13 KCAL/MOL
REMARK 922        TOTAL FREE ENERGY PREDICTED BY IDOCK:   -8.99 KCAL/MOL
REMARK 923 INTER-LIGAND FREE ENERGY PREDICTED BY IDOCK:   -7.68 KCAL/MOL
REMARK 924 INTRA-LIGAND FREE ENERGY PREDICTED BY IDOCK:   -1.31 KCAL/MOL
REMARK 927      BINDING AFFINITY PREDICTED BY RF-SCORE:    0.00 PKD
ROOT
HETATM    1  C   UNL     1      -6.799   6.579  67.612  1.00  0.00    -0.076 C  
HETATM    2  C   UNL     1      -6.275   6.036  66.293  1.00  0.00    -0.037 C  
ENDROOT
BRANCH   2   3
HETATM    3  C   UNL     1      -6.706   6.915  65.120  1.00  0.00    -0.050 C  
BRANCH   3   4
HETATM    4  C   UNL     1      -7.857   7.842  65.510  1.00  0.00    -0.112 C  
BRANCH   4   5
HETATM    5  C   UNL     1      -8.544   8.412  64.271  1.00  0.00     0.044 C  
BRANCH   5   6
HETATM    6  C   UNL     1      -8.537   9.940  64.284  1.00  0.00    -0.199 C  
BRANCH   6   7
HETATM    7  C   UNL     1      -9.918  10.491  64.634  1.00  0.00    -0.415 C  
BRANCH   7   8
HETATM    8  C   UNL     1     -10.011  10.846  66.115  1.00  0.00    -0.282 C  
BRANCH   8   9
HETATM    9  C   UNL     1      -8.860  11.755  66.539  1.00  0.00    -0.183 C  
BRANCH   9  10
HETATM   10  C   UNL     1      -7.695  10.932  67.088  1.00  0.00    -0.123 C  
BRANCH  10  11
HETATM   11  C   UNL     1      -7.441  11.220  68.566  1.00  0.00    -0.115 C  
BRANCH  11  12
HETATM   12  C   UNL     1      -6.063  10.702  68.977  1.00  0.00    -0.041 C  
BRANCH  12  13
HETATM   13  C   UNL     1      -5.972  10.452  70.478  1.00  0.00    -0.113 C  
BRANCH  13  14
HETATM   14  C   UNL     1      -6.971   9.399  70.896  1.00  0.00    -0.093 C  
HETATM   15  O   UNL     1      -7.608   9.410  71.941  1.00  0.00    -0.215 OA 
BRANCH  14  16
HETATM   16  O   UNL     1      -7.102   8.464  69.912  1.00  0.00    -0.049 OA 
BRANCH  16  17
HETATM   17  C   UNL     1      -8.363   7.772  69.905  1.00  0.00    -0.130 C  
BRANCH  17  18
HETATM   18  C   UNL     1      -8.257   6.412  70.608  1.00  0.00    -0.125 C  
BRANCH  18  19
HETATM   19  O   UNL     1      -9.463   6.201  71.382  1.00  0.00    -0.156 OA 
BRANCH  19  20
HETATM   20  C   UNL     1     -10.615   6.065  70.673  1.00  0.00    -0.260 C  
HETATM   21  O   UNL     1     -11.027   5.037  70.156  1.00  0.00     0.079 OA 
BRANCH  20  22
HETATM   22  C   UNL     1     -11.351   7.381  70.625  1.00  0.00    -0.304 C  
BRANCH  22  23
HETATM   23  C   UNL     1     -10.989   8.271  71.807  1.00  0.00    -0.342 C  
BRANCH  23  24
HETATM   24  C   UNL     1     -11.261   9.752  71.531  1.00  0.00    -0.291 C  
BRANCH  24  25
HETATM   25  C   UNL     1     -12.756  10.058  71.600  1.00  0.00    -0.535 C  
BRANCH  25  26
HETATM   26  C   UNL     1     -13.160  11.054  70.518  1.00  0.00    -0.031 C  
BRANCH  26  27
HETATM   27  C   UNL     1     -12.003  11.981  70.156  1.00  0.00    -0.401 C  
BRANCH  27  28
HETATM   28  C   UNL     1     -12.004  12.292  68.661  1.00  0.00    -0.276 C  
BRANCH  28  29
HETATM   29  C   UNL     1     -11.509  13.712  68.396  1.00  0.00    -0.346 C  
BRANCH  29  30
HETATM   30  C   UNL     1     -10.167  13.960  69.077  1.00  0.00    -0.071 C  
BRANCH  30  31
HETATM   31  C   UNL     1     -10.096  15.371  69.661  1.00  0.00    -0.275 C  
BRANCH  31  32
HETATM   32  C   UNL     1     -11.492  15.894  69.999  1.00  0.00    -0.354 C  
BRANCH  32  33
HETATM   33  C   UNL     1     -11.735  15.885  71.507  1.00  0.00    -0.545 C  
HETATM   34  C   UNL     1     -12.292  14.549  71.967  1.00  0.00    -0.367 C  
ENDBRANCH  32  33
ENDBRANCH  31  32
ENDBRANCH  30  31
ENDBRANCH  29  30
ENDBRANCH  28  29
ENDBRANCH  27  28
ENDBRANCH  26  27
ENDBRANCH  25  26
ENDBRANCH  24  25
ENDBRANCH  23  24
ENDBRANCH  22  23
ENDBRANCH  20  22
ENDBRANCH  19  20
ENDBRANCH  18  19
BRANCH  18  35
HETATM   35  C   UNL     1      -7.079   6.431  71.579  1.00  0.00    -0.078 C  
BRANCH  35  36
HETATM   36  O   UNL     1      -7.446   5.870  72.848  1.00  0.00    -0.093 OA 
BRANCH  36  37
HETATM   37  P   UNL     1      -7.084   4.185  72.990  1.00  0.00    -0.071 P  
HETATM   38  O   UNL     1      -6.104   4.316  71.692  1.00  0.00    -0.016 OA 
HETATM   39  O   UNL     1      -6.356   4.516  74.277  1.00  0.00    -0.051 OA 
BRANCH  37  40
HETATM   40  O   UNL     1      -6.722   2.499  73.131  1.00  0.00    -0.024 OA 
BRANCH  40  41
HETATM   41  C   UNL     1      -7.848   1.575  73.085  1.00  0.00    -0.037 C  
BRANCH  41  42
HETATM   42  C   UNL     1      -9.262   2.163  72.836  1.00  0.00    -0.073 C  
HETATM   43  H   UNL     1     -10.589   2.197  71.368  1.00  0.00     0.000 HD 
HETATM   44  O   UNL     1      -9.723   1.837  71.520  1.00  0.00    -0.127 OA 
BRANCH  42  45
HETATM   45  C   UNL     1     -10.301   1.716  73.874  1.00  0.00    -0.095 C  
HETATM   46  O   UNL     1     -11.540   2.414  73.694  1.00  0.00    -0.227 OA 
HETATM   47  H   UNL     1     -12.183   2.137  74.336  1.00  0.00     0.000 HD 
ENDBRANCH  42  45
ENDBRANCH  41  42
ENDBRANCH  40  41
ENDBRANCH  37  40
ENDBRANCH  36  37
ENDBRANCH  35  36
ENDBRANCH  18  35
ENDBRANCH  17  18
ENDBRANCH  16  17
ENDBRANCH  14  16
ENDBRANCH  13  14
ENDBRANCH  12  13
ENDBRANCH  11  12
ENDBRANCH  10  11
ENDBRANCH   9  10
ENDBRANCH   8   9
ENDBRANCH   7   8
ENDBRANCH   6   7
ENDBRANCH   5   6
ENDBRANCH   4   5
ENDBRANCH   3   4
ENDBRANCH   2   3
TORSDOF 36
ENDMDL
MODEL       78
REMARK 921   NORMALIZED FREE ENERGY PREDICTED BY IDOCK:   -1.08 KCAL/MOL
REMARK 922        TOTAL FREE ENERGY PREDICTED BY IDOCK:   -8.82 KCAL/MOL
REMARK 923 INTER-LIGAND FREE ENERGY PREDICTED BY IDOCK:   -7.53 KCAL/MOL
REMARK 924 INTRA-LIGAND FREE ENERGY PREDICTED BY IDOCK:   -1.29 KCAL/MOL
REMARK 927      BINDING AFFINITY PREDICTED BY RF-SCORE:    0.00 PKD
ROOT
HETATM    1  C   UNL     1      -7.367  13.672  67.240  1.00  0.00    -0.027 C  
HETATM    2  C   UNL     1      -6.998  12.427  68.030  1.00  0.00    -0.097 C  
ENDROOT
BRANCH   2   3
HETATM    3  C   UNL     1      -8.168  11.448  68.102  1.00  0.00    -0.143 C  
BRANCH   3   4
HETATM    4  C   UNL     1      -7.995  10.456  69.251  1.00  0.00    -0.157 C  
BRANCH   4   5
HETATM    5  C   UNL     1      -7.864   9.027  68.725  1.00  0.00    -0.096 C  
BRANCH   5   6
HETATM    6  C   UNL     1      -8.188   8.953  67.233  1.00  0.00    -0.104 C  
BRANCH   6   7
HETATM    7  C   UNL     1      -9.272   7.911  66.960  1.00  0.00    -0.181 C  
BRANCH   7   8
HETATM    8  C   UNL     1     -10.321   7.903  68.068  1.00  0.00    -0.264 C  
BRANCH   8   9
HETATM    9  C   UNL     1     -10.709   6.477  68.452  1.00  0.00    -0.339 C  
BRANCH   9  10
HETATM   10  C   UNL     1      -9.627   5.488  68.023  1.00  0.00    -0.147 C  
BRANCH  10  11
HETATM   11  C   UNL     1      -9.430   4.377  69.051  1.00  0.00    -0.237 C  
BRANCH  11  12
HETATM   12  C   UNL     1     -10.099   4.754  70.373  1.00  0.00    -0.301 C  
BRANCH  12  13
HETATM   13  C   UNL     1     -10.406   3.529  71.226  1.00  0.00     0.373 C  
BRANCH  13  14
HETATM   14  C   UNL     1      -9.132   2.959  71.805  1.00  0.00    -0.096 C  
HETATM   15  O   UNL     1      -9.041   1.882  72.378  1.00  0.00    -0.071 OA 
BRANCH  14  16
HETATM   16  O   UNL     1      -8.087   3.795  71.545  1.00  0.00    -0.066 OA 
BRANCH  16  17
HETATM   17  C   UNL     1      -7.890   4.833  72.520  1.00  0.00    -0.092 C  
BRANCH  17  18
HETATM   18  C   UNL     1      -6.958   5.930  71.987  1.00  0.00    -0.078 C  
BRANCH  18  19
HETATM   19  O   UNL     1      -7.767   7.045  71.543  1.00  0.00    -0.089 OA 
BRANCH  19  20
HETATM   20  C   UNL     1      -8.003   8.019  72.461  1.00  0.00    -0.131 C  
HETATM   21  O   UNL     1      -7.506   8.097  73.575  1.00  0.00    -0.138 OA 
BRANCH  20  22
HETATM   22  C   UNL     1      -8.967   9.035  71.901  1.00  0.00    -0.012 C  
BRANCH  22  23
HETATM   23  C   UNL     1     -10.392   8.498  71.866  1.00  0.00    -0.378 C  
BRANCH  23  24
HETATM   24  C   UNL     1     -11.415   9.575  71.495  1.00  0.00    -0.466 C  
BRANCH  24  25
HETATM   25  C   UNL     1     -11.163  10.110  70.086  1.00  0.00    -0.377 C  
BRANCH  25  26
HETATM   26  C   UNL     1     -12.392  10.837  69.550  1.00  0.00    -0.208 C  
BRANCH  26  27
HETATM   27  C   UNL     1     -12.010  12.152  68.878  1.00  0.00    -0.296 C  
BRANCH  27  28
HETATM   28  C   UNL     1     -11.810  13.255  69.914  1.00  0.00    -0.380 C  
BRANCH  28  29
HETATM   29  C   UNL     1     -11.813  14.634  69.257  1.00  0.00    -0.357 C  
BRANCH  29  30
HETATM   30  C   UNL     1     -12.346  15.695  70.216  1.00  0.00    -0.402 C  
BRANCH  30  31
HETATM   31  C   UNL     1     -11.455  15.820  71.451  1.00  0.00    -0.496 C  
BRANCH  31  32
HETATM   32  C   UNL     1     -12.198  16.509  72.595  1.00  0.00    -0.326 C  
BRANCH  32  33
HETATM   33  C   UNL     1     -13.010  15.506  73.410  1.00  0.00    -0.673 C  
HETATM   34  C   UNL     1     -12.810  14.089  72.898  1.00  0.00    -0.365 C  
ENDBRANCH  32  33
ENDBRANCH  31  32
ENDBRANCH  30  31
ENDBRANCH  29  30
ENDBRANCH  28  29
ENDBRANCH  27  28
ENDBRANCH  26  27
ENDBRANCH  25  26
ENDBRANCH  24  25
ENDBRANCH  23  24
ENDBRANCH  22  23
ENDBRANCH  20  22
ENDBRANCH  19  20
ENDBRANCH  18  19
BRANCH  18  35
HETATM   35  C   UNL     1      -6.190   5.403  70.777  1.00  0.00    -0.026 C  
BRANCH  35  36
HETATM   36  O   UNL     1      -5.862   6.464  69.870  1.00  0.00    -0.014 OA 
BRANCH  36  37
HETATM   37  P   UNL     1      -5.509   5.920  68.267  1.00  0.00    -0.004 P  
HETATM   38  O   UNL     1      -6.105   4.455  68.664  1.00  0.00    -0.028 OA 
HETATM   39  O   UNL     1      -6.598   6.854  67.780  1.00  0.00    -0.051 OA 
BRANCH  37  40
HETATM   40  O   UNL     1      -5.156   5.375  66.663  1.00  0.00    -0.005 OA 
BRANCH  40  41
HETATM   41  C   UNL     1      -5.858   6.036  65.570  1.00  0.00    -0.025 C  
BRANCH  41  42
HETATM   42  C   UNL     1      -5.512   5.608  64.119  1.00  0.00    -0.013 C  
HETATM   43  H   UNL     1      -4.971   3.954  63.176  1.00  0.00     0.000 HD 
HETATM   44  O   UNL     1      -5.183   4.216  64.065  1.00  0.00    -0.008 OA 
BRANCH  42  45
HETATM   45  C   UNL     1      -6.626   5.916  63.109  1.00  0.00    -0.032 C  
HETATM   46  O   UNL     1      -7.920   5.760  63.708  1.00  0.00    -0.112 OA 
HETATM   47  H   UNL     1      -8.609   5.951  63.083  1.00  0.00     0.000 HD 
ENDBRANCH  42  45
ENDBRANCH  41  42
ENDBRANCH  40  41
ENDBRANCH  37  40
ENDBRANCH  36  37
ENDBRANCH  35  36
ENDBRANCH  18  35
ENDBRANCH  17  18
ENDBRANCH  16  17
ENDBRANCH  14  16
ENDBRANCH  13  14
ENDBRANCH  12  13
ENDBRANCH  11  12
ENDBRANCH  10  11
ENDBRANCH   9  10
ENDBRANCH   8   9
ENDBRANCH   7   8
ENDBRANCH   6   7
ENDBRANCH   5   6
ENDBRANCH   4   5
ENDBRANCH   3   4
ENDBRANCH   2   3
TORSDOF 36
ENDMDL
MODEL       79
REMARK 921   NORMALIZED FREE ENERGY PREDICTED BY IDOCK:   -1.03 KCAL/MOL
REMARK 922        TOTAL FREE ENERGY PREDICTED BY IDOCK:   -8.67 KCAL/MOL
REMARK 923 INTER-LIGAND FREE ENERGY PREDICTED BY IDOCK:   -6.48 KCAL/MOL
REMARK 924 INTRA-LIGAND FREE ENERGY PREDICTED BY IDOCK:   -2.19 KCAL/MOL
REMARK 927      BINDING AFFINITY PREDICTED BY RF-SCORE:    0.00 PKD
ROOT
HETATM    1  C   UNL     1      -5.886   8.184  65.250  1.00  0.00    -0.044 C  
HETATM    2  C   UNL     1      -5.433   8.014  63.809  1.00  0.00    -0.052 C  
ENDROOT
BRANCH   2   3
HETATM    3  C   UNL     1      -6.369   8.739  62.844  1.00  0.00    -0.091 C  
BRANCH   3   4
HETATM    4  C   UNL     1      -7.795   8.802  63.390  1.00  0.00    -0.148 C  
BRANCH   4   5
HETATM    5  C   UNL     1      -8.752   9.389  62.354  1.00  0.00    -0.239 C  
BRANCH   5   6
HETATM    6  C   UNL     1      -9.128  10.830  62.698  1.00  0.00    -0.343 C  
BRANCH   6   7
HETATM    7  C   UNL     1     -10.463  10.884  63.441  1.00  0.00    -0.220 C  
BRANCH   7   8
HETATM    8  C   UNL     1     -10.256  10.811  64.951  1.00  0.00    -0.388 C  
BRANCH   8   9
HETATM    9  C   UNL     1      -9.083  11.683  65.393  1.00  0.00    -0.007 C  
BRANCH   9  10
HETATM   10  C   UNL     1      -8.020  10.841  66.098  1.00  0.00    -0.157 C  
BRANCH  10  11
HETATM   11  C   UNL     1      -7.335  11.614  67.222  1.00  0.00    -0.136 C  
BRANCH  11  12
HETATM   12  C   UNL     1      -5.911  11.098  67.428  1.00  0.00    -0.052 C  
BRANCH  12  13
HETATM   13  C   UNL     1      -5.303  11.607  68.730  1.00  0.00    -0.045 C  
BRANCH  13  14
HETATM   14  C   UNL     1      -5.914  10.889  69.911  1.00  0.00    -0.089 C  
HETATM   15  O   UNL     1      -6.423  11.437  70.880  1.00  0.00    -0.115 OA 
BRANCH  14  16
HETATM   16  O   UNL     1      -5.869   9.541  69.711  1.00  0.00    -0.035 OA 
BRANCH  16  17
HETATM   17  C   UNL     1      -6.946   9.014  68.918  1.00  0.00    -0.065 C  
BRANCH  17  18
HETATM   18  C   UNL     1      -7.916   8.186  69.772  1.00  0.00    -0.111 C  
BRANCH  18  19
HETATM   19  O   UNL     1      -9.199   8.854  69.788  1.00  0.00    -0.156 OA 
BRANCH  19  20
HETATM   20  C   UNL     1      -9.912   8.812  68.630  1.00  0.00    -0.182 C  
HETATM   21  O   UNL     1     -10.000   7.859  67.871  1.00  0.00    -0.162 OA 
BRANCH  20  22
HETATM   22  C   UNL     1     -10.619  10.126  68.411  1.00  0.00    -0.249 C  
BRANCH  22  23
HETATM   23  C   UNL     1     -10.994  10.791  69.730  1.00  0.00    -0.314 C  
BRANCH  23  24
HETATM   24  C   UNL     1     -10.795  12.308  69.699  1.00  0.00     0.212 C  
BRANCH  24  25
HETATM   25  C   UNL     1     -12.126  13.033  69.509  1.00  0.00    -0.289 C  
BRANCH  25  26
HETATM   26  C   UNL     1     -11.918  14.385  68.833  1.00  0.00    -0.337 C  
BRANCH  26  27
HETATM   27  C   UNL     1     -10.436  14.685  68.633  1.00  0.00    -0.244 C  
BRANCH  27  28
HETATM   28  C   UNL     1     -10.041  14.526  67.167  1.00  0.00    -0.252 C  
BRANCH  28  29
HETATM   29  C   UNL     1      -8.547  14.771  66.970  1.00  0.00    -0.260 C  
BRANCH  29  30
HETATM   30  C   UNL     1      -8.218  16.257  67.078  1.00  0.00    -0.238 C  
BRANCH  30  31
HETATM   31  C   UNL     1      -6.925  16.479  67.862  1.00  0.00    -0.155 C  
BRANCH  31  32
HETATM   32  C   UNL     1      -7.176  16.401  69.367  1.00  0.00    -0.172 C  
BRANCH  32  33
HETATM   33  C   UNL     1      -6.944  14.986  69.893  1.00  0.00    -0.149 C  
HETATM   34  C   UNL     1      -5.796  14.309  69.164  1.00  0.00    -0.090 C  
ENDBRANCH  32  33
ENDBRANCH  31  32
ENDBRANCH  30  31
ENDBRANCH  29  30
ENDBRANCH  28  29
ENDBRANCH  27  28
ENDBRANCH  26  27
ENDBRANCH  25  26
ENDBRANCH  24  25
ENDBRANCH  23  24
ENDBRANCH  22  23
ENDBRANCH  20  22
ENDBRANCH  19  20
ENDBRANCH  18  19
BRANCH  18  35
HETATM   35  C   UNL     1      -7.405   8.127  71.209  1.00  0.00    -0.072 C  
BRANCH  35  36
HETATM   36  O   UNL     1      -8.490   7.995  72.139  1.00  0.00    -0.120 OA 
BRANCH  36  37
HETATM   37  P   UNL     1      -8.573   6.438  72.887  1.00  0.00    -0.122 P  
HETATM   38  O   UNL     1      -7.113   6.715  73.560  1.00  0.00    -0.077 OA 
HETATM   39  O   UNL     1      -9.697   6.982  73.745  1.00  0.00    -0.218 OA 
BRANCH  37  40
HETATM   40  O   UNL     1      -8.656   4.880  73.637  1.00  0.00    -0.105 OA 
BRANCH  40  41
HETATM   41  C   UNL     1      -9.260   3.805  72.861  1.00  0.00    -0.103 C  
BRANCH  41  42
HETATM   42  C   UNL     1      -8.596   3.418  71.512  1.00  0.00    -0.076 C  
HETATM   43  H   UNL     1      -6.764   3.303  70.770  1.00  0.00     0.000 HD 
HETATM   44  O   UNL     1      -7.171   3.539  71.596  1.00  0.00    -0.037 OA 
BRANCH  42  45
HETATM   45  C   UNL     1      -8.969   2.009  71.029  1.00  0.00    -0.075 C  
HETATM   46  O   UNL     1      -9.318   2.020  69.638  1.00  0.00    -0.106 OA 
HETATM   47  H   UNL     1      -9.549   1.148  69.339  1.00  0.00     0.000 HD 
ENDBRANCH  42  45
ENDBRANCH  41  42
ENDBRANCH  40  41
ENDBRANCH  37  40
ENDBRANCH  36  37
ENDBRANCH  35  36
ENDBRANCH  18  35
ENDBRANCH  17  18
ENDBRANCH  16  17
ENDBRANCH  14  16
ENDBRANCH  13  14
ENDBRANCH  12  13
ENDBRANCH  11  12
ENDBRANCH  10  11
ENDBRANCH   9  10
ENDBRANCH   8   9
ENDBRANCH   7   8
ENDBRANCH   6   7
ENDBRANCH   5   6
ENDBRANCH   4   5
ENDBRANCH   3   4
ENDBRANCH   2   3
TORSDOF 36
ENDMDL
MODEL       80
REMARK 921   NORMALIZED FREE ENERGY PREDICTED BY IDOCK:   -0.97 KCAL/MOL
REMARK 922        TOTAL FREE ENERGY PREDICTED BY IDOCK:   -8.47 KCAL/MOL
REMARK 923 INTER-LIGAND FREE ENERGY PREDICTED BY IDOCK:   -7.94 KCAL/MOL
REMARK 924 INTRA-LIGAND FREE ENERGY PREDICTED BY IDOCK:   -0.53 KCAL/MOL
REMARK 927      BINDING AFFINITY PREDICTED BY RF-SCORE:    0.00 PKD
ROOT
HETATM    1  C   UNL     1     -13.805  15.356  71.219  1.00  0.00    -0.523 C  
HETATM    2  C   UNL     1     -12.305  15.595  71.263  1.00  0.00    -0.484 C  
ENDROOT
BRANCH   2   3
HETATM    3  C   UNL     1     -11.782  16.087  69.914  1.00  0.00    -0.276 C  
BRANCH   3   4
HETATM    4  C   UNL     1     -11.977  15.035  68.823  1.00  0.00    -0.282 C  
BRANCH   4   5
HETATM    5  C   UNL     1     -11.410  13.685  69.258  1.00  0.00    -0.323 C  
BRANCH   5   6
HETATM    6  C   UNL     1      -9.929  13.562  68.900  1.00  0.00     0.009 C  
BRANCH   6   7
HETATM    7  C   UNL     1      -9.131  14.738  69.463  1.00  0.00     0.117 C  
BRANCH   7   8
HETATM    8  C   UNL     1      -8.036  15.175  68.494  1.00  0.00    -0.145 C  
BRANCH   8   9
HETATM    9  C   UNL     1      -6.654  15.064  69.133  1.00  0.00    -0.120 C  
BRANCH   9  10
HETATM   10  C   UNL     1      -6.513  13.743  69.888  1.00  0.00    -0.059 C  
BRANCH  10  11
HETATM   11  C   UNL     1      -5.191  13.046  69.574  1.00  0.00    -0.077 C  
BRANCH  11  12
HETATM   12  C   UNL     1      -5.416  11.906  68.581  1.00  0.00    -0.049 C  
BRANCH  12  13
HETATM   13  C   UNL     1      -6.414  10.881  69.108  1.00  0.00    -0.063 C  
BRANCH  13  14
HETATM   14  C   UNL     1      -5.898   9.480  68.878  1.00  0.00    -0.039 C  
HETATM   15  O   UNL     1      -5.547   8.707  69.760  1.00  0.00    -0.029 OA 
BRANCH  14  16
HETATM   16  O   UNL     1      -5.934   9.181  67.548  1.00  0.00    -0.049 OA 
BRANCH  16  17
HETATM   17  C   UNL     1      -6.897   8.177  67.184  1.00  0.00    -0.070 C  
BRANCH  17  18
HETATM   18  C   UNL     1      -7.347   8.338  65.725  1.00  0.00    -0.072 C  
BRANCH  18  19
HETATM   19  O   UNL     1      -7.886   9.671  65.556  1.00  0.00    -0.106 OA 
BRANCH  19  20
HETATM   20  C   UNL     1      -9.233   9.796  65.697  1.00  0.00    -0.199 C  
HETATM   21  O   UNL     1     -10.023   8.890  65.914  1.00  0.00    -0.245 OA 
BRANCH  20  22
HETATM   22  C   UNL     1      -9.633  11.245  65.569  1.00  0.00    -0.259 C  
BRANCH  22  23
HETATM   23  C   UNL     1     -11.081  11.390  65.115  1.00  0.00    -0.203 C  
BRANCH  23  24
HETATM   24  C   UNL     1     -11.207  12.169  63.803  1.00  0.00    -0.509 C  
BRANCH  24  25
HETATM   25  C   UNL     1     -11.920  13.502  64.021  1.00  0.00    -0.501 C  
BRANCH  25  26
HETATM   26  C   UNL     1     -12.388  13.640  65.467  1.00  0.00    -0.519 C  
BRANCH  26  27
HETATM   27  C   UNL     1     -11.747  14.847  66.145  1.00  0.00    -0.178 C  
BRANCH  27  28
HETATM   28  C   UNL     1     -10.513  15.312  65.376  1.00  0.00    -0.422 C  
BRANCH  28  29
HETATM   29  C   UNL     1     -10.600  16.800  65.045  1.00  0.00    -0.060 C  
BRANCH  29  30
HETATM   30  C   UNL     1      -9.764  17.626  66.019  1.00  0.00    -0.155 C  
BRANCH  30  31
HETATM   31  C   UNL     1     -10.648  18.318  67.056  1.00  0.00    -0.375 C  
BRANCH  31  32
HETATM   32  C   UNL     1      -9.902  18.504  68.376  1.00  0.00    -0.404 C  
BRANCH  32  33
HETATM   33  C   UNL     1      -8.393  18.581  68.152  1.00  0.00    -0.316 C  
HETATM   34  C   UNL     1      -8.062  19.380  66.903  1.00  0.00    -0.298 C  
ENDBRANCH  32  33
ENDBRANCH  31  32
ENDBRANCH  30  31
ENDBRANCH  29  30
ENDBRANCH  28  29
ENDBRANCH  27  28
ENDBRANCH  26  27
ENDBRANCH  25  26
ENDBRANCH  24  25
ENDBRANCH  23  24
ENDBRANCH  22  23
ENDBRANCH  20  22
ENDBRANCH  19  20
ENDBRANCH  18  19
BRANCH  18  35
HETATM   35  C   UNL     1      -8.465   7.343  65.425  1.00  0.00    -0.092 C  
BRANCH  35  36
HETATM   36  O   UNL     1      -7.995   6.273  64.593  1.00  0.00    -0.113 OA 
BRANCH  36  37
HETATM   37  P   UNL     1      -7.279   4.972  65.479  1.00  0.00    -0.070 P  
HETATM   38  O   UNL     1      -8.757   4.299  65.629  1.00  0.00    -0.116 OA 
HETATM   39  O   UNL     1      -6.601   4.553  64.190  1.00  0.00    -0.040 OA 
BRANCH  37  40
HETATM   40  O   UNL     1      -6.562   3.670  66.365  1.00  0.00    -0.039 OA 
BRANCH  40  41
HETATM   41  C   UNL     1      -6.237   3.922  67.763  1.00  0.00    -0.036 C  
BRANCH  41  42
HETATM   42  C   UNL     1      -6.990   3.101  68.845  1.00  0.00    -0.048 C  
HETATM   43  H   UNL     1      -6.668   1.477  69.929  1.00  0.00     0.000 HD 
HETATM   44  O   UNL     1      -6.207   1.980  69.267  1.00  0.00    -0.024 OA 
BRANCH  42  45
HETATM   45  C   UNL     1      -7.403   3.934  70.067  1.00  0.00    -0.042 C  
HETATM   46  O   UNL     1      -7.306   3.162  71.271  1.00  0.00    -0.033 OA 
HETATM   47  H   UNL     1      -7.561   3.678  72.027  1.00  0.00     0.000 HD 
ENDBRANCH  42  45
ENDBRANCH  41  42
ENDBRANCH  40  41
ENDBRANCH  37  40
ENDBRANCH  36  37
ENDBRANCH  35  36
ENDBRANCH  18  35
ENDBRANCH  17  18
ENDBRANCH  16  17
ENDBRANCH  14  16
ENDBRANCH  13  14
ENDBRANCH  12  13
ENDBRANCH  11  12
ENDBRANCH  10  11
ENDBRANCH   9  10
ENDBRANCH   8   9
ENDBRANCH   7   8
ENDBRANCH   6   7
ENDBRANCH   5   6
ENDBRANCH   4   5
ENDBRANCH   3   4
ENDBRANCH   2   3
TORSDOF 36
ENDMDL
MODEL       81
REMARK 921   NORMALIZED FREE ENERGY PREDICTED BY IDOCK:   -0.88 KCAL/MOL
REMARK 922        TOTAL FREE ENERGY PREDICTED BY IDOCK:   -8.20 KCAL/MOL
REMARK 923 INTER-LIGAND FREE ENERGY PREDICTED BY IDOCK:   -6.82 KCAL/MOL
REMARK 924 INTRA-LIGAND FREE ENERGY PREDICTED BY IDOCK:   -1.38 KCAL/MOL
REMARK 927      BINDING AFFINITY PREDICTED BY RF-SCORE:    0.00 PKD
ROOT
HETATM    1  C   UNL     1      -7.079  12.803  68.123  1.00  0.00    -0.105 C  
HETATM    2  C   UNL     1      -6.772  11.562  68.947  1.00  0.00    -0.086 C  
ENDROOT
BRANCH   2   3
HETATM    3  C   UNL     1      -7.985  10.638  69.031  1.00  0.00    -0.140 C  
BRANCH   3   4
HETATM    4  C   UNL     1      -7.871   9.673  70.211  1.00  0.00    -0.193 C  
BRANCH   4   5
HETATM    5  C   UNL     1      -7.853   8.223  69.730  1.00  0.00    -0.100 C  
BRANCH   5   6
HETATM    6  C   UNL     1      -8.205   8.124  68.247  1.00  0.00    -0.129 C  
BRANCH   6   7
HETATM    7  C   UNL     1      -9.413   7.213  68.030  1.00  0.00    -0.132 C  
BRANCH   7   8
HETATM    8  C   UNL     1     -10.464   7.424  69.116  1.00  0.00    -0.217 C  
BRANCH   8   9
HETATM    9  C   UNL     1     -10.976   6.091  69.657  1.00  0.00    -0.470 C  
BRANCH   9  10
HETATM   10  C   UNL     1      -9.924   4.997  69.482  1.00  0.00    -0.302 C  
BRANCH  10  11
HETATM   11  C   UNL     1     -10.032   3.924  70.563  1.00  0.00    -0.070 C  
BRANCH  11  12
HETATM   12  C   UNL     1     -10.871   4.436  71.734  1.00  0.00     0.276 C  
BRANCH  12  13
HETATM   13  C   UNL     1     -11.369   3.297  72.618  1.00  0.00     0.495 C  
BRANCH  13  14
HETATM   14  C   UNL     1     -10.222   2.694  73.394  1.00  0.00    -0.122 C  
HETATM   15  O   UNL     1     -10.293   1.686  74.085  1.00  0.00    -0.091 OA 
BRANCH  14  16
HETATM   16  O   UNL     1      -9.080   3.404  73.165  1.00  0.00    -0.096 OA 
BRANCH  16  17
HETATM   17  C   UNL     1      -8.908   4.554  74.010  1.00  0.00    -0.103 C  
BRANCH  17  18
HETATM   18  C   UNL     1      -7.806   5.479  73.476  1.00  0.00    -0.103 C  
BRANCH  18  19
HETATM   19  O   UNL     1      -8.429   6.546  72.722  1.00  0.00    -0.120 OA 
BRANCH  19  20
HETATM   20  C   UNL     1      -8.691   7.692  73.406  1.00  0.00    -0.202 C  
HETATM   21  O   UNL     1      -8.364   7.935  74.558  1.00  0.00    -0.225 OA 
BRANCH  20  22
HETATM   22  C   UNL     1      -9.439   8.661  72.525  1.00  0.00    -0.247 C  
BRANCH  22  23
HETATM   23  C   UNL     1     -10.935   8.368  72.511  1.00  0.00    -0.388 C  
BRANCH  23  24
HETATM   24  C   UNL     1     -11.739   9.463  71.806  1.00  0.00    -0.444 C  
BRANCH  24  25
HETATM   25  C   UNL     1     -10.933  10.095  70.673  1.00  0.00    -0.357 C  
BRANCH  25  26
HETATM   26  C   UNL     1     -11.842  10.866  69.721  1.00  0.00    -0.419 C  
BRANCH  26  27
HETATM   27  C   UNL     1     -11.075  11.962  68.987  1.00  0.00    -0.300 C  
BRANCH  27  28
HETATM   28  C   UNL     1     -11.455  13.342  69.519  1.00  0.00    -0.299 C  
BRANCH  28  29
HETATM   29  C   UNL     1     -11.019  14.442  68.555  1.00  0.00    -0.264 C  
BRANCH  29  30
HETATM   30  C   UNL     1     -10.038  15.400  69.226  1.00  0.00    -0.253 C  
BRANCH  30  31
HETATM   31  C   UNL     1      -9.641  16.534  68.281  1.00  0.00    -0.223 C  
BRANCH  31  32
HETATM   32  C   UNL     1      -9.469  17.847  69.043  1.00  0.00    -0.099 C  
BRANCH  32  33
HETATM   33  C   UNL     1      -9.462  19.042  68.093  1.00  0.00    -0.387 C  
HETATM   34  C   UNL     1     -10.751  19.116  67.293  1.00  0.00    -0.585 C  
ENDBRANCH  32  33
ENDBRANCH  31  32
ENDBRANCH  30  31
ENDBRANCH  29  30
ENDBRANCH  28  29
ENDBRANCH  27  28
ENDBRANCH  26  27
ENDBRANCH  25  26
ENDBRANCH  24  25
ENDBRANCH  23  24
ENDBRANCH  22  23
ENDBRANCH  20  22
ENDBRANCH  19  20
ENDBRANCH  18  19
BRANCH  18  35
HETATM   35  C   UNL     1      -6.905   4.700  72.521  1.00  0.00    -0.060 C  
BRANCH  35  36
HETATM   36  O   UNL     1      -6.349   5.561  71.517  1.00  0.00    -0.036 OA 
BRANCH  36  37
HETATM   37  P   UNL     1      -5.825   4.721  70.099  1.00  0.00    -0.018 P  
HETATM   38  O   UNL     1      -7.383   4.368  69.768  1.00  0.00    -0.049 OA 
HETATM   39  O   UNL     1      -5.423   6.066  69.529  1.00  0.00    -0.011 OA 
BRANCH  37  40
HETATM   40  O   UNL     1      -5.302   3.880  68.679  1.00  0.00    -0.011 OA 
BRANCH  40  41
HETATM   41  C   UNL     1      -5.467   4.568  67.405  1.00  0.00    -0.013 C  
BRANCH  41  42
HETATM   42  C   UNL     1      -5.599   3.703  66.123  1.00  0.00    -0.018 C  
HETATM   43  H   UNL     1      -6.864   2.370  65.388  1.00  0.00     0.000 HD 
HETATM   44  O   UNL     1      -6.783   2.900  66.173  1.00  0.00    -0.045 OA 
BRANCH  42  45
HETATM   45  C   UNL     1      -5.585   4.526  64.827  1.00  0.00    -0.014 C  
HETATM   46  O   UNL     1      -6.739   5.372  64.743  1.00  0.00    -0.045 OA 
HETATM   47  H   UNL     1      -6.730   5.880  63.941  1.00  0.00     0.000 HD 
ENDBRANCH  42  45
ENDBRANCH  41  42
ENDBRANCH  40  41
ENDBRANCH  37  40
ENDBRANCH  36  37
ENDBRANCH  35  36
ENDBRANCH  18  35
ENDBRANCH  17  18
ENDBRANCH  16  17
ENDBRANCH  14  16
ENDBRANCH  13  14
ENDBRANCH  12  13
ENDBRANCH  11  12
ENDBRANCH  10  11
ENDBRANCH   9  10
ENDBRANCH   8   9
ENDBRANCH   7   8
ENDBRANCH   6   7
ENDBRANCH   5   6
ENDBRANCH   4   5
ENDBRANCH   3   4
ENDBRANCH   2   3
TORSDOF 36
ENDMDL
MODEL       82
REMARK 921   NORMALIZED FREE ENERGY PREDICTED BY IDOCK:   -0.83 KCAL/MOL
REMARK 922        TOTAL FREE ENERGY PREDICTED BY IDOCK:   -8.04 KCAL/MOL
REMARK 923 INTER-LIGAND FREE ENERGY PREDICTED BY IDOCK:   -6.57 KCAL/MOL
REMARK 924 INTRA-LIGAND FREE ENERGY PREDICTED BY IDOCK:   -1.47 KCAL/MOL
REMARK 927      BINDING AFFINITY PREDICTED BY RF-SCORE:    0.00 PKD
ROOT
HETATM    1  C   UNL     1     -11.661   7.007  69.143  1.00  0.00     0.183 C  
HETATM    2  C   UNL     1     -10.443   6.097  69.122  1.00  0.00    -0.310 C  
ENDROOT
BRANCH   2   3
HETATM    3  C   UNL     1      -9.853   5.927  70.520  1.00  0.00    -0.231 C  
BRANCH   3   4
HETATM    4  C   UNL     1      -9.978   7.211  71.339  1.00  0.00    -0.193 C  
BRANCH   4   5
HETATM    5  C   UNL     1     -10.643   6.937  72.687  1.00  0.00    -0.262 C  
BRANCH   5   6
HETATM    6  C   UNL     1     -12.135   7.268  72.649  1.00  0.00     0.019 C  
BRANCH   6   7
HETATM    7  C   UNL     1     -12.362   8.779  72.703  1.00  0.00    -0.254 C  
BRANCH   7   8
HETATM    8  C   UNL     1     -13.045   9.279  71.434  1.00  0.00    -0.387 C  
BRANCH   8   9
HETATM    9  C   UNL     1     -13.441  10.748  71.561  1.00  0.00    -0.176 C  
BRANCH   9  10
HETATM   10  C   UNL     1     -12.230  11.655  71.347  1.00  0.00    -0.029 C  
BRANCH  10  11
HETATM   11  C   UNL     1     -11.776  11.665  69.889  1.00  0.00    -0.414 C  
BRANCH  11  12
HETATM   12  C   UNL     1     -12.170  12.982  69.221  1.00  0.00    -0.138 C  
BRANCH  12  13
HETATM   13  C   UNL     1     -12.477  14.069  70.245  1.00  0.00    -0.403 C  
BRANCH  13  14
HETATM   14  C   UNL     1     -11.221  14.835  70.591  1.00  0.00    -0.131 C  
HETATM   15  O   UNL     1     -10.899  15.185  71.719  1.00  0.00    -0.143 OA 
BRANCH  14  16
HETATM   16  O   UNL     1     -10.471  15.030  69.469  1.00  0.00    -0.241 OA 
BRANCH  16  17
HETATM   17  C   UNL     1      -9.229  14.306  69.444  1.00  0.00     0.401 C  
BRANCH  17  18
HETATM   18  C   UNL     1      -9.094  13.474  68.161  1.00  0.00    -0.199 C  
BRANCH  18  19
HETATM   19  O   UNL     1      -7.778  12.871  68.142  1.00  0.00    -0.117 OA 
BRANCH  19  20
HETATM   20  C   UNL     1      -6.811  13.518  68.845  1.00  0.00    -0.111 C  
HETATM   21  O   UNL     1      -6.953  14.544  69.492  1.00  0.00    -0.150 OA 
BRANCH  20  22
HETATM   22  C   UNL     1      -5.506  12.768  68.739  1.00  0.00    -0.066 C  
BRANCH  22  23
HETATM   23  C   UNL     1      -5.420  11.971  67.443  1.00  0.00    -0.116 C  
BRANCH  23  24
HETATM   24  C   UNL     1      -5.423  10.459  67.684  1.00  0.00    -0.044 C  
BRANCH  24  25
HETATM   25  C   UNL     1      -5.553  10.140  69.172  1.00  0.00    -0.038 C  
BRANCH  25  26
HETATM   26  C   UNL     1      -6.889   9.468  69.471  1.00  0.00    -0.054 C  
BRANCH  26  27
HETATM   27  C   UNL     1      -6.751   7.948  69.504  1.00  0.00    -0.042 C  
BRANCH  27  28
HETATM   28  C   UNL     1      -6.955   7.353  68.113  1.00  0.00    -0.075 C  
BRANCH  28  29
HETATM   29  C   UNL     1      -6.036   6.155  67.888  1.00  0.00    -0.017 C  
BRANCH  29  30
HETATM   30  C   UNL     1      -6.780   4.843  68.121  1.00  0.00    -0.054 C  
BRANCH  30  31
HETATM   31  C   UNL     1      -7.808   4.590  67.019  1.00  0.00    -0.098 C  
BRANCH  31  32
HETATM   32  C   UNL     1      -8.463   3.220  67.186  1.00  0.00    -0.105 C  
BRANCH  32  33
HETATM   33  C   UNL     1      -8.283   2.690  68.606  1.00  0.00    -0.077 C  
HETATM   34  C   UNL     1      -9.509   1.920  69.067  1.00  0.00    -0.164 C  
ENDBRANCH  32  33
ENDBRANCH  31  32
ENDBRANCH  30  31
ENDBRANCH  29  30
ENDBRANCH  28  29
ENDBRANCH  27  28
ENDBRANCH  26  27
ENDBRANCH  25  26
ENDBRANCH  24  25
ENDBRANCH  23  24
ENDBRANCH  22  23
ENDBRANCH  20  22
ENDBRANCH  19  20
ENDBRANCH  18  19
BRANCH  18  35
HETATM   35  C   UNL     1      -9.201  14.392  66.946  1.00  0.00    -0.254 C  
BRANCH  35  36
HETATM   36  O   UNL     1      -7.987  15.129  66.745  1.00  0.00    -0.177 OA 
BRANCH  36  37
HETATM   37  P   UNL     1      -8.243  16.800  66.383  1.00  0.00    -0.290 P  
HETATM   38  O   UNL     1      -8.545  17.066  67.964  1.00  0.00    -0.207 OA 
HETATM   39  O   UNL     1      -6.763  16.893  66.072  1.00  0.00    -0.077 OA 
BRANCH  37  40
HETATM   40  O   UNL     1      -8.500  18.473  66.022  1.00  0.00    -0.489 OA 
BRANCH  40  41
HETATM   41  C   UNL     1      -9.660  19.111  66.632  1.00  0.00    -0.346 C  
BRANCH  41  42
HETATM   42  C   UNL     1      -9.444  19.916  67.941  1.00  0.00    -0.359 C  
HETATM   43  H   UNL     1      -8.505  21.568  68.497  1.00  0.00     0.000 HD 
HETATM   44  O   UNL     1      -8.637  21.074  67.696  1.00  0.00    -0.075 OA 
BRANCH  42  45
HETATM   45  C   UNL     1     -10.753  20.333  68.626  1.00  0.00     0.383 C  
HETATM   46  O   UNL     1     -10.521  20.715  69.988  1.00  0.00    -0.446 OA 
HETATM   47  H   UNL     1     -11.331  20.973  70.411  1.00  0.00     0.000 HD 
ENDBRANCH  42  45
ENDBRANCH  41  42
ENDBRANCH  40  41
ENDBRANCH  37  40
ENDBRANCH  36  37
ENDBRANCH  35  36
ENDBRANCH  18  35
ENDBRANCH  17  18
ENDBRANCH  16  17
ENDBRANCH  14  16
ENDBRANCH  13  14
ENDBRANCH  12  13
ENDBRANCH  11  12
ENDBRANCH  10  11
ENDBRANCH   9  10
ENDBRANCH   8   9
ENDBRANCH   7   8
ENDBRANCH   6   7
ENDBRANCH   5   6
ENDBRANCH   4   5
ENDBRANCH   3   4
ENDBRANCH   2   3
TORSDOF 36
ENDMDL
MODEL       83
REMARK 921   NORMALIZED FREE ENERGY PREDICTED BY IDOCK:   -0.63 KCAL/MOL
REMARK 922        TOTAL FREE ENERGY PREDICTED BY IDOCK:   -7.44 KCAL/MOL
REMARK 923 INTER-LIGAND FREE ENERGY PREDICTED BY IDOCK:   -7.63 KCAL/MOL
REMARK 924 INTRA-LIGAND FREE ENERGY PREDICTED BY IDOCK:    0.19 KCAL/MOL
REMARK 927      BINDING AFFINITY PREDICTED BY RF-SCORE:    0.00 PKD
ROOT
HETATM    1  C   UNL     1     -13.836  15.408  71.196  1.00  0.00    -0.452 C  
HETATM    2  C   UNL     1     -12.353  15.737  71.256  1.00  0.00    -0.493 C  
ENDROOT
BRANCH   2   3
HETATM    3  C   UNL     1     -11.852  16.286  69.922  1.00  0.00     0.026 C  
BRANCH   3   4
HETATM    4  C   UNL     1     -11.974  15.245  68.809  1.00  0.00    -0.279 C  
BRANCH   4   5
HETATM    5  C   UNL     1     -11.447  13.887  69.271  1.00  0.00    -0.348 C  
BRANCH   5   6
HETATM    6  C   UNL     1      -9.924  13.820  69.176  1.00  0.00     0.159 C  
BRANCH   6   7
HETATM    7  C   UNL     1      -9.276  14.965  69.955  1.00  0.00     0.303 C  
BRANCH   7   8
HETATM    8  C   UNL     1      -8.066  15.522  69.210  1.00  0.00    -0.248 C  
BRANCH   8   9
HETATM    9  C   UNL     1      -6.787  15.351  70.026  1.00  0.00    -0.048 C  
BRANCH   9  10
HETATM   10  C   UNL     1      -6.752  13.977  70.693  1.00  0.00     0.366 C  
BRANCH  10  11
HETATM   11  C   UNL     1      -5.449  13.235  70.402  1.00  0.00    -0.145 C  
BRANCH  11  12
HETATM   12  C   UNL     1      -5.681  12.154  69.348  1.00  0.00    -0.083 C  
BRANCH  12  13
HETATM   13  C   UNL     1      -6.716  11.130  69.800  1.00  0.00    -0.121 C  
BRANCH  13  14
HETATM   14  C   UNL     1      -6.265   9.733  69.440  1.00  0.00    -0.044 C  
HETATM   15  O   UNL     1      -5.864   8.897  70.238  1.00  0.00    -0.029 OA 
BRANCH  14  16
HETATM   16  O   UNL     1      -6.427   9.521  68.103  1.00  0.00    -0.056 OA 
BRANCH  16  17
HETATM   17  C   UNL     1      -7.716   9.007  67.727  1.00  0.00    -0.097 C  
BRANCH  17  18
HETATM   18  C   UNL     1      -8.076   9.400  66.287  1.00  0.00    -0.111 C  
BRANCH  18  19
HETATM   19  O   UNL     1      -8.061  10.844  66.189  1.00  0.00    -0.161 OA 
BRANCH  19  20
HETATM   20  C   UNL     1      -9.236  11.476  66.453  1.00  0.00    -0.208 C  
HETATM   21  O   UNL     1     -10.266  10.950  66.847  1.00  0.00    -0.211 OA 
BRANCH  20  22
HETATM   22  C   UNL     1      -9.091  12.958  66.213  1.00  0.00    -0.019 C  
BRANCH  22  23
HETATM   23  C   UNL     1     -10.443  13.628  65.995  1.00  0.00    -0.300 C  
BRANCH  23  24
HETATM   24  C   UNL     1     -10.599  14.186  64.579  1.00  0.00    -0.285 C  
BRANCH  24  25
HETATM   25  C   UNL     1     -10.762  15.705  64.602  1.00  0.00    -0.164 C  
BRANCH  25  26
HETATM   26  C   UNL     1     -10.626  16.247  66.021  1.00  0.00    -0.288 C  
BRANCH  26  27
HETATM   27  C   UNL     1      -9.574  17.349  66.097  1.00  0.00    -0.213 C  
BRANCH  27  28
HETATM   28  C   UNL     1      -8.454  16.968  67.062  1.00  0.00    -0.234 C  
BRANCH  28  29
HETATM   29  C   UNL     1      -7.109  16.899  66.343  1.00  0.00    -0.241 C  
BRANCH  29  30
HETATM   30  C   UNL     1      -6.370  18.231  66.435  1.00  0.00    -0.229 C  
BRANCH  30  31
HETATM   31  C   UNL     1      -6.427  18.985  65.107  1.00  0.00    -0.276 C  
BRANCH  31  32
HETATM   32  C   UNL     1      -6.396  20.496  65.334  1.00  0.00    -0.295 C  
BRANCH  32  33
HETATM   33  C   UNL     1      -5.722  20.843  66.659  1.00  0.00    -0.263 C  
HETATM   34  C   UNL     1      -6.712  20.788  67.811  1.00  0.00    -0.381 C  
ENDBRANCH  32  33
ENDBRANCH  31  32
ENDBRANCH  30  31
ENDBRANCH  29  30
ENDBRANCH  28  29
ENDBRANCH  27  28
ENDBRANCH  26  27
ENDBRANCH  25  26
ENDBRANCH  24  25
ENDBRANCH  23  24
ENDBRANCH  22  23
ENDBRANCH  20  22
ENDBRANCH  19  20
ENDBRANCH  18  19
BRANCH  18  35
HETATM   35  C   UNL     1      -9.493   8.927  65.970  1.00  0.00    -0.252 C  
BRANCH  35  36
HETATM   36  O   UNL     1      -9.590   7.498  66.048  1.00  0.00    -0.053 OA 
BRANCH  36  37
HETATM   37  P   UNL     1      -9.934   6.914  67.639  1.00  0.00    -0.173 P  
HETATM   38  O   UNL     1     -11.527   7.059  67.317  1.00  0.00    -0.079 OA 
HETATM   39  O   UNL     1      -9.393   5.571  67.192  1.00  0.00    -0.113 OA 
BRANCH  37  40
HETATM   40  O   UNL     1     -10.279   6.329  69.231  1.00  0.00    -0.170 OA 
BRANCH  40  41
HETATM   41  C   UNL     1      -9.617   7.004  70.340  1.00  0.00    -0.169 C  
BRANCH  41  42
HETATM   42  C   UNL     1     -10.503   7.774  71.356  1.00  0.00    -0.208 C  
HETATM   43  H   UNL     1     -11.955   9.118  71.298  1.00  0.00     0.000 HD 
HETATM   44  O   UNL     1     -11.413   8.646  70.676  1.00  0.00    -0.269 OA 
BRANCH  42  45
HETATM   45  C   UNL     1     -11.282   6.854  72.308  1.00  0.00    -0.263 C  
HETATM   46  O   UNL     1     -12.625   6.658  71.848  1.00  0.00    -0.415 OA 
HETATM   47  H   UNL     1     -13.107   6.089  72.437  1.00  0.00     0.000 HD 
ENDBRANCH  42  45
ENDBRANCH  41  42
ENDBRANCH  40  41
ENDBRANCH  37  40
ENDBRANCH  36  37
ENDBRANCH  35  36
ENDBRANCH  18  35
ENDBRANCH  17  18
ENDBRANCH  16  17
ENDBRANCH  14  16
ENDBRANCH  13  14
ENDBRANCH  12  13
ENDBRANCH  11  12
ENDBRANCH  10  11
ENDBRANCH   9  10
ENDBRANCH   8   9
ENDBRANCH   7   8
ENDBRANCH   6   7
ENDBRANCH   5   6
ENDBRANCH   4   5
ENDBRANCH   3   4
ENDBRANCH   2   3
TORSDOF 36
ENDMDL
MODEL       84
REMARK 921   NORMALIZED FREE ENERGY PREDICTED BY IDOCK:   -0.35 KCAL/MOL
REMARK 922        TOTAL FREE ENERGY PREDICTED BY IDOCK:   -6.57 KCAL/MOL
REMARK 923 INTER-LIGAND FREE ENERGY PREDICTED BY IDOCK:   -7.88 KCAL/MOL
REMARK 924 INTRA-LIGAND FREE ENERGY PREDICTED BY IDOCK:    1.31 KCAL/MOL
REMARK 927      BINDING AFFINITY PREDICTED BY RF-SCORE:    0.00 PKD
ROOT
HETATM    1  C   UNL     1      -8.406   9.005  70.711  1.00  0.00    -0.228 C  
HETATM    2  C   UNL     1      -7.318   9.212  71.752  1.00  0.00     0.161 C  
ENDROOT
BRANCH   2   3
HETATM    3  C   UNL     1      -7.720   8.619  73.101  1.00  0.00     0.055 C  
BRANCH   3   4
HETATM    4  C   UNL     1      -8.517   7.326  72.927  1.00  0.00    -0.134 C  
BRANCH   4   5
HETATM    5  C   UNL     1     -10.008   7.569  73.151  1.00  0.00    -0.344 C  
BRANCH   5   6
HETATM    6  C   UNL     1     -10.786   6.254  73.195  1.00  0.00    -0.286 C  
BRANCH   6   7
HETATM    7  C   UNL     1     -11.253   5.848  71.797  1.00  0.00    -0.311 C  
BRANCH   7   8
HETATM    8  C   UNL     1     -10.578   4.557  71.344  1.00  0.00     0.081 C  
BRANCH   8   9
HETATM    9  C   UNL     1      -9.564   4.824  70.234  1.00  0.00    -0.269 C  
BRANCH   9  10
HETATM   10  C   UNL     1      -9.786   6.206  69.620  1.00  0.00    -0.181 C  
BRANCH  10  11
HETATM   11  C   UNL     1     -10.558   6.129  68.305  1.00  0.00    -0.324 C  
BRANCH  11  12
HETATM   12  C   UNL     1      -9.909   7.032  67.257  1.00  0.00    -0.214 C  
BRANCH  12  13
HETATM   13  C   UNL     1      -8.432   7.272  67.548  1.00  0.00    -0.119 C  
BRANCH  13  14
HETATM   14  C   UNL     1      -7.639   6.005  67.324  1.00  0.00    -0.093 C  
HETATM   15  O   UNL     1      -7.877   4.926  67.849  1.00  0.00    -0.086 OA 
BRANCH  14  16
HETATM   16  O   UNL     1      -6.656   6.227  66.406  1.00  0.00    -0.045 OA 
BRANCH  16  17
HETATM   17  C   UNL     1      -6.944   7.266  65.455  1.00  0.00    -0.060 C  
BRANCH  17  18
HETATM   18  C   UNL     1      -5.685   7.676  64.678  1.00  0.00    -0.037 C  
BRANCH  18  19
HETATM   19  O   UNL     1      -6.023   8.785  63.811  1.00  0.00    -0.071 OA 
BRANCH  19  20
HETATM   20  C   UNL     1      -7.076   9.552  64.200  1.00  0.00    -0.112 C  
HETATM   21  O   UNL     1      -7.369   9.847  65.349  1.00  0.00    -0.115 OA 
BRANCH  20  22
HETATM   22  C   UNL     1      -7.846  10.023  62.991  1.00  0.00    -0.142 C  
BRANCH  22  23
HETATM   23  C   UNL     1      -9.350   9.996  63.236  1.00  0.00    -0.296 C  
BRANCH  23  24
HETATM   24  C   UNL     1      -9.780  10.956  64.348  1.00  0.00    -0.342 C  
BRANCH  24  25
HETATM   25  C   UNL     1     -10.504  12.172  63.774  1.00  0.00    -0.470 C  
BRANCH  25  26
HETATM   26  C   UNL     1     -10.421  13.358  64.731  1.00  0.00    -0.419 C  
BRANCH  26  27
HETATM   27  C   UNL     1     -10.396  12.898  66.185  1.00  0.00    -0.286 C  
BRANCH  27  28
HETATM   28  C   UNL     1     -11.813  12.718  66.723  1.00  0.00    -0.452 C  
BRANCH  28  29
HETATM   29  C   UNL     1     -11.911  11.481  67.613  1.00  0.00    -0.194 C  
BRANCH  29  30
HETATM   30  C   UNL     1     -10.531  11.051  68.104  1.00  0.00    -0.216 C  
BRANCH  30  31
HETATM   31  C   UNL     1     -10.640   9.959  69.167  1.00  0.00    -0.240 C  
BRANCH  31  32
HETATM   32  C   UNL     1     -11.452  10.442  70.367  1.00  0.00    -0.420 C  
BRANCH  32  33
HETATM   33  C   UNL     1     -12.287   9.310  70.962  1.00  0.00    -0.300 C  
HETATM   34  C   UNL     1     -13.733   9.734  71.153  1.00  0.00    -0.144 C  
ENDBRANCH  32  33
ENDBRANCH  31  32
ENDBRANCH  30  31
ENDBRANCH  29  30
ENDBRANCH  28  29
ENDBRANCH  27  28
ENDBRANCH  26  27
ENDBRANCH  25  26
ENDBRANCH  24  25
ENDBRANCH  23  24
ENDBRANCH  22  23
ENDBRANCH  20  22
ENDBRANCH  19  20
ENDBRANCH  18  19
BRANCH  18  35
HETATM   35  C   UNL     1      -5.233   6.516  63.793  1.00  0.00    -0.026 C  
BRANCH  35  36
HETATM   36  O   UNL     1      -5.606   5.254  64.365  1.00  0.00    -0.016 OA 
BRANCH  36  37
HETATM   37  P   UNL     1      -6.666   4.326  63.361  1.00  0.00    -0.040 P  
HETATM   38  O   UNL     1      -7.634   4.089  64.653  1.00  0.00    -0.075 OA 
HETATM   39  O   UNL     1      -7.003   5.614  62.638  1.00  0.00    -0.038 OA 
BRANCH  37  40
HETATM   40  O   UNL     1      -7.726   3.398  62.358  1.00  0.00    -0.055 OA 
BRANCH  40  41
HETATM   41  C   UNL     1      -7.858   1.980  62.669  1.00  0.00    -0.055 C  
BRANCH  41  42
HETATM   42  C   UNL     1      -9.049   1.538  63.561  1.00  0.00    -0.089 C  
HETATM   43  H   UNL     1      -9.728   1.920  65.380  1.00  0.00     0.000 HD 
HETATM   44  O   UNL     1      -8.998   2.191  64.834  1.00  0.00    -0.116 OA 
BRANCH  42  45
HETATM   45  C   UNL     1     -10.420   1.776  62.911  1.00  0.00    -0.125 C  
HETATM   46  O   UNL     1     -11.226   2.645  63.718  1.00  0.00    -0.592 OA 
HETATM   47  H   UNL     1     -12.074   2.792  63.316  1.00  0.00     0.000 HD 
ENDBRANCH  42  45
ENDBRANCH  41  42
ENDBRANCH  40  41
ENDBRANCH  37  40
ENDBRANCH  36  37
ENDBRANCH  35  36
ENDBRANCH  18  35
ENDBRANCH  17  18
ENDBRANCH  16  17
ENDBRANCH  14  16
ENDBRANCH  13  14
ENDBRANCH  12  13
ENDBRANCH  11  12
ENDBRANCH  10  11
ENDBRANCH   9  10
ENDBRANCH   8   9
ENDBRANCH   7   8
ENDBRANCH   6   7
ENDBRANCH   5   6
ENDBRANCH   4   5
ENDBRANCH   3   4
ENDBRANCH   2   3
TORSDOF 36
ENDMDL
MODEL       85
REMARK 921   NORMALIZED FREE ENERGY PREDICTED BY IDOCK:   -0.08 KCAL/MOL
REMARK 922        TOTAL FREE ENERGY PREDICTED BY IDOCK:   -5.72 KCAL/MOL
REMARK 923 INTER-LIGAND FREE ENERGY PREDICTED BY IDOCK:   -6.60 KCAL/MOL
REMARK 924 INTRA-LIGAND FREE ENERGY PREDICTED BY IDOCK:    0.88 KCAL/MOL
REMARK 927      BINDING AFFINITY PREDICTED BY RF-SCORE:    0.00 PKD
ROOT
HETATM    1  C   UNL     1      -6.602  12.433  68.962  1.00  0.00    -0.100 C  
HETATM    2  C   UNL     1      -8.045  12.900  68.869  1.00  0.00     0.211 C  
ENDROOT
BRANCH   2   3
HETATM    3  C   UNL     1      -8.903  11.902  68.092  1.00  0.00    -0.178 C  
BRANCH   3   4
HETATM    4  C   UNL     1      -9.626  10.938  69.032  1.00  0.00    -0.170 C  
BRANCH   4   5
HETATM    5  C   UNL     1      -8.917   9.585  69.077  1.00  0.00    -0.144 C  
BRANCH   5   6
HETATM    6  C   UNL     1      -7.836   9.560  70.157  1.00  0.00    -0.168 C  
BRANCH   6   7
HETATM    7  C   UNL     1      -7.420   8.125  70.482  1.00  0.00    -0.063 C  
BRANCH   7   8
HETATM    8  C   UNL     1      -8.561   7.147  70.216  1.00  0.00    -0.143 C  
BRANCH   8   9
HETATM    9  C   UNL     1      -8.567   6.687  68.761  1.00  0.00    -0.122 C  
BRANCH   9  10
HETATM   10  C   UNL     1      -7.146   6.660  68.197  1.00  0.00    -0.083 C  
BRANCH  10  11
HETATM   11  C   UNL     1      -7.002   7.561  66.972  1.00  0.00    -0.083 C  
BRANCH  11  12
HETATM   12  C   UNL     1      -5.534   7.921  66.751  1.00  0.00    -0.032 C  
BRANCH  12  13
HETATM   13  C   UNL     1      -5.280   9.414  66.935  1.00  0.00    -0.035 C  
BRANCH  13  14
HETATM   14  C   UNL     1      -6.196  10.216  66.041  1.00  0.00    -0.086 C  
HETATM   15  O   UNL     1      -7.330  10.571  66.333  1.00  0.00    -0.115 OA 
BRANCH  14  16
HETATM   16  O   UNL     1      -5.552  10.537  64.882  1.00  0.00    -0.128 OA 
BRANCH  16  17
HETATM   17  C   UNL     1      -5.950   9.762  63.738  1.00  0.00    -0.112 C  
BRANCH  17  18
HETATM   18  C   UNL     1      -7.460   9.490  63.745  1.00  0.00    -0.116 C  
BRANCH  18  19
HETATM   19  O   UNL     1      -7.671   8.076  63.968  1.00  0.00    -0.122 OA 
BRANCH  19  20
HETATM   20  C   UNL     1      -6.942   7.230  63.193  1.00  0.00    -0.059 C  
HETATM   21  O   UNL     1      -6.112   7.553  62.356  1.00  0.00    -0.060 OA 
BRANCH  20  22
HETATM   22  C   UNL     1      -7.284   5.799  63.525  1.00  0.00    -0.057 C  
BRANCH  22  23
HETATM   23  C   UNL     1      -8.606   5.697  64.277  1.00  0.00     0.034 C  
BRANCH  23  24
HETATM   24  C   UNL     1      -8.600   4.579  65.322  1.00  0.00    -0.128 C  
BRANCH  24  25
HETATM   25  C   UNL     1      -8.248   3.235  64.688  1.00  0.00    -0.090 C  
BRANCH  25  26
HETATM   26  C   UNL     1      -6.772   2.905  64.894  1.00  0.00    -0.040 C  
BRANCH  26  27
HETATM   27  C   UNL     1      -6.353   3.118  66.345  1.00  0.00    -0.028 C  
BRANCH  27  28
HETATM   28  C   UNL     1      -7.262   2.343  67.294  1.00  0.00    -0.056 C  
BRANCH  28  29
HETATM   29  C   UNL     1      -6.942   2.668  68.751  1.00  0.00    -0.044 C  
BRANCH  29  30
HETATM   30  C   UNL     1      -7.923   1.976  69.694  1.00  0.00    -0.053 C  
BRANCH  30  31
HETATM   31  C   UNL     1      -7.944   2.656  71.063  1.00  0.00    -0.054 C  
BRANCH  31  32
HETATM   32  C   UNL     1      -9.345   3.164  71.400  1.00  0.00    -0.207 C  
BRANCH  32  33
HETATM   33  C   UNL     1      -9.362   3.886  72.746  1.00  0.00    -0.145 C  
HETATM   34  C   UNL     1      -7.989   4.437  73.092  1.00  0.00    -0.095 C  
ENDBRANCH  32  33
ENDBRANCH  31  32
ENDBRANCH  30  31
ENDBRANCH  29  30
ENDBRANCH  28  29
ENDBRANCH  27  28
ENDBRANCH  26  27
ENDBRANCH  25  26
ENDBRANCH  24  25
ENDBRANCH  23  24
ENDBRANCH  22  23
ENDBRANCH  20  22
ENDBRANCH  19  20
ENDBRANCH  18  19
BRANCH  18  35
HETATM   35  C   UNL     1      -8.045   9.837  62.378  1.00  0.00    -0.127 C  
BRANCH  35  36
HETATM   36  O   UNL     1      -9.480   9.826  62.412  1.00  0.00    -0.259 OA 
BRANCH  36  37
HETATM   37  P   UNL     1     -10.148  10.720  63.733  1.00  0.00    -0.189 P  
HETATM   38  O   UNL     1      -9.677   9.526  64.740  1.00  0.00    -0.169 OA 
HETATM   39  O   UNL     1      -9.046  11.737  63.517  1.00  0.00     0.024 OA 
BRANCH  37  40
HETATM   40  O   UNL     1     -10.816  11.613  65.056  1.00  0.00    -0.287 OA 
BRANCH  40  41
HETATM   41  C   UNL     1     -10.555  13.046  65.084  1.00  0.00    -0.312 C  
BRANCH  41  42
HETATM   42  C   UNL     1     -11.465  13.969  64.229  1.00  0.00    -0.297 C  
HETATM   43  H   UNL     1     -13.401  14.327  64.030  1.00  0.00     0.000 HD 
HETATM   44  O   UNL     1     -12.844  13.763  64.554  1.00  0.00    -0.648 OA 
BRANCH  42  45
HETATM   45  C   UNL     1     -11.119  15.459  64.359  1.00  0.00    -0.132 C  
HETATM   46  O   UNL     1     -12.161  16.277  63.811  1.00  0.00    -1.337 OA 
HETATM   47  H   UNL     1     -11.947  17.199  63.892  1.00  0.00     0.000 HD 
ENDBRANCH  42  45
ENDBRANCH  41  42
ENDBRANCH  40  41
ENDBRANCH  37  40
ENDBRANCH  36  37
ENDBRANCH  35  36
ENDBRANCH  18  35
ENDBRANCH  17  18
ENDBRANCH  16  17
ENDBRANCH  14  16
ENDBRANCH  13  14
ENDBRANCH  12  13
ENDBRANCH  11  12
ENDBRANCH  10  11
ENDBRANCH   9  10
ENDBRANCH   8   9
ENDBRANCH   7   8
ENDBRANCH   6   7
ENDBRANCH   5   6
ENDBRANCH   4   5
ENDBRANCH   3   4
ENDBRANCH   2   3
TORSDOF 36
ENDMDL
MODEL       86
REMARK 921   NORMALIZED FREE ENERGY PREDICTED BY IDOCK:   -0.01 KCAL/MOL
REMARK 922        TOTAL FREE ENERGY PREDICTED BY IDOCK:   -5.49 KCAL/MOL
REMARK 923 INTER-LIGAND FREE ENERGY PREDICTED BY IDOCK:   -6.13 KCAL/MOL
REMARK 924 INTRA-LIGAND FREE ENERGY PREDICTED BY IDOCK:    0.64 KCAL/MOL
REMARK 927      BINDING AFFINITY PREDICTED BY RF-SCORE:    0.00 PKD
ROOT
HETATM    1  C   UNL     1      -9.631  20.699  66.591  1.00  0.00    -0.290 C  
HETATM    2  C   UNL     1      -8.679  19.653  67.148  1.00  0.00    -0.367 C  
ENDROOT
BRANCH   2   3
HETATM    3  C   UNL     1      -9.424  18.381  67.548  1.00  0.00    -0.277 C  
BRANCH   3   4
HETATM    4  C   UNL     1     -10.731  18.231  66.769  1.00  0.00    -0.247 C  
BRANCH   4   5
HETATM    5  C   UNL     1     -10.937  16.786  66.320  1.00  0.00     0.149 C  
BRANCH   5   6
HETATM    6  C   UNL     1     -10.606  15.803  67.442  1.00  0.00    -0.313 C  
BRANCH   6   7
HETATM    7  C   UNL     1     -10.472  14.379  66.902  1.00  0.00    -0.269 C  
BRANCH   7   8
HETATM    8  C   UNL     1     -10.213  14.383  65.398  1.00  0.00    -0.408 C  
BRANCH   8   9
HETATM    9  C   UNL     1     -10.808  13.146  64.731  1.00  0.00    -0.368 C  
BRANCH   9  10
HETATM   10  C   UNL     1      -9.975  11.906  65.051  1.00  0.00    -0.276 C  
BRANCH  10  11
HETATM   11  C   UNL     1     -10.629  11.041  66.126  1.00  0.00    -0.288 C  
BRANCH  11  12
HETATM   12  C   UNL     1     -10.525   9.563  65.753  1.00  0.00     0.253 C  
BRANCH  12  13
HETATM   13  C   UNL     1      -9.117   9.186  65.307  1.00  0.00    -0.252 C  
BRANCH  13  14
HETATM   14  C   UNL     1      -8.244   8.902  66.507  1.00  0.00    -0.114 C  
HETATM   15  O   UNL     1      -7.821   7.798  66.823  1.00  0.00    -0.103 OA 
BRANCH  14  16
HETATM   16  O   UNL     1      -7.950  10.065  67.155  1.00  0.00    -0.108 OA 
BRANCH  16  17
HETATM   17  C   UNL     1      -8.228  10.054  68.566  1.00  0.00    -0.108 C  
BRANCH  17  18
HETATM   18  C   UNL     1      -7.794   8.730  69.211  1.00  0.00    -0.100 C  
BRANCH  18  19
HETATM   19  O   UNL     1      -8.932   8.161  69.901  1.00  0.00    -0.142 OA 
BRANCH  19  20
HETATM   20  C   UNL     1     -10.114   8.817  69.752  1.00  0.00    -0.196 C  
HETATM   21  O   UNL     1     -10.403   9.902  70.234  1.00  0.00    -0.265 OA 
BRANCH  20  22
HETATM   22  C   UNL     1     -11.040   8.018  68.870  1.00  0.00     0.246 C  
BRANCH  22  23
HETATM   23  C   UNL     1     -10.811   6.520  69.023  1.00  0.00    -0.357 C  
BRANCH  23  24
HETATM   24  C   UNL     1     -10.891   5.775  67.688  1.00  0.00    -0.264 C  
BRANCH  24  25
HETATM   25  C   UNL     1     -10.368   4.346  67.823  1.00  0.00     0.206 C  
BRANCH  25  26
HETATM   26  C   UNL     1      -8.843   4.323  67.842  1.00  0.00    -0.128 C  
BRANCH  26  27
HETATM   27  C   UNL     1      -8.298   4.699  69.216  1.00  0.00    -0.084 C  
BRANCH  27  28
HETATM   28  C   UNL     1      -8.660   3.639  70.254  1.00  0.00    -0.105 C  
BRANCH  28  29
HETATM   29  C   UNL     1      -9.877   4.064  71.071  1.00  0.00    -0.230 C  
BRANCH  29  30
HETATM   30  C   UNL     1      -9.547   5.256  71.965  1.00  0.00    -0.189 C  
BRANCH  30  31
HETATM   31  C   UNL     1      -8.726   4.824  73.179  1.00  0.00    -0.109 C  
BRANCH  31  32
HETATM   32  C   UNL     1      -7.235   5.063  72.945  1.00  0.00    -0.085 C  
BRANCH  32  33
HETATM   33  C   UNL     1      -6.414   4.682  74.175  1.00  0.00    -0.061 C  
HETATM   34  C   UNL     1      -5.900   3.256  74.073  1.00  0.00    -0.003 C  
ENDBRANCH  32  33
ENDBRANCH  31  32
ENDBRANCH  30  31
ENDBRANCH  29  30
ENDBRANCH  28  29
ENDBRANCH  27  28
ENDBRANCH  26  27
ENDBRANCH  25  26
ENDBRANCH  24  25
ENDBRANCH  23  24
ENDBRANCH  22  23
ENDBRANCH  20  22
ENDBRANCH  19  20
ENDBRANCH  18  19
BRANCH  18  35
HETATM   35  C   UNL     1      -6.709   9.002  70.250  1.00  0.00    -0.047 C  
BRANCH  35  36
HETATM   36  O   UNL     1      -5.534   9.554  69.639  1.00  0.00    -0.034 OA 
BRANCH  36  37
HETATM   37  P   UNL     1      -5.334  11.247  69.929  1.00  0.00    -0.081 P  
HETATM   38  O   UNL     1      -6.387  11.549  68.720  1.00  0.00    -0.049 OA 
HETATM   39  O   UNL     1      -6.044  11.039  71.251  1.00  0.00    -0.334 OA 
BRANCH  37  40
HETATM   40  O   UNL     1      -5.134  12.942  70.218  1.00  0.00    -0.086 OA 
BRANCH  40  41
HETATM   41  C   UNL     1      -6.273  13.655  70.782  1.00  0.00     0.052 C  
BRANCH  41  42
HETATM   42  C   UNL     1      -6.392  15.176  70.499  1.00  0.00     0.035 C  
HETATM   43  H   UNL     1      -5.413  16.829  70.977  1.00  0.00     0.000 HD 
HETATM   44  O   UNL     1      -5.340  15.897  71.150  1.00  0.00    -0.110 OA 
BRANCH  42  45
HETATM   45  C   UNL     1      -6.405  15.520  69.002  1.00  0.00    -0.113 C  
HETATM   46  O   UNL     1      -7.575  14.991  68.364  1.00  0.00    -0.107 OA 
HETATM   47  H   UNL     1      -7.583  15.203  67.439  1.00  0.00     0.000 HD 
ENDBRANCH  42  45
ENDBRANCH  41  42
ENDBRANCH  40  41
ENDBRANCH  37  40
ENDBRANCH  36  37
ENDBRANCH  35  36
ENDBRANCH  18  35
ENDBRANCH  17  18
ENDBRANCH  16  17
ENDBRANCH  14  16
ENDBRANCH  13  14
ENDBRANCH  12  13
ENDBRANCH  11  12
ENDBRANCH  10  11
ENDBRANCH   9  10
ENDBRANCH   8   9
ENDBRANCH   7   8
ENDBRANCH   6   7
ENDBRANCH   5   6
ENDBRANCH   4   5
ENDBRANCH   3   4
ENDBRANCH   2   3
TORSDOF 36
ENDMDL
MODEL       87
REMARK 921   NORMALIZED FREE ENERGY PREDICTED BY IDOCK:    0.02 KCAL/MOL
REMARK 922        TOTAL FREE ENERGY PREDICTED BY IDOCK:   -5.42 KCAL/MOL
REMARK 923 INTER-LIGAND FREE ENERGY PREDICTED BY IDOCK:   -6.75 KCAL/MOL
REMARK 924 INTRA-LIGAND FREE ENERGY PREDICTED BY IDOCK:    1.34 KCAL/MOL
REMARK 927      BINDING AFFINITY PREDICTED BY RF-SCORE:    0.00 PKD
ROOT
HETATM    1  C   UNL     1     -11.902   7.203  69.256  1.00  0.00     0.550 C  
HETATM    2  C   UNL     1     -10.730   6.237  69.300  1.00  0.00    -0.367 C  
ENDROOT
BRANCH   2   3
HETATM    3  C   UNL     1     -10.156   6.124  70.711  1.00  0.00    -0.238 C  
BRANCH   3   4
HETATM    4  C   UNL     1     -10.155   7.476  71.424  1.00  0.00    -0.201 C  
BRANCH   4   5
HETATM    5  C   UNL     1     -10.862   7.381  72.775  1.00  0.00    -0.374 C  
BRANCH   5   6
HETATM    6  C   UNL     1     -12.323   7.817  72.670  1.00  0.00    -0.047 C  
BRANCH   6   7
HETATM    7  C   UNL     1     -12.428   9.307  72.348  1.00  0.00    -0.307 C  
BRANCH   7   8
HETATM    8  C   UNL     1     -12.959   9.530  70.935  1.00  0.00    -0.187 C  
BRANCH   8   9
HETATM    9  C   UNL     1     -13.283  11.001  70.690  1.00  0.00     0.083 C  
BRANCH   9  10
HETATM   10  C   UNL     1     -12.017  11.783  70.342  1.00  0.00    -0.422 C  
BRANCH  10  11
HETATM   11  C   UNL     1     -11.634  11.621  68.873  1.00  0.00    -0.377 C  
BRANCH  11  12
HETATM   12  C   UNL     1     -11.953  12.900  68.099  1.00  0.00    -0.306 C  
BRANCH  12  13
HETATM   13  C   UNL     1     -12.357  14.041  69.026  1.00  0.00    -0.139 C  
BRANCH  13  14
HETATM   14  C   UNL     1     -11.177  14.485  69.858  1.00  0.00    -0.203 C  
HETATM   15  O   UNL     1     -11.178  14.595  71.077  1.00  0.00    -0.156 OA 
BRANCH  14  16
HETATM   16  O   UNL     1     -10.093  14.690  69.057  1.00  0.00    -0.229 OA 
BRANCH  16  17
HETATM   17  C   UNL     1      -9.129  13.623  69.064  1.00  0.00     0.322 C  
BRANCH  17  18
HETATM   18  C   UNL     1      -8.906  13.062  67.653  1.00  0.00    -0.191 C  
BRANCH  18  19
HETATM   19  O   UNL     1      -7.671  12.309  67.649  1.00  0.00    -0.123 OA 
BRANCH  19  20
HETATM   20  C   UNL     1      -6.603  12.904  68.246  1.00  0.00    -0.091 C  
HETATM   21  O   UNL     1      -6.622  13.942  68.890  1.00  0.00    -0.091 OA 
BRANCH  20  22
HETATM   22  C   UNL     1      -5.360  12.079  68.021  1.00  0.00    -0.053 C  
BRANCH  22  23
HETATM   23  C   UNL     1      -5.320  11.493  66.615  1.00  0.00    -0.127 C  
BRANCH  23  24
HETATM   24  C   UNL     1      -5.568   9.983  66.602  1.00  0.00    -0.046 C  
BRANCH  24  25
HETATM   25  C   UNL     1      -5.862   9.462  68.007  1.00  0.00    -0.041 C  
BRANCH  25  26
HETATM   26  C   UNL     1      -7.329   9.065  68.146  1.00  0.00    -0.083 C  
BRANCH  26  27
HETATM   27  C   UNL     1      -7.487   7.552  68.252  1.00  0.00    -0.109 C  
BRANCH  27  28
HETATM   28  C   UNL     1      -7.517   6.909  66.868  1.00  0.00    -0.083 C  
BRANCH  28  29
HETATM   29  C   UNL     1      -8.938   6.872  66.310  1.00  0.00    -0.172 C  
BRANCH  29  30
HETATM   30  C   UNL     1      -9.228   8.111  65.469  1.00  0.00     0.045 C  
BRANCH  30  31
HETATM   31  C   UNL     1      -8.495   8.053  64.129  1.00  0.00     0.111 C  
BRANCH  31  32
HETATM   32  C   UNL     1      -8.590   9.389  63.394  1.00  0.00    -0.218 C  
BRANCH  32  33
HETATM   33  C   UNL     1      -8.705  10.553  64.375  1.00  0.00    -0.187 C  
HETATM   34  C   UNL     1     -10.114  11.123  64.391  1.00  0.00    -0.377 C  
ENDBRANCH  32  33
ENDBRANCH  31  32
ENDBRANCH  30  31
ENDBRANCH  29  30
ENDBRANCH  28  29
ENDBRANCH  27  28
ENDBRANCH  26  27
ENDBRANCH  25  26
ENDBRANCH  24  25
ENDBRANCH  23  24
ENDBRANCH  22  23
ENDBRANCH  20  22
ENDBRANCH  19  20
ENDBRANCH  18  19
BRANCH  18  35
HETATM   35  C   UNL     1      -8.751  14.216  66.665  1.00  0.00    -0.044 C  
BRANCH  35  36
HETATM   36  O   UNL     1      -7.431  14.775  66.727  1.00  0.00     0.075 OA 
BRANCH  36  37
HETATM   37  P   UNL     1      -7.402  16.497  66.573  1.00  0.00     0.024 P  
HETATM   38  O   UNL     1      -8.130  16.611  68.028  1.00  0.00    -0.173 OA 
HETATM   39  O   UNL     1      -5.895  16.419  66.706  1.00  0.00    -0.336 OA 
BRANCH  37  40
HETATM   40  O   UNL     1      -7.373  18.221  66.419  1.00  0.00    -0.218 OA 
BRANCH  40  41
HETATM   41  C   UNL     1      -8.657  18.909  66.456  1.00  0.00    -0.305 C  
BRANCH  41  42
HETATM   42  C   UNL     1      -8.990  19.762  67.710  1.00  0.00    -0.325 C  
HETATM   43  H   UNL     1      -8.998  21.677  68.210  1.00  0.00     0.000 HD 
HETATM   44  O   UNL     1      -8.794  21.155  67.443  1.00  0.00    -0.099 OA 
BRANCH  42  45
HETATM   45  C   UNL     1     -10.410  19.531  68.246  1.00  0.00    -0.411 C  
HETATM   46  O   UNL     1     -10.642  20.301  69.433  1.00  0.00    -0.514 OA 
HETATM   47  H   UNL     1     -11.521  20.158  69.764  1.00  0.00     0.000 HD 
ENDBRANCH  42  45
ENDBRANCH  41  42
ENDBRANCH  40  41
ENDBRANCH  37  40
ENDBRANCH  36  37
ENDBRANCH  35  36
ENDBRANCH  18  35
ENDBRANCH  17  18
ENDBRANCH  16  17
ENDBRANCH  14  16
ENDBRANCH  13  14
ENDBRANCH  12  13
ENDBRANCH  11  12
ENDBRANCH  10  11
ENDBRANCH   9  10
ENDBRANCH   8   9
ENDBRANCH   7   8
ENDBRANCH   6   7
ENDBRANCH   5   6
ENDBRANCH   4   5
ENDBRANCH   3   4
ENDBRANCH   2   3
TORSDOF 36
ENDMDL
MODEL       88
REMARK 921   NORMALIZED FREE ENERGY PREDICTED BY IDOCK:    0.19 KCAL/MOL
REMARK 922        TOTAL FREE ENERGY PREDICTED BY IDOCK:   -4.87 KCAL/MOL
REMARK 923 INTER-LIGAND FREE ENERGY PREDICTED BY IDOCK:   -7.57 KCAL/MOL
REMARK 924 INTRA-LIGAND FREE ENERGY PREDICTED BY IDOCK:    2.70 KCAL/MOL
REMARK 927      BINDING AFFINITY PREDICTED BY RF-SCORE:    0.00 PKD
ROOT
HETATM    1  C   UNL     1      -6.175   5.407  65.515  1.00  0.00    -0.034 C  
HETATM    2  C   UNL     1      -7.521   4.710  65.400  1.00  0.00    -0.081 C  
ENDROOT
BRANCH   2   3
HETATM    3  C   UNL     1      -7.469   3.301  65.988  1.00  0.00    -0.073 C  
BRANCH   3   4
HETATM    4  C   UNL     1      -8.869   2.775  66.302  1.00  0.00    -0.146 C  
BRANCH   4   5
HETATM    5  C   UNL     1      -8.886   2.031  67.637  1.00  0.00    -0.152 C  
BRANCH   5   6
HETATM    6  C   UNL     1      -9.763   2.748  68.662  1.00  0.00     0.083 C  
BRANCH   6   7
HETATM    7  C   UNL     1      -8.955   3.131  69.901  1.00  0.00    -0.171 C  
BRANCH   7   8
HETATM    8  C   UNL     1      -8.014   4.296  69.608  1.00  0.00    -0.056 C  
BRANCH   8   9
HETATM    9  C   UNL     1      -8.767   5.623  69.577  1.00  0.00    -0.109 C  
BRANCH   9  10
HETATM   10  C   UNL     1     -10.272   5.392  69.710  1.00  0.00    -0.348 C  
BRANCH  10  11
HETATM   11  C   UNL     1     -11.074   6.639  69.343  1.00  0.00    -0.365 C  
BRANCH  11  12
HETATM   12  C   UNL     1     -11.074   6.842  67.828  1.00  0.00    -0.223 C  
BRANCH  12  13
HETATM   13  C   UNL     1      -9.799   7.526  67.346  1.00  0.00    -0.221 C  
BRANCH  13  14
HETATM   14  C   UNL     1     -10.124   8.560  66.293  1.00  0.00    -0.104 C  
HETATM   15  O   UNL     1     -11.093   9.308  66.318  1.00  0.00     0.548 OA 
BRANCH  14  16
HETATM   16  O   UNL     1      -9.149   8.577  65.340  1.00  0.00    -0.152 OA 
BRANCH  16  17
HETATM   17  C   UNL     1      -8.547   9.864  65.120  1.00  0.00    -0.153 C  
BRANCH  17  18
HETATM   18  C   UNL     1      -9.232  10.952  65.957  1.00  0.00    -0.188 C  
BRANCH  18  19
HETATM   19  O   UNL     1      -9.473  12.100  65.109  1.00  0.00    -0.097 OA 
BRANCH  19  20
HETATM   20  C   UNL     1      -9.398  13.318  65.711  1.00  0.00     0.174 C  
HETATM   21  O   UNL     1      -8.604  13.645  66.580  1.00  0.00    -0.009 OA 
BRANCH  20  22
HETATM   22  C   UNL     1     -10.436  14.246  65.132  1.00  0.00    -0.432 C  
BRANCH  22  23
HETATM   23  C   UNL     1     -11.223  13.580  64.009  1.00  0.00    -0.259 C  
BRANCH  23  24
HETATM   24  C   UNL     1     -12.398  12.748  64.530  1.00  0.00    -0.515 C  
BRANCH  24  25
HETATM   25  C   UNL     1     -13.117  13.467  65.670  1.00  0.00    -0.028 C  
BRANCH  25  26
HETATM   26  C   UNL     1     -12.128  14.238  66.539  1.00  0.00    -0.454 C  
BRANCH  26  27
HETATM   27  C   UNL     1     -12.089  13.684  67.961  1.00  0.00    -0.309 C  
BRANCH  27  28
HETATM   28  C   UNL     1     -11.185  14.533  68.851  1.00  0.00    -0.283 C  
BRANCH  28  29
HETATM   29  C   UNL     1     -11.266  14.081  70.307  1.00  0.00     0.063 C  
BRANCH  29  30
HETATM   30  C   UNL     1     -12.710  14.075  70.799  1.00  0.00    -0.396 C  
BRANCH  30  31
HETATM   31  C   UNL     1     -13.248  15.497  70.945  1.00  0.00    -0.474 C  
BRANCH  31  32
HETATM   32  C   UNL     1     -14.095  15.635  72.209  1.00  0.00    -0.564 C  
BRANCH  32  33
HETATM   33  C   UNL     1     -13.306  16.300  73.335  1.00  0.00    -0.349 C  
HETATM   34  C   UNL     1     -12.593  15.267  74.191  1.00  0.00    -0.652 C  
ENDBRANCH  32  33
ENDBRANCH  31  32
ENDBRANCH  30  31
ENDBRANCH  29  30
ENDBRANCH  28  29
ENDBRANCH  27  28
ENDBRANCH  26  27
ENDBRANCH  25  26
ENDBRANCH  24  25
ENDBRANCH  23  24
ENDBRANCH  22  23
ENDBRANCH  20  22
ENDBRANCH  19  20
ENDBRANCH  18  19
BRANCH  18  35
HETATM   35  C   UNL     1      -8.298  11.393  67.082  1.00  0.00    -0.155 C  
BRANCH  35  36
HETATM   36  O   UNL     1      -8.286  10.435  68.150  1.00  0.00    -0.113 OA 
BRANCH  36  37
HETATM   37  P   UNL     1      -6.820  10.440  69.067  1.00  0.00    -0.080 P  
HETATM   38  O   UNL     1      -7.431   9.245  69.994  1.00  0.00    -0.071 OA 
HETATM   39  O   UNL     1      -6.125   9.894  67.836  1.00  0.00    -0.050 OA 
BRANCH  37  40
HETATM   40  O   UNL     1      -5.353  10.444  69.985  1.00  0.00    -0.037 OA 
BRANCH  40  41
HETATM   41  C   UNL     1      -5.164  11.543  70.923  1.00  0.00    -0.131 C  
BRANCH  41  42
HETATM   42  C   UNL     1      -6.122  12.760  70.821  1.00  0.00     0.263 C  
HETATM   43  H   UNL     1      -6.427  14.461  71.787  1.00  0.00     0.000 HD 
HETATM   44  O   UNL     1      -5.840  13.716  71.849  1.00  0.00    -0.392 OA 
BRANCH  42  45
HETATM   45  C   UNL     1      -6.090  13.450  69.450  1.00  0.00    -0.104 C  
HETATM   46  O   UNL     1      -7.333  14.112  69.179  1.00  0.00    -0.173 OA 
HETATM   47  H   UNL     1      -7.313  14.539  68.331  1.00  0.00     0.000 HD 
ENDBRANCH  42  45
ENDBRANCH  41  42
ENDBRANCH  40  41
ENDBRANCH  37  40
ENDBRANCH  36  37
ENDBRANCH  35  36
ENDBRANCH  18  35
ENDBRANCH  17  18
ENDBRANCH  16  17
ENDBRANCH  14  16
ENDBRANCH  13  14
ENDBRANCH  12  13
ENDBRANCH  11  12
ENDBRANCH  10  11
ENDBRANCH   9  10
ENDBRANCH   8   9
ENDBRANCH   7   8
ENDBRANCH   6   7
ENDBRANCH   5   6
ENDBRANCH   4   5
ENDBRANCH   3   4
ENDBRANCH   2   3
TORSDOF 36
ENDMDL
MODEL       89
REMARK 921   NORMALIZED FREE ENERGY PREDICTED BY IDOCK:    0.22 KCAL/MOL
REMARK 922        TOTAL FREE ENERGY PREDICTED BY IDOCK:   -4.78 KCAL/MOL
REMARK 923 INTER-LIGAND FREE ENERGY PREDICTED BY IDOCK:   -5.36 KCAL/MOL
REMARK 924 INTRA-LIGAND FREE ENERGY PREDICTED BY IDOCK:    0.59 KCAL/MOL
REMARK 927      BINDING AFFINITY PREDICTED BY RF-SCORE:    0.00 PKD
ROOT
HETATM    1  C   UNL     1      -8.109   9.393  71.921  1.00  0.00     0.844 C  
HETATM    2  C   UNL     1      -6.975   9.357  72.933  1.00  0.00     0.943 C  
ENDROOT
BRANCH   2   3
HETATM    3  C   UNL     1      -7.363   8.550  74.171  1.00  0.00    -0.152 C  
BRANCH   3   4
HETATM    4  C   UNL     1      -8.156   7.298  73.796  1.00  0.00    -0.147 C  
BRANCH   4   5
HETATM    5  C   UNL     1      -9.646   7.492  74.076  1.00  0.00    -0.175 C  
BRANCH   5   6
HETATM    6  C   UNL     1     -10.401   6.165  74.007  1.00  0.00    -0.311 C  
BRANCH   6   7
HETATM    7  C   UNL     1     -10.959   5.925  72.604  1.00  0.00    -0.305 C  
BRANCH   7   8
HETATM    8  C   UNL     1     -10.279   4.733  71.937  1.00  0.00    -0.261 C  
BRANCH   8   9
HETATM    9  C   UNL     1      -9.515   5.160  70.687  1.00  0.00    -0.229 C  
BRANCH   9  10
HETATM   10  C   UNL     1     -10.077   6.468  70.130  1.00  0.00    -0.204 C  
BRANCH  10  11
HETATM   11  C   UNL     1     -10.966   6.233  68.912  1.00  0.00    -0.435 C  
BRANCH  11  12
HETATM   12  C   UNL     1     -10.628   7.236  67.809  1.00  0.00    -0.289 C  
BRANCH  12  13
HETATM   13  C   UNL     1      -9.189   7.730  67.910  1.00  0.00    -0.141 C  
BRANCH  13  14
HETATM   14  C   UNL     1      -8.230   6.642  67.488  1.00  0.00    -0.122 C  
HETATM   15  O   UNL     1      -8.212   5.506  67.942  1.00  0.00    -0.100 OA 
BRANCH  14  16
HETATM   16  O   UNL     1      -7.424   7.095  66.485  1.00  0.00    -0.084 OA 
BRANCH  16  17
HETATM   17  C   UNL     1      -8.049   8.026  65.585  1.00  0.00    -0.121 C  
BRANCH  17  18
HETATM   18  C   UNL     1      -7.008   8.759  64.728  1.00  0.00    -0.073 C  
BRANCH  18  19
HETATM   19  O   UNL     1      -7.698   9.710  63.883  1.00  0.00    -0.119 OA 
BRANCH  19  20
HETATM   20  C   UNL     1      -8.749  10.363  64.447  1.00  0.00    -0.198 C  
HETATM   21  O   UNL     1      -8.937  10.531  65.643  1.00  0.00    -0.166 OA 
BRANCH  20  22
HETATM   22  C   UNL     1      -9.668  10.887  63.372  1.00  0.00    -0.392 C  
BRANCH  22  23
HETATM   23  C   UNL     1     -11.057  11.193  63.920  1.00  0.00    -0.168 C  
BRANCH  23  24
HETATM   24  C   UNL     1     -11.102  12.506  64.705  1.00  0.00    -0.338 C  
BRANCH  24  25
HETATM   25  C   UNL     1     -12.541  12.916  65.010  1.00  0.00    -0.538 C  
BRANCH  25  26
HETATM   26  C   UNL     1     -12.641  14.420  65.250  1.00  0.00    -0.333 C  
BRANCH  26  27
HETATM   27  C   UNL     1     -11.394  14.954  65.949  1.00  0.00    -0.306 C  
BRANCH  27  28
HETATM   28  C   UNL     1     -11.091  16.383  65.502  1.00  0.00     0.006 C  
BRANCH  28  29
HETATM   29  C   UNL     1     -10.606  17.233  66.674  1.00  0.00    -0.179 C  
BRANCH  29  30
HETATM   30  C   UNL     1      -9.371  16.615  67.324  1.00  0.00    -0.234 C  
BRANCH  30  31
HETATM   31  C   UNL     1      -9.639  16.254  68.784  1.00  0.00    -0.242 C  
BRANCH  31  32
HETATM   32  C   UNL     1      -8.336  15.953  69.522  1.00  0.00    -0.077 C  
BRANCH  32  33
HETATM   33  C   UNL     1      -7.592  14.786  68.878  1.00  0.00    -0.144 C  
HETATM   34  C   UNL     1      -6.164  14.694  69.388  1.00  0.00    -0.115 C  
ENDBRANCH  32  33
ENDBRANCH  31  32
ENDBRANCH  30  31
ENDBRANCH  29  30
ENDBRANCH  28  29
ENDBRANCH  27  28
ENDBRANCH  26  27
ENDBRANCH  25  26
ENDBRANCH  24  25
ENDBRANCH  23  24
ENDBRANCH  22  23
ENDBRANCH  20  22
ENDBRANCH  19  20
ENDBRANCH  18  19
BRANCH  18  35
HETATM   35  C   UNL     1      -6.301   7.757  63.819  1.00  0.00    -0.058 C  
BRANCH  35  36
HETATM   36  O   UNL     1      -6.277   6.449  64.410  1.00  0.00    -0.029 OA 
BRANCH  36  37
HETATM   37  P   UNL     1      -6.945   5.219  63.394  1.00  0.00    -0.044 P  
HETATM   38  O   UNL     1      -7.546   4.489  64.723  1.00  0.00    -0.072 OA 
HETATM   39  O   UNL     1      -7.894   6.270  62.855  1.00  0.00    -0.090 OA 
BRANCH  37  40
HETATM   40  O   UNL     1      -7.613   3.988  62.378  1.00  0.00    -0.050 OA 
BRANCH  40  41
HETATM   41  C   UNL     1      -7.817   2.675  62.978  1.00  0.00    -0.068 C  
BRANCH  41  42
HETATM   42  C   UNL     1      -6.560   1.834  63.332  1.00  0.00    -0.018 C  
HETATM   43  H   UNL     1      -4.608   1.928  63.019  1.00  0.00     0.000 HD 
HETATM   44  O   UNL     1      -5.377   2.443  62.802  1.00  0.00    -0.006 OA 
BRANCH  42  45
HETATM   45  C   UNL     1      -6.390   1.595  64.839  1.00  0.00    -0.018 C  
HETATM   46  O   UNL     1      -5.277   2.338  65.354  1.00  0.00    -0.007 OA 
HETATM   47  H   UNL     1      -5.172   2.190  66.286  1.00  0.00     0.000 HD 
ENDBRANCH  42  45
ENDBRANCH  41  42
ENDBRANCH  40  41
ENDBRANCH  37  40
ENDBRANCH  36  37
ENDBRANCH  35  36
ENDBRANCH  18  35
ENDBRANCH  17  18
ENDBRANCH  16  17
ENDBRANCH  14  16
ENDBRANCH  13  14
ENDBRANCH  12  13
ENDBRANCH  11  12
ENDBRANCH  10  11
ENDBRANCH   9  10
ENDBRANCH   8   9
ENDBRANCH   7   8
ENDBRANCH   6   7
ENDBRANCH   5   6
ENDBRANCH   4   5
ENDBRANCH   3   4
ENDBRANCH   2   3
TORSDOF 36
ENDMDL
MODEL       90
REMARK 921   NORMALIZED FREE ENERGY PREDICTED BY IDOCK:    0.81 KCAL/MOL
REMARK 922        TOTAL FREE ENERGY PREDICTED BY IDOCK:   -2.97 KCAL/MOL
REMARK 923 INTER-LIGAND FREE ENERGY PREDICTED BY IDOCK:   -5.21 KCAL/MOL
REMARK 924 INTRA-LIGAND FREE ENERGY PREDICTED BY IDOCK:    2.24 KCAL/MOL
REMARK 927      BINDING AFFINITY PREDICTED BY RF-SCORE:    0.00 PKD
ROOT
HETATM    1  C   UNL     1      -9.505  18.210  65.980  1.00  0.00    -0.046 C  
HETATM    2  C   UNL     1      -9.193  16.764  66.330  1.00  0.00    -0.313 C  
ENDROOT
BRANCH   2   3
HETATM    3  C   UNL     1      -9.736  15.808  65.269  1.00  0.00    -0.005 C  
BRANCH   3   4
HETATM    4  C   UNL     1     -11.114  15.270  65.654  1.00  0.00    -0.308 C  
BRANCH   4   5
HETATM    5  C   UNL     1     -11.162  13.749  65.528  1.00  0.00    -0.303 C  
BRANCH   5   6
HETATM    6  C   UNL     1     -12.231  13.149  66.440  1.00  0.00    -0.396 C  
BRANCH   6   7
HETATM    7  C   UNL     1     -12.255  13.856  67.795  1.00  0.00    -0.217 C  
BRANCH   7   8
HETATM    8  C   UNL     1     -11.008  13.527  68.611  1.00  0.00    -0.289 C  
BRANCH   8   9
HETATM    9  C   UNL     1     -10.328  12.261  68.096  1.00  0.00    -0.221 C  
BRANCH   9  10
HETATM   10  C   UNL     1      -8.811  12.365  68.242  1.00  0.00    -0.174 C  
BRANCH  10  11
HETATM   11  C   UNL     1      -8.197  11.066  68.758  1.00  0.00    -0.146 C  
BRANCH  11  12
HETATM   12  C   UNL     1      -8.842   9.865  68.068  1.00  0.00    -0.125 C  
BRANCH  12  13
HETATM   13  C   UNL     1      -7.804   8.948  67.431  1.00  0.00    -0.097 C  
BRANCH  13  14
HETATM   14  C   UNL     1      -6.983   8.263  68.498  1.00  0.00    -0.069 C  
HETATM   15  O   UNL     1      -6.476   8.821  69.462  1.00  0.00    -0.042 OA 
BRANCH  14  16
HETATM   16  O   UNL     1      -6.940   6.920  68.263  1.00  0.00    -0.074 OA 
BRANCH  16  17
HETATM   17  C   UNL     1      -6.418   6.136  69.349  1.00  0.00    -0.043 C  
BRANCH  17  18
HETATM   18  C   UNL     1      -5.608   4.938  68.834  1.00  0.00    -0.012 C  
BRANCH  18  19
HETATM   19  O   UNL     1      -5.160   5.231  67.489  1.00  0.00    -0.004 OA 
BRANCH  19  20
HETATM   20  C   UNL     1      -5.938   4.755  66.480  1.00  0.00    -0.027 C  
HETATM   21  O   UNL     1      -6.508   5.423  65.631  1.00  0.00    -0.038 OA 
BRANCH  20  22
HETATM   22  C   UNL     1      -5.989   3.248  66.535  1.00  0.00    -0.024 C  
BRANCH  22  23
HETATM   23  C   UNL     1      -5.134   2.617  65.443  1.00  0.00    -0.008 C  
BRANCH  23  24
HETATM   24  C   UNL     1      -5.911   1.598  64.606  1.00  0.00    -0.013 C  
BRANCH  24  25
HETATM   25  C   UNL     1      -7.414   1.714  64.854  1.00  0.00    -0.058 C  
BRANCH  25  26
HETATM   26  C   UNL     1      -8.065   2.641  63.832  1.00  0.00    -0.082 C  
BRANCH  26  27
HETATM   27  C   UNL     1      -8.721   1.851  62.704  1.00  0.00    -0.073 C  
BRANCH  27  28
HETATM   28  C   UNL     1     -10.152   1.467  63.069  1.00  0.00    -0.108 C  
BRANCH  28  29
HETATM   29  C   UNL     1     -11.007   2.708  63.318  1.00  0.00    -0.199 C  
BRANCH  29  30
HETATM   30  C   UNL     1     -10.166   3.846  63.889  1.00  0.00    -0.204 C  
BRANCH  30  31
HETATM   31  C   UNL     1     -10.754   4.362  65.201  1.00  0.00    -0.144 C  
BRANCH  31  32
HETATM   32  C   UNL     1      -9.767   5.280  65.920  1.00  0.00    -0.125 C  
BRANCH  32  33
HETATM   33  C   UNL     1     -10.488   6.229  66.874  1.00  0.00    -0.337 C  
HETATM   34  C   UNL     1     -10.754   5.565  68.215  1.00  0.00    -0.155 C  
ENDBRANCH  32  33
ENDBRANCH  31  32
ENDBRANCH  30  31
ENDBRANCH  29  30
ENDBRANCH  28  29
ENDBRANCH  27  28
ENDBRANCH  26  27
ENDBRANCH  25  26
ENDBRANCH  24  25
ENDBRANCH  23  24
ENDBRANCH  22  23
ENDBRANCH  20  22
ENDBRANCH  19  20
ENDBRANCH  18  19
BRANCH  18  35
HETATM   35  C   UNL     1      -6.507   3.707  68.766  1.00  0.00    -0.036 C  
BRANCH  35  36
HETATM   36  O   UNL     1      -6.000   2.649  69.593  1.00  0.00    -0.022 OA 
BRANCH  36  37
HETATM   37  P   UNL     1      -6.744   2.571  71.152  1.00  0.00    -0.032 P  
HETATM   38  O   UNL     1      -5.591   1.516  71.618  1.00  0.00    -0.007 OA 
HETATM   39  O   UNL     1      -6.308   4.007  71.361  1.00  0.00    -0.014 OA 
BRANCH  37  40
HETATM   40  O   UNL     1      -7.489   2.493  72.712  1.00  0.00    -0.042 OA 
BRANCH  40  41
HETATM   41  C   UNL     1      -7.755   3.759  73.382  1.00  0.00    -0.078 C  
BRANCH  41  42
HETATM   42  C   UNL     1      -9.051   4.525  73.004  1.00  0.00    -0.119 C  
HETATM   43  H   UNL     1     -10.976   4.445  73.459  1.00  0.00     0.000 HD 
HETATM   44  O   UNL     1     -10.182   3.977  73.690  1.00  0.00    -0.132 OA 
BRANCH  42  45
HETATM   45  C   UNL     1      -8.968   6.035  73.266  1.00  0.00    -0.130 C  
HETATM   46  O   UNL     1      -8.549   6.738  72.089  1.00  0.00    -0.118 OA 
HETATM   47  H   UNL     1      -8.497   7.673  72.252  1.00  0.00     0.000 HD 
ENDBRANCH  42  45
ENDBRANCH  41  42
ENDBRANCH  40  41
ENDBRANCH  37  40
ENDBRANCH  36  37
ENDBRANCH  35  36
ENDBRANCH  18  35
ENDBRANCH  17  18
ENDBRANCH  16  17
ENDBRANCH  14  16
ENDBRANCH  13  14
ENDBRANCH  12  13
ENDBRANCH  11  12
ENDBRANCH  10  11
ENDBRANCH   9  10
ENDBRANCH   8   9
ENDBRANCH   7   8
ENDBRANCH   6   7
ENDBRANCH   5   6
ENDBRANCH   4   5
ENDBRANCH   3   4
ENDBRANCH   2   3
TORSDOF 36
ENDMDL
MODEL       91
REMARK 921   NORMALIZED FREE ENERGY PREDICTED BY IDOCK:    0.83 KCAL/MOL
REMARK 922        TOTAL FREE ENERGY PREDICTED BY IDOCK:   -2.90 KCAL/MOL
REMARK 923 INTER-LIGAND FREE ENERGY PREDICTED BY IDOCK:   -3.57 KCAL/MOL
REMARK 924 INTRA-LIGAND FREE ENERGY PREDICTED BY IDOCK:    0.67 KCAL/MOL
REMARK 927      BINDING AFFINITY PREDICTED BY RF-SCORE:    0.00 PKD
ROOT
HETATM    1  C   UNL     1     -13.491  11.137  69.840  1.00  0.00     1.499 C  
HETATM    2  C   UNL     1     -12.184  11.534  69.172  1.00  0.00    -0.221 C  
ENDROOT
BRANCH   2   3
HETATM    3  C   UNL     1     -12.255  11.342  67.658  1.00  0.00     0.602 C  
BRANCH   3   4
HETATM    4  C   UNL     1     -11.050  10.560  67.137  1.00  0.00    -0.232 C  
BRANCH   4   5
HETATM    5  C   UNL     1     -10.513   9.609  68.205  1.00  0.00    -0.259 C  
BRANCH   5   6
HETATM    6  C   UNL     1     -11.036   8.188  67.997  1.00  0.00     0.122 C  
BRANCH   6   7
HETATM    7  C   UNL     1     -11.310   7.504  69.336  1.00  0.00     0.192 C  
BRANCH   7   8
HETATM    8  C   UNL     1     -10.489   8.136  70.456  1.00  0.00    -0.222 C  
BRANCH   8   9
HETATM    9  C   UNL     1      -9.582   7.107  71.127  1.00  0.00    -0.164 C  
BRANCH   9  10
HETATM   10  C   UNL     1     -10.394   6.178  72.029  1.00  0.00    -0.232 C  
BRANCH  10  11
HETATM   11  C   UNL     1     -10.781   6.855  73.342  1.00  0.00    -0.352 C  
BRANCH  11  12
HETATM   12  C   UNL     1      -9.562   6.974  74.256  1.00  0.00    -0.265 C  
BRANCH  12  13
HETATM   13  C   UNL     1      -8.259   6.733  73.501  1.00  0.00    -0.124 C  
BRANCH  13  14
HETATM   14  C   UNL     1      -7.429   7.995  73.471  1.00  0.00    -0.148 C  
HETATM   15  O   UNL     1      -7.545   8.932  74.250  1.00  0.00    -0.421 OA 
BRANCH  14  16
HETATM   16  O   UNL     1      -6.492   7.914  72.484  1.00  0.00    -0.059 OA 
BRANCH  16  17
HETATM   17  C   UNL     1      -5.808   6.651  72.407  1.00  0.00    -0.038 C  
BRANCH  17  18
HETATM   18  C   UNL     1      -5.540   6.249  70.950  1.00  0.00    -0.019 C  
BRANCH  18  19
HETATM   19  O   UNL     1      -6.363   7.071  70.088  1.00  0.00    -0.034 OA 
BRANCH  19  20
HETATM   20  C   UNL     1      -5.805   7.450  68.908  1.00  0.00    -0.023 C  
HETATM   21  O   UNL     1      -5.156   6.739  68.155  1.00  0.00    -0.007 OA 
BRANCH  20  22
HETATM   22  C   UNL     1      -6.121   8.898  68.628  1.00  0.00    -0.045 C  
BRANCH  22  23
HETATM   23  C   UNL     1      -6.987   9.507  69.724  1.00  0.00    -0.071 C  
BRANCH  23  24
HETATM   24  C   UNL     1      -7.563  10.868  69.327  1.00  0.00    -0.113 C  
BRANCH  24  25
HETATM   25  C   UNL     1      -6.532  11.700  68.566  1.00  0.00    -0.055 C  
BRANCH  25  26
HETATM   26  C   UNL     1      -7.216  12.674  67.610  1.00  0.00    -0.142 C  
BRANCH  26  27
HETATM   27  C   UNL     1      -8.732  12.505  67.636  1.00  0.00    -0.177 C  
BRANCH  27  28
HETATM   28  C   UNL     1      -9.427  13.757  67.105  1.00  0.00    -0.244 C  
BRANCH  28  29
HETATM   29  C   UNL     1      -9.160  14.958  68.009  1.00  0.00    -0.180 C  
BRANCH  29  30
HETATM   30  C   UNL     1     -10.332  15.935  67.979  1.00  0.00    -0.262 C  
BRANCH  30  31
HETATM   31  C   UNL     1     -10.097  17.048  66.959  1.00  0.00    -0.295 C  
BRANCH  31  32
HETATM   32  C   UNL     1     -10.581  16.630  65.571  1.00  0.00    -0.273 C  
BRANCH  32  33
HETATM   33  C   UNL     1     -10.682  15.111  65.455  1.00  0.00    -0.379 C  
HETATM   34  C   UNL     1     -12.117  14.640  65.624  1.00  0.00    -0.212 C  
ENDBRANCH  32  33
ENDBRANCH  31  32
ENDBRANCH  30  31
ENDBRANCH  29  30
ENDBRANCH  28  29
ENDBRANCH  27  28
ENDBRANCH  26  27
ENDBRANCH  25  26
ENDBRANCH  24  25
ENDBRANCH  23  24
ENDBRANCH  22  23
ENDBRANCH  20  22
ENDBRANCH  19  20
ENDBRANCH  18  19
BRANCH  18  35
HETATM   35  C   UNL     1      -5.954   4.795  70.739  1.00  0.00    -0.018 C  
BRANCH  35  36
HETATM   36  O   UNL     1      -6.807   4.661  69.593  1.00  0.00    -0.045 OA 
BRANCH  36  37
HETATM   37  P   UNL     1      -8.143   3.593  69.846  1.00  0.00    -0.052 P  
HETATM   38  O   UNL     1      -8.307   3.461  68.228  1.00  0.00    -0.079 OA 
HETATM   39  O   UNL     1      -7.151   2.586  70.392  1.00  0.00    -0.033 OA 
BRANCH  37  40
HETATM   40  O   UNL     1      -9.480   2.523  70.098  1.00  0.00    -0.129 OA 
BRANCH  40  41
HETATM   41  C   UNL     1      -9.469   1.727  71.319  1.00  0.00    -0.128 C  
BRANCH  41  42
HETATM   42  C   UNL     1      -9.009   2.415  72.632  1.00  0.00    -0.074 C  
HETATM   43  H   UNL     1      -9.535   2.414  74.540  1.00  0.00     0.000 HD 
HETATM   44  O   UNL     1      -9.817   1.993  73.736  1.00  0.00    -0.084 OA 
BRANCH  42  45
HETATM   45  C   UNL     1      -7.526   2.183  72.956  1.00  0.00    -0.037 C  
HETATM   46  O   UNL     1      -6.984   3.283  73.699  1.00  0.00    -0.035 OA 
HETATM   47  H   UNL     1      -6.067   3.139  73.899  1.00  0.00     0.000 HD 
ENDBRANCH  42  45
ENDBRANCH  41  42
ENDBRANCH  40  41
ENDBRANCH  37  40
ENDBRANCH  36  37
ENDBRANCH  35  36
ENDBRANCH  18  35
ENDBRANCH  17  18
ENDBRANCH  16  17
ENDBRANCH  14  16
ENDBRANCH  13  14
ENDBRANCH  12  13
ENDBRANCH  11  12
ENDBRANCH  10  11
ENDBRANCH   9  10
ENDBRANCH   8   9
ENDBRANCH   7   8
ENDBRANCH   6   7
ENDBRANCH   5   6
ENDBRANCH   4   5
ENDBRANCH   3   4
ENDBRANCH   2   3
TORSDOF 36
ENDMDL
MODEL       92
REMARK 921   NORMALIZED FREE ENERGY PREDICTED BY IDOCK:    0.90 KCAL/MOL
REMARK 922        TOTAL FREE ENERGY PREDICTED BY IDOCK:   -2.69 KCAL/MOL
REMARK 923 INTER-LIGAND FREE ENERGY PREDICTED BY IDOCK:   -2.77 KCAL/MOL
REMARK 924 INTRA-LIGAND FREE ENERGY PREDICTED BY IDOCK:    0.08 KCAL/MOL
REMARK 927      BINDING AFFINITY PREDICTED BY RF-SCORE:    0.00 PKD
ROOT
HETATM    1  C   UNL     1     -13.420  11.363  70.014  1.00  0.00     1.606 C  
HETATM    2  C   UNL     1     -12.163  11.804  69.281  1.00  0.00    -0.202 C  
ENDROOT
BRANCH   2   3
HETATM    3  C   UNL     1     -12.364  11.773  67.767  1.00  0.00     0.767 C  
BRANCH   3   4
HETATM    4  C   UNL     1     -11.254  10.983  67.073  1.00  0.00    -0.255 C  
BRANCH   4   5
HETATM    5  C   UNL     1     -10.563  10.036  68.053  1.00  0.00    -0.280 C  
BRANCH   5   6
HETATM    6  C   UNL     1     -11.318   8.713  68.173  1.00  0.00     0.798 C  
BRANCH   6   7
HETATM    7  C   UNL     1     -11.277   8.187  69.607  1.00  0.00     0.085 C  
BRANCH   7   8
HETATM    8  C   UNL     1     -10.081   8.754  70.368  1.00  0.00    -0.223 C  
BRANCH   8   9
HETATM    9  C   UNL     1      -9.187   7.638  70.903  1.00  0.00    -0.150 C  
BRANCH   9  10
HETATM   10  C   UNL     1      -9.976   6.709  71.825  1.00  0.00    -0.188 C  
BRANCH  10  11
HETATM   11  C   UNL     1     -10.241   7.347  73.187  1.00  0.00    -0.363 C  
BRANCH  11  12
HETATM   12  C   UNL     1      -8.985   7.280  74.056  1.00  0.00    -0.268 C  
BRANCH  12  13
HETATM   13  C   UNL     1      -7.719   7.149  73.217  1.00  0.00    -0.098 C  
BRANCH  13  14
HETATM   14  C   UNL     1      -6.799   8.320  73.469  1.00  0.00    -0.121 C  
HETATM   15  O   UNL     1      -6.812   9.022  74.472  1.00  0.00    -0.367 OA 
BRANCH  14  16
HETATM   16  O   UNL     1      -5.911   8.445  72.442  1.00  0.00    -0.053 OA 
BRANCH  16  17
HETATM   17  C   UNL     1      -5.245   7.226  72.070  1.00  0.00    -0.036 C  
BRANCH  17  18
HETATM   18  C   UNL     1      -5.140   7.089  70.545  1.00  0.00    -0.022 C  
BRANCH  18  19
HETATM   19  O   UNL     1      -6.123   7.961  69.938  1.00  0.00    -0.026 OA 
BRANCH  19  20
HETATM   20  C   UNL     1      -5.927   8.266  68.628  1.00  0.00    -0.044 C  
HETATM   21  O   UNL     1      -5.726   7.470  67.723  1.00  0.00    -0.032 OA 
BRANCH  20  22
HETATM   22  C   UNL     1      -6.013   9.759  68.427  1.00  0.00    -0.046 C  
BRANCH  22  23
HETATM   23  C   UNL     1      -6.242  10.491  69.743  1.00  0.00    -0.074 C  
BRANCH  23  24
HETATM   24  C   UNL     1      -6.709  11.934  69.537  1.00  0.00    -0.054 C  
BRANCH  24  25
HETATM   25  C   UNL     1      -7.541  12.066  68.262  1.00  0.00    -0.117 C  
BRANCH  25  26
HETATM   26  C   UNL     1      -8.642  13.108  68.435  1.00  0.00    -0.124 C  
BRANCH  26  27
HETATM   27  C   UNL     1      -8.069  14.522  68.464  1.00  0.00    -0.148 C  
BRANCH  27  28
HETATM   28  C   UNL     1      -9.182  15.557  68.606  1.00  0.00    -0.202 C  
BRANCH  28  29
HETATM   29  C   UNL     1      -8.900  16.789  67.748  1.00  0.00    -0.208 C  
BRANCH  29  30
HETATM   30  C   UNL     1      -9.312  18.066  68.474  1.00  0.00    -0.312 C  
BRANCH  30  31
HETATM   31  C   UNL     1      -8.100  18.949  68.768  1.00  0.00    -0.354 C  
BRANCH  31  32
HETATM   32  C   UNL     1      -7.922  20.013  67.687  1.00  0.00    -0.338 C  
BRANCH  32  33
HETATM   33  C   UNL     1      -7.922  19.391  66.293  1.00  0.00    -0.330 C  
HETATM   34  C   UNL     1      -6.908  20.069  65.387  1.00  0.00    -0.337 C  
ENDBRANCH  32  33
ENDBRANCH  31  32
ENDBRANCH  30  31
ENDBRANCH  29  30
ENDBRANCH  28  29
ENDBRANCH  27  28
ENDBRANCH  26  27
ENDBRANCH  25  26
ENDBRANCH  24  25
ENDBRANCH  23  24
ENDBRANCH  22  23
ENDBRANCH  20  22
ENDBRANCH  19  20
ENDBRANCH  18  19
BRANCH  18  35
HETATM   35  C   UNL     1      -5.474   5.656  70.139  1.00  0.00    -0.008 C  
BRANCH  35  36
HETATM   36  O   UNL     1      -6.375   5.632  69.022  1.00  0.00    -0.034 OA 
BRANCH  36  37
HETATM   37  P   UNL     1      -7.754   4.618  69.268  1.00  0.00    -0.062 P  
HETATM   38  O   UNL     1      -7.762   4.291  67.669  1.00  0.00    -0.082 OA 
HETATM   39  O   UNL     1      -6.843   3.674  70.027  1.00  0.00    -0.033 OA 
BRANCH  37  40
HETATM   40  O   UNL     1      -9.134   3.602  69.512  1.00  0.00    -0.104 OA 
BRANCH  40  41
HETATM   41  C   UNL     1      -9.117   2.735  70.683  1.00  0.00    -0.121 C  
BRANCH  41  42
HETATM   42  C   UNL     1      -8.156   3.101  71.846  1.00  0.00    -0.059 C  
HETATM   43  H   UNL     1      -8.264   4.037  73.587  1.00  0.00     0.000 HD 
HETATM   44  O   UNL     1      -8.852   3.813  72.875  1.00  0.00    -0.093 OA 
BRANCH  42  45
HETATM   45  C   UNL     1      -7.438   1.886  72.451  1.00  0.00    -0.042 C  
HETATM   46  O   UNL     1      -6.330   1.485  71.635  1.00  0.00    -0.014 OA 
HETATM   47  H   UNL     1      -5.886   0.733  72.009  1.00  0.00     0.000 HD 
ENDBRANCH  42  45
ENDBRANCH  41  42
ENDBRANCH  40  41
ENDBRANCH  37  40
ENDBRANCH  36  37
ENDBRANCH  35  36
ENDBRANCH  18  35
ENDBRANCH  17  18
ENDBRANCH  16  17
ENDBRANCH  14  16
ENDBRANCH  13  14
ENDBRANCH  12  13
ENDBRANCH  11  12
ENDBRANCH  10  11
ENDBRANCH   9  10
ENDBRANCH   8   9
ENDBRANCH   7   8
ENDBRANCH   6   7
ENDBRANCH   5   6
ENDBRANCH   4   5
ENDBRANCH   3   4
ENDBRANCH   2   3
TORSDOF 36
ENDMDL
MODEL       93
REMARK 921   NORMALIZED FREE ENERGY PREDICTED BY IDOCK:    1.03 KCAL/MOL
REMARK 922        TOTAL FREE ENERGY PREDICTED BY IDOCK:   -2.29 KCAL/MOL
REMARK 923 INTER-LIGAND FREE ENERGY PREDICTED BY IDOCK:   -5.28 KCAL/MOL
REMARK 924 INTRA-LIGAND FREE ENERGY PREDICTED BY IDOCK:    2.99 KCAL/MOL
REMARK 927      BINDING AFFINITY PREDICTED BY RF-SCORE:    0.00 PKD
ROOT
HETATM    1  C   UNL     1      -8.420   9.014  70.702  1.00  0.00    -0.229 C  
HETATM    2  C   UNL     1      -7.353   9.209  71.766  1.00  0.00     0.161 C  
ENDROOT
BRANCH   2   3
HETATM    3  C   UNL     1      -7.792   8.622  73.107  1.00  0.00     0.048 C  
BRANCH   3   4
HETATM    4  C   UNL     1      -8.631   7.359  72.915  1.00  0.00    -0.160 C  
BRANCH   4   5
HETATM    5  C   UNL     1     -10.115   7.651  73.134  1.00  0.00    -0.382 C  
BRANCH   5   6
HETATM    6  C   UNL     1     -10.942   6.366  73.127  1.00  0.00    -0.249 C  
BRANCH   6   7
HETATM    7  C   UNL     1     -11.437   6.042  71.718  1.00  0.00    -0.314 C  
BRANCH   7   8
HETATM    8  C   UNL     1     -10.841   4.732  71.212  1.00  0.00     0.197 C  
BRANCH   8   9
HETATM    9  C   UNL     1      -9.790   4.982  70.133  1.00  0.00    -0.303 C  
BRANCH   9  10
HETATM   10  C   UNL     1      -9.852   6.428  69.643  1.00  0.00    -0.182 C  
BRANCH  10  11
HETATM   11  C   UNL     1     -10.686   6.563  68.371  1.00  0.00    -0.339 C  
BRANCH  11  12
HETATM   12  C   UNL     1      -9.939   7.402  67.335  1.00  0.00    -0.239 C  
BRANCH  12  13
HETATM   13  C   UNL     1      -8.433   7.395  67.575  1.00  0.00    -0.116 C  
BRANCH  13  14
HETATM   14  C   UNL     1      -7.884   5.996  67.426  1.00  0.00    -0.102 C  
HETATM   15  O   UNL     1      -8.270   5.019  68.053  1.00  0.00    -0.097 OA 
BRANCH  14  16
HETATM   16  O   UNL     1      -6.935   5.970  66.447  1.00  0.00    -0.063 OA 
BRANCH  16  17
HETATM   17  C   UNL     1      -7.090   6.977  65.433  1.00  0.00    -0.068 C  
BRANCH  17  18
HETATM   18  C   UNL     1      -5.741   7.341  64.796  1.00  0.00    -0.037 C  
BRANCH  18  19
HETATM   19  O   UNL     1      -5.963   8.376  63.810  1.00  0.00    -0.069 OA 
BRANCH  19  20
HETATM   20  C   UNL     1      -7.061   9.157  63.996  1.00  0.00    -0.096 C  
HETATM   21  O   UNL     1      -7.499   9.543  65.069  1.00  0.00    -0.103 OA 
BRANCH  20  22
HETATM   22  C   UNL     1      -7.673   9.512  62.664  1.00  0.00    -0.115 C  
BRANCH  22  23
HETATM   23  C   UNL     1      -9.196   9.503  62.724  1.00  0.00    -0.092 C  
BRANCH  23  24
HETATM   24  C   UNL     1      -9.751  10.567  63.674  1.00  0.00    -0.375 C  
BRANCH  24  25
HETATM   25  C   UNL     1     -11.105  11.083  63.190  1.00  0.00     0.381 C  
BRANCH  25  26
HETATM   26  C   UNL     1     -11.344  12.515  63.659  1.00  0.00    -0.555 C  
BRANCH  26  27
HETATM   27  C   UNL     1     -10.414  12.883  64.812  1.00  0.00    -0.371 C  
BRANCH  27  28
HETATM   28  C   UNL     1     -11.174  12.912  66.136  1.00  0.00    -0.326 C  
BRANCH  28  29
HETATM   29  C   UNL     1     -10.352  12.277  67.255  1.00  0.00    -0.228 C  
BRANCH  29  30
HETATM   30  C   UNL     1      -8.891  12.126  66.842  1.00  0.00    -0.202 C  
BRANCH  30  31
HETATM   31  C   UNL     1      -7.958  12.298  68.041  1.00  0.00    -0.150 C  
BRANCH  31  32
HETATM   32  C   UNL     1      -8.040  13.717  68.599  1.00  0.00    -0.084 C  
BRANCH  32  33
HETATM   33  C   UNL     1      -6.763  14.092  69.347  1.00  0.00    -0.116 C  
HETATM   34  C   UNL     1      -7.056  15.048  70.492  1.00  0.00     0.448 C  
ENDBRANCH  32  33
ENDBRANCH  31  32
ENDBRANCH  30  31
ENDBRANCH  29  30
ENDBRANCH  28  29
ENDBRANCH  27  28
ENDBRANCH  26  27
ENDBRANCH  25  26
ENDBRANCH  24  25
ENDBRANCH  23  24
ENDBRANCH  22  23
ENDBRANCH  20  22
ENDBRANCH  19  20
ENDBRANCH  18  19
BRANCH  18  35
HETATM   35  C   UNL     1      -5.175   6.122  64.071  1.00  0.00    -0.017 C  
BRANCH  35  36
HETATM   36  O   UNL     1      -5.718   4.905  64.605  1.00  0.00    -0.016 OA 
BRANCH  36  37
HETATM   37  P   UNL     1      -6.712   4.041  63.484  1.00  0.00    -0.044 P  
HETATM   38  O   UNL     1      -7.758   3.729  64.696  1.00  0.00    -0.079 OA 
HETATM   39  O   UNL     1      -7.006   5.371  62.819  1.00  0.00    -0.035 OA 
BRANCH  37  40
HETATM   40  O   UNL     1      -7.707   3.177  62.363  1.00  0.00    -0.055 OA 
BRANCH  40  41
HETATM   41  C   UNL     1      -8.190   1.867  62.781  1.00  0.00    -0.064 C  
BRANCH  41  42
HETATM   42  C   UNL     1      -9.661   1.754  63.265  1.00  0.00    -0.098 C  
HETATM   43  H   UNL     1     -10.693   2.173  64.901  1.00  0.00     0.000 HD 
HETATM   44  O   UNL     1      -9.792   2.241  64.605  1.00  0.00    -0.051 OA 
BRANCH  42  45
HETATM   45  C   UNL     1     -10.661   2.476  62.351  1.00  0.00    -0.149 C  
HETATM   46  O   UNL     1     -12.011   2.207  62.753  1.00  0.00    -0.141 OA 
HETATM   47  H   UNL     1     -12.630   2.654  62.188  1.00  0.00     0.000 HD 
ENDBRANCH  42  45
ENDBRANCH  41  42
ENDBRANCH  40  41
ENDBRANCH  37  40
ENDBRANCH  36  37
ENDBRANCH  35  36
ENDBRANCH  18  35
ENDBRANCH  17  18
ENDBRANCH  16  17
ENDBRANCH  14  16
ENDBRANCH  13  14
ENDBRANCH  12  13
ENDBRANCH  11  12
ENDBRANCH  10  11
ENDBRANCH   9  10
ENDBRANCH   8   9
ENDBRANCH   7   8
ENDBRANCH   6   7
ENDBRANCH   5   6
ENDBRANCH   4   5
ENDBRANCH   3   4
ENDBRANCH   2   3
TORSDOF 36
ENDMDL
MODEL       94
REMARK 921   NORMALIZED FREE ENERGY PREDICTED BY IDOCK:    2.26 KCAL/MOL
REMARK 922        TOTAL FREE ENERGY PREDICTED BY IDOCK:    1.54 KCAL/MOL
REMARK 923 INTER-LIGAND FREE ENERGY PREDICTED BY IDOCK:   -5.04 KCAL/MOL
REMARK 924 INTRA-LIGAND FREE ENERGY PREDICTED BY IDOCK:    6.58 KCAL/MOL
REMARK 927      BINDING AFFINITY PREDICTED BY RF-SCORE:    0.00 PKD
ROOT
HETATM    1  C   UNL     1      -7.360   9.813  70.344  1.00  0.00    -0.151 C  
HETATM    2  C   UNL     1      -6.282  10.168  71.356  1.00  0.00     0.263 C  
ENDROOT
BRANCH   2   3
HETATM    3  C   UNL     1      -6.645   9.664  72.752  1.00  0.00     1.014 C  
BRANCH   3   4
HETATM    4  C   UNL     1      -7.455   8.370  72.686  1.00  0.00    -0.122 C  
BRANCH   4   5
HETATM    5  C   UNL     1      -8.914   8.620  73.065  1.00  0.00     0.043 C  
BRANCH   5   6
HETATM    6  C   UNL     1      -9.704   7.313  73.126  1.00  0.00    -0.254 C  
BRANCH   6   7
HETATM    7  C   UNL     1     -10.394   7.027  71.793  1.00  0.00    -0.216 C  
BRANCH   7   8
HETATM    8  C   UNL     1      -9.795   5.799  71.114  1.00  0.00    -0.227 C  
BRANCH   8   9
HETATM    9  C   UNL     1      -8.910   6.194  69.934  1.00  0.00    -0.140 C  
BRANCH   9  10
HETATM   10  C   UNL     1      -9.043   7.687  69.637  1.00  0.00    -0.147 C  
BRANCH  10  11
HETATM   11  C   UNL     1     -10.167   7.973  68.644  1.00  0.00    -0.225 C  
BRANCH  11  12
HETATM   12  C   UNL     1      -9.676   8.914  67.544  1.00  0.00    -0.216 C  
BRANCH  12  13
HETATM   13  C   UNL     1      -8.155   8.915  67.434  1.00  0.00    -0.108 C  
BRANCH  13  14
HETATM   14  C   UNL     1      -7.646   7.516  67.181  1.00  0.00    -0.107 C  
HETATM   15  O   UNL     1      -7.832   6.556  67.917  1.00  0.00    -0.105 OA 
BRANCH  14  16
HETATM   16  O   UNL     1      -6.997   7.465  65.982  1.00  0.00    -0.059 OA 
BRANCH  16  17
HETATM   17  C   UNL     1      -7.437   8.438  65.019  1.00  0.00    -0.089 C  
BRANCH  17  18
HETATM   18  C   UNL     1      -6.277   8.908  64.132  1.00  0.00    -0.072 C  
BRANCH  18  19
HETATM   19  O   UNL     1      -6.780   9.903  63.209  1.00  0.00    -0.114 OA 
BRANCH  19  20
HETATM   20  C   UNL     1      -7.918  10.547  63.582  1.00  0.00    -0.023 C  
HETATM   21  O   UNL     1      -8.231  10.858  64.721  1.00  0.00    -0.024 OA 
BRANCH  20  22
HETATM   22  C   UNL     1      -8.759  10.857  62.368  1.00  0.00    -0.355 C  
BRANCH  22  23
HETATM   23  C   UNL     1     -10.213  10.450  62.571  1.00  0.00     0.581 C  
BRANCH  23  24
HETATM   24  C   UNL     1     -10.769  10.915  63.919  1.00  0.00    -0.186 C  
BRANCH  24  25
HETATM   25  C   UNL     1     -11.550  12.220  63.771  1.00  0.00    -0.555 C  
BRANCH  25  26
HETATM   26  C   UNL     1     -11.022  13.284  64.729  1.00  0.00    -0.365 C  
BRANCH  26  27
HETATM   27  C   UNL     1     -10.303  12.653  65.918  1.00  0.00    -0.295 C  
BRANCH  27  28
HETATM   28  C   UNL     1     -11.291  12.300  67.026  1.00  0.00    -0.395 C  
BRANCH  28  29
HETATM   29  C   UNL     1     -10.606  12.288  68.390  1.00  0.00    -0.250 C  
BRANCH  29  30
HETATM   30  C   UNL     1     -10.658  13.668  69.040  1.00  0.00    -0.147 C  
BRANCH  30  31
HETATM   31  C   UNL     1     -11.853  13.787  69.985  1.00  0.00    -0.377 C  
BRANCH  31  32
HETATM   32  C   UNL     1     -11.469  14.529  71.264  1.00  0.00    -0.046 C  
BRANCH  32  33
HETATM   33  C   UNL     1     -12.281  14.032  72.458  1.00  0.00     0.139 C  
HETATM   34  C   UNL     1     -13.369  13.066  72.019  1.00  0.00    -0.588 C  
ENDBRANCH  32  33
ENDBRANCH  31  32
ENDBRANCH  30  31
ENDBRANCH  29  30
ENDBRANCH  28  29
ENDBRANCH  27  28
ENDBRANCH  26  27
ENDBRANCH  25  26
ENDBRANCH  24  25
ENDBRANCH  23  24
ENDBRANCH  22  23
ENDBRANCH  20  22
ENDBRANCH  19  20
ENDBRANCH  18  19
BRANCH  18  35
HETATM   35  C   UNL     1      -5.756   7.733  63.308  1.00  0.00    -0.054 C  
BRANCH  35  36
HETATM   36  O   UNL     1      -6.049   6.483  63.950  1.00  0.00    -0.032 OA 
BRANCH  36  37
HETATM   37  P   UNL     1      -7.271   5.561  63.144  1.00  0.00    -0.050 P  
HETATM   38  O   UNL     1      -8.047   5.399  64.570  1.00  0.00    -0.110 OA 
HETATM   39  O   UNL     1      -7.671   6.837  62.431  1.00  0.00    -0.083 OA 
BRANCH  37  40
HETATM   40  O   UNL     1      -8.494   4.639  62.339  1.00  0.00    -0.088 OA 
BRANCH  40  41
HETATM   41  C   UNL     1      -8.981   3.448  63.022  1.00  0.00    -0.093 C  
BRANCH  41  42
HETATM   42  C   UNL     1      -9.678   3.631  64.397  1.00  0.00    -0.177 C  
HETATM   43  H   UNL     1     -11.523   3.593  65.113  1.00  0.00     0.000 HD 
HETATM   44  O   UNL     1     -11.096   3.480  64.271  1.00  0.00    -0.235 OA 
BRANCH  42  45
HETATM   45  C   UNL     1      -9.150   2.680  65.482  1.00  0.00    -0.127 C  
HETATM   46  O   UNL     1      -7.835   3.063  65.904  1.00  0.00    -0.080 OA 
HETATM   47  H   UNL     1      -7.508   2.475  66.575  1.00  0.00     0.000 HD 
ENDBRANCH  42  45
ENDBRANCH  41  42
ENDBRANCH  40  41
ENDBRANCH  37  40
ENDBRANCH  36  37
ENDBRANCH  35  36
ENDBRANCH  18  35
ENDBRANCH  17  18
ENDBRANCH  16  17
ENDBRANCH  14  16
ENDBRANCH  13  14
ENDBRANCH  12  13
ENDBRANCH  11  12
ENDBRANCH  10  11
ENDBRANCH   9  10
ENDBRANCH   8   9
ENDBRANCH   7   8
ENDBRANCH   6   7
ENDBRANCH   5   6
ENDBRANCH   4   5
ENDBRANCH   3   4
ENDBRANCH   2   3
TORSDOF 36
ENDMDL
MODEL       95
REMARK 921   NORMALIZED FREE ENERGY PREDICTED BY IDOCK:    2.72 KCAL/MOL
REMARK 922        TOTAL FREE ENERGY PREDICTED BY IDOCK:    2.97 KCAL/MOL
REMARK 923 INTER-LIGAND FREE ENERGY PREDICTED BY IDOCK:    1.36 KCAL/MOL
REMARK 924 INTRA-LIGAND FREE ENERGY PREDICTED BY IDOCK:    1.62 KCAL/MOL
REMARK 927      BINDING AFFINITY PREDICTED BY RF-SCORE:    0.00 PKD
ROOT
HETATM    1  C   UNL     1      -6.974   6.855  67.744  1.00  0.00    -0.083 C  
HETATM    2  C   UNL     1      -6.459   6.166  66.491  1.00  0.00    -0.046 C  
ENDROOT
BRANCH   2   3
HETATM    3  C   UNL     1      -6.899   6.907  65.230  1.00  0.00    -0.051 C  
BRANCH   3   4
HETATM    4  C   UNL     1      -8.034   7.888  65.525  1.00  0.00    -0.119 C  
BRANCH   4   5
HETATM    5  C   UNL     1      -8.837   8.190  64.262  1.00  0.00     0.440 C  
BRANCH   5   6
HETATM    6  C   UNL     1      -8.803   9.680  63.924  1.00  0.00    -0.255 C  
BRANCH   6   7
HETATM    7  C   UNL     1     -10.189  10.307  64.072  1.00  0.00     0.089 C  
BRANCH   7   8
HETATM    8  C   UNL     1     -10.266  11.188  65.315  1.00  0.00    -0.337 C  
BRANCH   8   9
HETATM    9  C   UNL     1      -9.179  12.260  65.301  1.00  0.00     0.293 C  
BRANCH   9  10
HETATM   10  C   UNL     1      -7.890  11.731  65.929  1.00  0.00     0.555 C  
BRANCH  10  11
HETATM   11  C   UNL     1      -7.627  12.352  67.299  1.00  0.00    -0.141 C  
BRANCH  11  12
HETATM   12  C   UNL     1      -6.220  11.996  67.779  1.00  0.00    -0.081 C  
BRANCH  12  13
HETATM   13  C   UNL     1      -6.173  11.774  69.287  1.00  0.00    -0.092 C  
BRANCH  13  14
HETATM   14  C   UNL     1      -7.232  10.780  69.705  1.00  0.00    -0.125 C  
HETATM   15  O   UNL     1      -7.721  10.703  70.824  1.00  0.00     0.558 OA 
BRANCH  14  16
HETATM   16  O   UNL     1      -7.606  10.020  68.636  1.00  0.00    -0.083 OA 
BRANCH  16  17
HETATM   17  C   UNL     1      -8.970   9.565  68.670  1.00  0.00    -0.132 C  
BRANCH  17  18
HETATM   18  C   UNL     1      -9.056   8.090  69.085  1.00  0.00    -0.145 C  
BRANCH  18  19
HETATM   19  O   UNL     1     -10.221   7.918  69.926  1.00  0.00    -0.201 OA 
BRANCH  19  20
HETATM   20  C   UNL     1     -11.425   8.156  69.341  1.00  0.00     0.544 C  
HETATM   21  O   UNL     1     -12.150   7.325  68.816  1.00  0.00     1.340 OA 
BRANCH  20  22
HETATM   22  C   UNL     1     -11.770   9.621  69.449  1.00  0.00     0.260 C  
BRANCH  22  23
HETATM   23  C   UNL     1     -10.961  10.311  70.540  1.00  0.00    -0.343 C  
BRANCH  23  24
HETATM   24  C   UNL     1     -10.985  11.836  70.411  1.00  0.00     1.028 C  
BRANCH  24  25
HETATM   25  C   UNL     1     -12.356  12.398  70.780  1.00  0.00    -0.377 C  
BRANCH  25  26
HETATM   26  C   UNL     1     -12.839  13.393  69.730  1.00  0.00     0.440 C  
BRANCH  26  27
HETATM   27  C   UNL     1     -11.667  14.055  69.011  1.00  0.00    -0.368 C  
BRANCH  27  28
HETATM   28  C   UNL     1     -11.991  14.282  67.537  1.00  0.00    -0.411 C  
BRANCH  28  29
HETATM   29  C   UNL     1     -11.316  15.547  67.014  1.00  0.00    -0.106 C  
BRANCH  29  30
HETATM   30  C   UNL     1      -9.807  15.494  67.236  1.00  0.00    -0.224 C  
BRANCH  30  31
HETATM   31  C   UNL     1      -9.145  16.813  66.843  1.00  0.00    -0.248 C  
BRANCH  31  32
HETATM   32  C   UNL     1     -10.089  17.991  67.077  1.00  0.00    -0.348 C  
BRANCH  32  33
HETATM   33  C   UNL     1      -9.658  18.814  68.289  1.00  0.00    -0.395 C  
HETATM   34  C   UNL     1     -10.295  18.291  69.565  1.00  0.00     0.401 C  
ENDBRANCH  32  33
ENDBRANCH  31  32
ENDBRANCH  30  31
ENDBRANCH  29  30
ENDBRANCH  28  29
ENDBRANCH  27  28
ENDBRANCH  26  27
ENDBRANCH  25  26
ENDBRANCH  24  25
ENDBRANCH  23  24
ENDBRANCH  22  23
ENDBRANCH  20  22
ENDBRANCH  19  20
ENDBRANCH  18  19
BRANCH  18  35
HETATM   35  C   UNL     1      -7.827   7.721  69.912  1.00  0.00    -0.105 C  
BRANCH  35  36
HETATM   36  O   UNL     1      -8.199   7.291  71.229  1.00  0.00    -0.105 OA 
BRANCH  36  37
HETATM   37  P   UNL     1      -7.664   5.692  71.612  1.00  0.00    -0.110 P  
HETATM   38  O   UNL     1      -6.311   5.968  70.743  1.00  0.00    -0.037 OA 
HETATM   39  O   UNL     1      -7.513   6.156  73.046  1.00  0.00    -0.095 OA 
BRANCH  37  40
HETATM   40  O   UNL     1      -7.128   4.091  71.994  1.00  0.00    -0.046 OA 
BRANCH  40  41
HETATM   41  C   UNL     1      -8.020   2.994  71.644  1.00  0.00    -0.057 C  
BRANCH  41  42
HETATM   42  C   UNL     1      -9.400   3.347  71.027  1.00  0.00    -0.142 C  
HETATM   43  H   UNL     1     -10.236   3.354  69.233  1.00  0.00     0.000 HD 
HETATM   44  O   UNL     1      -9.391   3.138  69.611  1.00  0.00    -0.143 OA 
BRANCH  42  45
HETATM   45  C   UNL     1     -10.567   2.572  71.657  1.00  0.00     0.756 C  
HETATM   46  O   UNL     1     -11.192   3.340  72.694  1.00  0.00     0.202 OA 
HETATM   47  H   UNL     1     -11.914   2.861  73.084  1.00  0.00     0.000 HD 
ENDBRANCH  42  45
ENDBRANCH  41  42
ENDBRANCH  40  41
ENDBRANCH  37  40
ENDBRANCH  36  37
ENDBRANCH  35  36
ENDBRANCH  18  35
ENDBRANCH  17  18
ENDBRANCH  16  17
ENDBRANCH  14  16
ENDBRANCH  13  14
ENDBRANCH  12  13
ENDBRANCH  11  12
ENDBRANCH  10  11
ENDBRANCH   9  10
ENDBRANCH   8   9
ENDBRANCH   7   8
ENDBRANCH   6   7
ENDBRANCH   5   6
ENDBRANCH   4   5
ENDBRANCH   3   4
ENDBRANCH   2   3
TORSDOF 36
ENDMDL
MODEL       96
REMARK 921   NORMALIZED FREE ENERGY PREDICTED BY IDOCK:    2.75 KCAL/MOL
REMARK 922        TOTAL FREE ENERGY PREDICTED BY IDOCK:    3.08 KCAL/MOL
REMARK 923 INTER-LIGAND FREE ENERGY PREDICTED BY IDOCK:   -3.12 KCAL/MOL
REMARK 924 INTRA-LIGAND FREE ENERGY PREDICTED BY IDOCK:    6.20 KCAL/MOL
REMARK 927      BINDING AFFINITY PREDICTED BY RF-SCORE:    0.00 PKD
ROOT
HETATM    1  C   UNL     1      -5.609  10.024  71.115  1.00  0.00    -0.076 C  
HETATM    2  C   UNL     1      -6.570   9.718  69.979  1.00  0.00    -0.081 C  
ENDROOT
BRANCH   2   3
HETATM    3  C   UNL     1      -5.953   8.744  68.977  1.00  0.00    -0.043 C  
BRANCH   3   4
HETATM    4  C   UNL     1      -6.282   7.295  69.332  1.00  0.00    -0.031 C  
BRANCH   4   5
HETATM    5  C   UNL     1      -6.342   6.424  68.078  1.00  0.00    -0.036 C  
BRANCH   5   6
HETATM    6  C   UNL     1      -5.185   5.427  68.038  1.00  0.00    -0.004 C  
BRANCH   6   7
HETATM    7  C   UNL     1      -5.631   4.095  67.436  1.00  0.00    -0.021 C  
BRANCH   7   8
HETATM    8  C   UNL     1      -6.836   4.281  66.518  1.00  0.00    -0.055 C  
BRANCH   8   9
HETATM    9  C   UNL     1      -6.415   4.829  65.156  1.00  0.00    -0.036 C  
BRANCH   9  10
HETATM   10  C   UNL     1      -6.679   6.332  65.074  1.00  0.00    -0.043 C  
BRANCH  10  11
HETATM   11  C   UNL     1      -5.418   7.112  64.709  1.00  0.00    -0.032 C  
BRANCH  11  12
HETATM   12  C   UNL     1      -5.659   8.613  64.870  1.00  0.00    -0.047 C  
BRANCH  12  13
HETATM   13  C   UNL     1      -6.411   9.199  63.681  1.00  0.00    -0.090 C  
BRANCH  13  14
HETATM   14  C   UNL     1      -7.874   9.371  64.017  1.00  0.00    -0.128 C  
HETATM   15  O   UNL     1      -8.703   8.471  64.025  1.00  0.00    -0.029 OA 
BRANCH  14  16
HETATM   16  O   UNL     1      -8.123  10.665  64.368  1.00  0.00    -0.089 OA 
BRANCH  16  17
HETATM   17  C   UNL     1      -7.072  11.298  65.117  1.00  0.00     0.883 C  
BRANCH  17  18
HETATM   18  C   UNL     1      -7.167  10.956  66.611  1.00  0.00    -0.139 C  
BRANCH  18  19
HETATM   19  O   UNL     1      -8.527  11.191  67.049  1.00  0.00    -0.136 OA 
BRANCH  19  20
HETATM   20  C   UNL     1      -8.988  10.378  68.036  1.00  0.00    -0.129 C  
HETATM   21  O   UNL     1      -9.068   9.159  67.989  1.00  0.00    -0.132 OA 
BRANCH  20  22
HETATM   22  C   UNL     1      -9.379  11.198  69.240  1.00  0.00     0.123 C  
BRANCH  22  23
HETATM   23  C   UNL     1     -10.878  11.469  69.274  1.00  0.00    -0.217 C  
BRANCH  23  24
HETATM   24  C   UNL     1     -11.633  10.723  68.171  1.00  0.00    -0.276 C  
BRANCH  24  25
HETATM   25  C   UNL     1     -11.492   9.211  68.334  1.00  0.00     0.704 C  
BRANCH  25  26
HETATM   26  C   UNL     1     -11.135   8.848  69.772  1.00  0.00    -0.099 C  
BRANCH  26  27
HETATM   27  C   UNL     1     -11.224   7.342  70.004  1.00  0.00    -0.200 C  
BRANCH  27  28
HETATM   28  C   UNL     1     -11.286   7.024  71.495  1.00  0.00    -0.290 C  
BRANCH  28  29
HETATM   29  C   UNL     1     -12.383   6.005  71.795  1.00  0.00     0.154 C  
BRANCH  29  30
HETATM   30  C   UNL     1     -12.099   5.263  73.098  1.00  0.00     0.246 C  
BRANCH  30  31
HETATM   31  C   UNL     1     -10.991   4.227  72.912  1.00  0.00    -0.200 C  
BRANCH  31  32
HETATM   32  C   UNL     1      -9.725   4.873  72.353  1.00  0.00    -0.200 C  
BRANCH  32  33
HETATM   33  C   UNL     1      -8.826   3.838  71.681  1.00  0.00    -0.140 C  
HETATM   34  C   UNL     1      -8.507   4.232  70.249  1.00  0.00    -0.093 C  
ENDBRANCH  32  33
ENDBRANCH  31  32
ENDBRANCH  30  31
ENDBRANCH  29  30
ENDBRANCH  28  29
ENDBRANCH  27  28
ENDBRANCH  26  27
ENDBRANCH  25  26
ENDBRANCH  24  25
ENDBRANCH  23  24
ENDBRANCH  22  23
ENDBRANCH  20  22
ENDBRANCH  19  20
ENDBRANCH  18  19
BRANCH  18  35
HETATM   35  C   UNL     1      -6.256  11.888  67.405  1.00  0.00    -0.125 C  
BRANCH  35  36
HETATM   36  O   UNL     1      -6.262  13.212  66.853  1.00  0.00    -0.038 OA 
BRANCH  36  37
HETATM   37  P   UNL     1      -7.562  14.196  67.428  1.00  0.00     0.002 P  
HETATM   38  O   UNL     1      -8.615  13.157  66.739  1.00  0.00    -0.155 OA 
HETATM   39  O   UNL     1      -7.184  13.763  68.830  1.00  0.00    -0.109 OA 
BRANCH  37  40
HETATM   40  O   UNL     1      -8.864  15.180  68.004  1.00  0.00    -0.166 OA 
BRANCH  40  41
HETATM   41  C   UNL     1      -8.626  16.616  68.075  1.00  0.00    -0.193 C  
BRANCH  41  42
HETATM   42  C   UNL     1      -8.787  17.446  66.773  1.00  0.00    -0.251 C  
HETATM   43  H   UNL     1      -9.743  17.280  65.048  1.00  0.00     0.000 HD 
HETATM   44  O   UNL     1      -9.644  16.773  65.845  1.00  0.00    -0.458 OA 
BRANCH  42  45
HETATM   45  C   UNL     1      -9.304  18.871  67.017  1.00  0.00    -0.303 C  
HETATM   46  O   UNL     1      -8.518  19.832  66.299  1.00  0.00    -0.346 OA 
HETATM   47  H   UNL     1      -8.838  20.713  66.450  1.00  0.00     0.000 HD 
ENDBRANCH  42  45
ENDBRANCH  41  42
ENDBRANCH  40  41
ENDBRANCH  37  40
ENDBRANCH  36  37
ENDBRANCH  35  36
ENDBRANCH  18  35
ENDBRANCH  17  18
ENDBRANCH  16  17
ENDBRANCH  14  16
ENDBRANCH  13  14
ENDBRANCH  12  13
ENDBRANCH  11  12
ENDBRANCH  10  11
ENDBRANCH   9  10
ENDBRANCH   8   9
ENDBRANCH   7   8
ENDBRANCH   6   7
ENDBRANCH   5   6
ENDBRANCH   4   5
ENDBRANCH   3   4
ENDBRANCH   2   3
TORSDOF 36
ENDMDL
MODEL       97
REMARK 921   NORMALIZED FREE ENERGY PREDICTED BY IDOCK:    2.79 KCAL/MOL
REMARK 922        TOTAL FREE ENERGY PREDICTED BY IDOCK:    3.18 KCAL/MOL
REMARK 923 INTER-LIGAND FREE ENERGY PREDICTED BY IDOCK:   -0.94 KCAL/MOL
REMARK 924 INTRA-LIGAND FREE ENERGY PREDICTED BY IDOCK:    4.12 KCAL/MOL
REMARK 927      BINDING AFFINITY PREDICTED BY RF-SCORE:    0.00 PKD
ROOT
HETATM    1  C   UNL     1     -13.839  16.055  70.671  1.00  0.00     1.766 C  
HETATM    2  C   UNL     1     -12.326  15.916  70.652  1.00  0.00    -0.311 C  
ENDROOT
BRANCH   2   3
HETATM    3  C   UNL     1     -11.742  16.377  69.318  1.00  0.00     0.005 C  
BRANCH   3   4
HETATM    4  C   UNL     1     -11.962  15.334  68.222  1.00  0.00    -0.153 C  
BRANCH   4   5
HETATM    5  C   UNL     1     -11.541  13.945  68.698  1.00  0.00    -0.363 C  
BRANCH   5   6
HETATM    6  C   UNL     1     -10.037  13.880  68.964  1.00  0.00    -0.030 C  
BRANCH   6   7
HETATM    7  C   UNL     1      -9.615  14.943  69.977  1.00  0.00     0.315 C  
BRANCH   7   8
HETATM    8  C   UNL     1      -8.413  15.738  69.474  1.00  0.00    -0.138 C  
BRANCH   8   9
HETATM    9  C   UNL     1      -7.133  15.320  70.193  1.00  0.00     0.074 C  
BRANCH   9  10
HETATM   10  C   UNL     1      -7.029  13.797  70.271  1.00  0.00     0.547 C  
BRANCH  10  11
HETATM   11  C   UNL     1      -5.700  13.287  69.720  1.00  0.00    -0.114 C  
BRANCH  11  12
HETATM   12  C   UNL     1      -5.942  12.343  68.542  1.00  0.00    -0.055 C  
BRANCH  12  13
HETATM   13  C   UNL     1      -6.575  11.030  68.987  1.00  0.00    -0.065 C  
BRANCH  13  14
HETATM   14  C   UNL     1      -5.732   9.860  68.534  1.00  0.00    -0.042 C  
HETATM   15  O   UNL     1      -5.139   9.091  69.278  1.00  0.00    -0.035 OA 
BRANCH  14  16
HETATM   16  O   UNL     1      -5.776   9.753  67.175  1.00  0.00    -0.046 OA 
BRANCH  16  17
HETATM   17  C   UNL     1      -6.980   9.163  66.657  1.00  0.00    -0.081 C  
BRANCH  17  18
HETATM   18  C   UNL     1      -7.539   9.976  65.481  1.00  0.00    -0.136 C  
BRANCH  18  19
HETATM   19  O   UNL     1      -7.672  11.355  65.899  1.00  0.00     0.051 OA 
BRANCH  19  20
HETATM   20  C   UNL     1      -8.909  11.740  66.312  1.00  0.00    -0.142 C  
HETATM   21  O   UNL     1      -9.857  11.003  66.539  1.00  0.00    -0.193 OA 
BRANCH  20  22
HETATM   22  C   UNL     1      -8.954  13.239  66.482  1.00  0.00    -0.069 C  
BRANCH  22  23
HETATM   23  C   UNL     1     -10.221  13.835  65.880  1.00  0.00    -0.322 C  
BRANCH  23  24
HETATM   24  C   UNL     1      -9.973  14.481  64.515  1.00  0.00     0.624 C  
BRANCH  24  25
HETATM   25  C   UNL     1     -10.360  15.959  64.528  1.00  0.00     0.759 C  
BRANCH  25  26
HETATM   26  C   UNL     1     -10.722  16.416  65.938  1.00  0.00    -0.219 C  
BRANCH  26  27
HETATM   27  C   UNL     1      -9.921  17.649  66.346  1.00  0.00    -0.337 C  
BRANCH  27  28
HETATM   28  C   UNL     1      -8.782  17.269  67.289  1.00  0.00    -0.221 C  
BRANCH  28  29
HETATM   29  C   UNL     1      -7.521  16.906  66.510  1.00  0.00    -0.328 C  
BRANCH  29  30
HETATM   30  C   UNL     1      -7.191  17.976  65.473  1.00  0.00     0.090 C  
BRANCH  30  31
HETATM   31  C   UNL     1      -7.288  19.377  66.077  1.00  0.00    -0.306 C  
BRANCH  31  32
HETATM   32  C   UNL     1      -6.420  20.368  65.303  1.00  0.00    -0.313 C  
BRANCH  32  33
HETATM   33  C   UNL     1      -6.281  19.957  63.840  1.00  0.00    -0.071 C  
HETATM   34  C   UNL     1      -5.296  18.811  63.681  1.00  0.00    -0.144 C  
ENDBRANCH  32  33
ENDBRANCH  31  32
ENDBRANCH  30  31
ENDBRANCH  29  30
ENDBRANCH  28  29
ENDBRANCH  27  28
ENDBRANCH  26  27
ENDBRANCH  25  26
ENDBRANCH  24  25
ENDBRANCH  23  24
ENDBRANCH  22  23
ENDBRANCH  20  22
ENDBRANCH  19  20
ENDBRANCH  18  19
BRANCH  18  35
HETATM   35  C   UNL     1      -8.931   9.462  65.123  1.00  0.00    -0.212 C  
BRANCH  35  36
HETATM   36  O   UNL     1      -8.868   8.140  64.569  1.00  0.00     0.118 OA 
BRANCH  36  37
HETATM   37  P   UNL     1      -8.243   6.959  65.668  1.00  0.00    -0.126 P  
HETATM   38  O   UNL     1      -9.688   6.941  66.424  1.00  0.00    -0.153 OA 
HETATM   39  O   UNL     1      -8.208   5.990  64.504  1.00  0.00    -0.133 OA 
BRANCH  37  40
HETATM   40  O   UNL     1      -7.619   5.778  66.767  1.00  0.00    -0.093 OA 
BRANCH  40  41
HETATM   41  C   UNL     1      -8.535   4.733  67.206  1.00  0.00    -0.105 C  
BRANCH  41  42
HETATM   42  C   UNL     1      -8.138   3.257  66.937  1.00  0.00    -0.084 C  
HETATM   43  H   UNL     1      -7.455   2.184  65.421  1.00  0.00     0.000 HD 
HETATM   44  O   UNL     1      -7.698   3.088  65.585  1.00  0.00    -0.079 OA 
BRANCH  42  45
HETATM   45  C   UNL     1      -7.065   2.728  67.901  1.00  0.00    -0.049 C  
HETATM   46  O   UNL     1      -5.755   2.863  67.334  1.00  0.00    -0.020 OA 
HETATM   47  H   UNL     1      -5.092   2.536  67.930  1.00  0.00     0.000 HD 
ENDBRANCH  42  45
ENDBRANCH  41  42
ENDBRANCH  40  41
ENDBRANCH  37  40
ENDBRANCH  36  37
ENDBRANCH  35  36
ENDBRANCH  18  35
ENDBRANCH  17  18
ENDBRANCH  16  17
ENDBRANCH  14  16
ENDBRANCH  13  14
ENDBRANCH  12  13
ENDBRANCH  11  12
ENDBRANCH  10  11
ENDBRANCH   9  10
ENDBRANCH   8   9
ENDBRANCH   7   8
ENDBRANCH   6   7
ENDBRANCH   5   6
ENDBRANCH   4   5
ENDBRANCH   3   4
ENDBRANCH   2   3
TORSDOF 36
ENDMDL
MODEL       98
REMARK 921   NORMALIZED FREE ENERGY PREDICTED BY IDOCK:    3.07 KCAL/MOL
REMARK 922        TOTAL FREE ENERGY PREDICTED BY IDOCK:    4.05 KCAL/MOL
REMARK 923 INTER-LIGAND FREE ENERGY PREDICTED BY IDOCK:   -6.73 KCAL/MOL
REMARK 924 INTRA-LIGAND FREE ENERGY PREDICTED BY IDOCK:   10.78 KCAL/MOL
REMARK 927      BINDING AFFINITY PREDICTED BY RF-SCORE:    0.00 PKD
ROOT
HETATM    1  C   UNL     1     -12.163  11.662  69.338  1.00  0.00    -0.246 C  
HETATM    2  C   UNL     1     -11.223  11.529  68.151  1.00  0.00    -0.335 C  
ENDROOT
BRANCH   2   3
HETATM    3  C   UNL     1      -9.953  12.354  68.354  1.00  0.00    -0.210 C  
BRANCH   3   4
HETATM    4  C   UNL     1     -10.272  13.747  68.893  1.00  0.00    -0.111 C  
BRANCH   4   5
HETATM    5  C   UNL     1     -11.777  13.929  69.082  1.00  0.00    -0.382 C  
BRANCH   5   6
HETATM    6  C   UNL     1     -12.232  13.416  70.448  1.00  0.00    -0.415 C  
BRANCH   6   7
HETATM    7  C   UNL     1     -13.569  14.038  70.849  1.00  0.00    -0.002 C  
BRANCH   7   8
HETATM    8  C   UNL     1     -14.011  13.552  72.226  1.00  0.00    -0.638 C  
BRANCH   8   9
HETATM    9  C   UNL     1     -14.345  12.063  72.208  1.00  0.00     1.006 C  
BRANCH   9  10
HETATM   10  C   UNL     1     -13.093  11.226  72.469  1.00  0.00     0.734 C  
BRANCH  10  11
HETATM   11  C   UNL     1     -12.770  10.302  71.297  1.00  0.00    -0.523 C  
BRANCH  11  12
HETATM   12  C   UNL     1     -11.766   9.233  71.727  1.00  0.00    -0.456 C  
BRANCH  12  13
HETATM   13  C   UNL     1     -11.070   8.592  70.531  1.00  0.00    -0.268 C  
BRANCH  13  14
HETATM   14  C   UNL     1     -10.805   7.129  70.800  1.00  0.00    -0.244 C  
HETATM   15  O   UNL     1     -11.663   6.259  70.858  1.00  0.00    -0.333 OA 
BRANCH  14  16
HETATM   16  O   UNL     1      -9.463   6.911  70.911  1.00  0.00    -0.158 OA 
BRANCH  16  17
HETATM   17  C   UNL     1      -9.026   5.615  70.467  1.00  0.00    -0.138 C  
BRANCH  17  18
HETATM   18  C   UNL     1      -8.353   5.694  69.090  1.00  0.00    -0.100 C  
BRANCH  18  19
HETATM   19  O   UNL     1      -8.274   4.357  68.541  1.00  0.00    -0.084 OA 
BRANCH  19  20
HETATM   20  C   UNL     1      -8.204   4.267  67.186  1.00  0.00    -0.100 C  
HETATM   21  O   UNL     1      -8.311   3.246  66.523  1.00  0.00    -0.098 OA 
BRANCH  20  22
HETATM   22  C   UNL     1      -7.994   5.636  66.588  1.00  0.00    -0.101 C  
BRANCH  22  23
HETATM   23  C   UNL     1      -8.907   6.675  67.226  1.00  0.00    -0.116 C  
BRANCH  23  24
HETATM   24  C   UNL     1     -10.017   7.139  66.280  1.00  0.00     0.032 C  
BRANCH  24  25
HETATM   25  C   UNL     1     -10.411   8.588  66.563  1.00  0.00    -0.215 C  
BRANCH  25  26
HETATM   26  C   UNL     1      -9.181   9.437  66.871  1.00  0.00    -0.173 C  
BRANCH  26  27
HETATM   27  C   UNL     1      -8.632  10.097  65.609  1.00  0.00    -0.166 C  
BRANCH  27  28
HETATM   28  C   UNL     1      -8.830  11.610  65.657  1.00  0.00     0.050 C  
BRANCH  28  29
HETATM   29  C   UNL     1      -9.667  12.092  64.474  1.00  0.00    -0.060 C  
BRANCH  29  30
HETATM   30  C   UNL     1     -11.026  11.398  64.448  1.00  0.00    -0.371 C  
BRANCH  30  31
HETATM   31  C   UNL     1     -12.136  12.343  64.907  1.00  0.00    -0.470 C  
BRANCH  31  32
HETATM   32  C   UNL     1     -12.023  13.699  64.214  1.00  0.00    -0.488 C  
BRANCH  32  33
HETATM   33  C   UNL     1     -11.460  14.758  65.159  1.00  0.00    -0.371 C  
HETATM   34  C   UNL     1      -9.941  14.772  65.127  1.00  0.00    -0.279 C  
ENDBRANCH  32  33
ENDBRANCH  31  32
ENDBRANCH  30  31
ENDBRANCH  29  30
ENDBRANCH  28  29
ENDBRANCH  27  28
ENDBRANCH  26  27
ENDBRANCH  25  26
ENDBRANCH  24  25
ENDBRANCH  23  24
ENDBRANCH  22  23
ENDBRANCH  20  22
ENDBRANCH  19  20
ENDBRANCH  18  19
BRANCH  18  35
HETATM   35  C   UNL     1      -6.927   6.216  69.249  1.00  0.00    -0.064 C  
BRANCH  35  36
HETATM   36  O   UNL     1      -6.051   5.187  69.732  1.00  0.00    -0.020 OA 
BRANCH  36  37
HETATM   37  P   UNL     1      -5.976   5.095  71.457  1.00  0.00    -0.026 P  
HETATM   38  O   UNL     1      -6.125   6.718  71.521  1.00  0.00    -0.036 OA 
HETATM   39  O   UNL     1      -7.327   4.410  71.414  1.00  0.00    -0.052 OA 
BRANCH  37  40
HETATM   40  O   UNL     1      -5.901   5.004  73.183  1.00  0.00    -0.020 OA 
BRANCH  40  41
HETATM   41  C   UNL     1      -6.872   4.139  73.842  1.00  0.00    -0.059 C  
BRANCH  41  42
HETATM   42  C   UNL     1      -8.152   4.794  74.426  1.00  0.00    -0.095 C  
HETATM   43  H   UNL     1      -8.845   6.623  74.730  1.00  0.00     0.000 HD 
HETATM   44  O   UNL     1      -8.061   6.222  74.373  1.00  0.00    -0.119 OA 
BRANCH  42  45
HETATM   45  C   UNL     1      -9.444   4.332  73.735  1.00  0.00    -0.108 C  
HETATM   46  O   UNL     1     -10.599   4.772  74.460  1.00  0.00    -0.300 OA 
HETATM   47  H   UNL     1     -11.398   4.486  74.033  1.00  0.00     0.000 HD 
ENDBRANCH  42  45
ENDBRANCH  41  42
ENDBRANCH  40  41
ENDBRANCH  37  40
ENDBRANCH  36  37
ENDBRANCH  35  36
ENDBRANCH  18  35
ENDBRANCH  17  18
ENDBRANCH  16  17
ENDBRANCH  14  16
ENDBRANCH  13  14
ENDBRANCH  12  13
ENDBRANCH  11  12
ENDBRANCH  10  11
ENDBRANCH   9  10
ENDBRANCH   8   9
ENDBRANCH   7   8
ENDBRANCH   6   7
ENDBRANCH   5   6
ENDBRANCH   4   5
ENDBRANCH   3   4
ENDBRANCH   2   3
TORSDOF 36
ENDMDL
MODEL       99
REMARK 921   NORMALIZED FREE ENERGY PREDICTED BY IDOCK:    3.12 KCAL/MOL
REMARK 922        TOTAL FREE ENERGY PREDICTED BY IDOCK:    4.22 KCAL/MOL
REMARK 923 INTER-LIGAND FREE ENERGY PREDICTED BY IDOCK:    0.92 KCAL/MOL
REMARK 924 INTRA-LIGAND FREE ENERGY PREDICTED BY IDOCK:    3.30 KCAL/MOL
REMARK 927      BINDING AFFINITY PREDICTED BY RF-SCORE:    0.00 PKD
ROOT
HETATM    1  C   UNL     1      -9.331  17.055  65.471  1.00  0.00     0.492 C  
HETATM    2  C   UNL     1      -9.153  15.594  65.851  1.00  0.00    -0.277 C  
ENDROOT
BRANCH   2   3
HETATM    3  C   UNL     1      -9.779  14.669  64.809  1.00  0.00     0.543 C  
BRANCH   3   4
HETATM    4  C   UNL     1     -11.300  14.617  64.951  1.00  0.00    -0.403 C  
BRANCH   4   5
HETATM    5  C   UNL     1     -11.770  13.202  65.282  1.00  0.00    -0.375 C  
BRANCH   5   6
HETATM    6  C   UNL     1     -13.087  13.220  66.057  1.00  0.00     0.624 C  
BRANCH   6   7
HETATM    7  C   UNL     1     -13.197  14.477  66.919  1.00  0.00     2.496 C  
BRANCH   7   8
HETATM    8  C   UNL     1     -12.145  14.481  68.025  1.00  0.00    -0.233 C  
BRANCH   8   9
HETATM    9  C   UNL     1     -11.501  13.106  68.181  1.00  0.00    -0.349 C  
BRANCH   9  10
HETATM   10  C   UNL     1     -10.082  13.234  68.734  1.00  0.00    -0.083 C  
BRANCH  10  11
HETATM   11  C   UNL     1      -9.700  12.041  69.607  1.00  0.00     1.360 C  
BRANCH  11  12
HETATM   12  C   UNL     1     -10.208  10.743  68.980  1.00  0.00    -0.229 C  
BRANCH  12  13
HETATM   13  C   UNL     1      -9.082   9.946  68.329  1.00  0.00    -0.122 C  
BRANCH  13  14
HETATM   14  C   UNL     1      -8.004   9.638  69.342  1.00  0.00    -0.111 C  
HETATM   15  O   UNL     1      -7.658  10.384  70.249  1.00  0.00    -0.180 OA 
BRANCH  14  16
HETATM   16  O   UNL     1      -7.514   8.383  69.134  1.00  0.00    -0.084 OA 
BRANCH  16  17
HETATM   17  C   UNL     1      -6.655   7.892  70.177  1.00  0.00    -0.037 C  
BRANCH  17  18
HETATM   18  C   UNL     1      -5.515   7.038  69.606  1.00  0.00    -0.015 C  
BRANCH  18  19
HETATM   19  O   UNL     1      -5.236   7.487  68.258  1.00  0.00    -0.023 OA 
BRANCH  19  20
HETATM   20  C   UNL     1      -5.917   6.857  67.263  1.00  0.00    -0.017 C  
HETATM   21  O   UNL     1      -6.471   7.393  66.316  1.00  0.00    -0.043 OA 
BRANCH  20  22
HETATM   22  C   UNL     1      -5.878   5.364  67.476  1.00  0.00    -0.017 C  
BRANCH  22  23
HETATM   23  C   UNL     1      -5.140   4.654  66.347  1.00  0.00    -0.008 C  
BRANCH  23  24
HETATM   24  C   UNL     1      -5.892   3.422  65.839  1.00  0.00    -0.019 C  
BRANCH  24  25
HETATM   25  C   UNL     1      -7.400   3.580  66.031  1.00  0.00    -0.072 C  
BRANCH  25  26
HETATM   26  C   UNL     1      -8.021   4.338  64.861  1.00  0.00    -0.093 C  
BRANCH  26  27
HETATM   27  C   UNL     1      -7.732   3.644  63.533  1.00  0.00    -0.067 C  
BRANCH  27  28
HETATM   28  C   UNL     1      -8.388   2.267  63.484  1.00  0.00    -0.081 C  
BRANCH  28  29
HETATM   29  C   UNL     1      -9.845   2.336  63.936  1.00  0.00    -0.139 C  
BRANCH  29  30
HETATM   30  C   UNL     1     -10.493   3.645  63.493  1.00  0.00    -0.255 C  
BRANCH  30  31
HETATM   31  C   UNL     1     -11.355   4.238  64.607  1.00  0.00     0.500 C  
BRANCH  31  32
HETATM   32  C   UNL     1     -10.511   4.559  65.840  1.00  0.00    -0.262 C  
BRANCH  32  33
HETATM   33  C   UNL     1     -10.820   5.956  66.374  1.00  0.00    -0.110 C  
HETATM   34  C   UNL     1      -9.544   6.732  66.656  1.00  0.00    -0.211 C  
ENDBRANCH  32  33
ENDBRANCH  31  32
ENDBRANCH  30  31
ENDBRANCH  29  30
ENDBRANCH  28  29
ENDBRANCH  27  28
ENDBRANCH  26  27
ENDBRANCH  25  26
ENDBRANCH  24  25
ENDBRANCH  23  24
ENDBRANCH  22  23
ENDBRANCH  20  22
ENDBRANCH  19  20
ENDBRANCH  18  19
BRANCH  18  35
HETATM   35  C   UNL     1      -5.961   5.580  69.528  1.00  0.00    -0.017 C  
BRANCH  35  36
HETATM   36  O   UNL     1      -6.291   5.070  70.827  1.00  0.00    -0.021 OA 
BRANCH  36  37
HETATM   37  P   UNL     1      -7.970   4.704  71.021  1.00  0.00    -0.085 P  
HETATM   38  O   UNL     1      -7.974   5.588  72.393  1.00  0.00    -0.102 OA 
HETATM   39  O   UNL     1      -8.231   5.563  69.801  1.00  0.00    -0.098 OA 
BRANCH  37  40
HETATM   40  O   UNL     1      -9.650   4.339  71.216  1.00  0.00    -0.149 OA 
BRANCH  40  41
HETATM   41  C   UNL     1     -10.589   5.084  70.388  1.00  0.00    -0.072 C  
BRANCH  41  42
HETATM   42  C   UNL     1     -11.703   5.897  71.102  1.00  0.00     0.138 C  
HETATM   43  H   UNL     1     -11.879   7.009  72.730  1.00  0.00     0.000 HD 
HETATM   44  O   UNL     1     -11.198   6.511  72.293  1.00  0.00    -0.249 OA 
BRANCH  42  45
HETATM   45  C   UNL     1     -12.353   6.961  70.205  1.00  0.00     0.077 C  
HETATM   46  O   UNL     1     -13.463   7.581  70.868  1.00  0.00    -0.600 OA 
HETATM   47  H   UNL     1     -13.865   8.239  70.313  1.00  0.00     0.000 HD 
ENDBRANCH  42  45
ENDBRANCH  41  42
ENDBRANCH  40  41
ENDBRANCH  37  40
ENDBRANCH  36  37
ENDBRANCH  35  36
ENDBRANCH  18  35
ENDBRANCH  17  18
ENDBRANCH  16  17
ENDBRANCH  14  16
ENDBRANCH  13  14
ENDBRANCH  12  13
ENDBRANCH  11  12
ENDBRANCH  10  11
ENDBRANCH   9  10
ENDBRANCH   8   9
ENDBRANCH   7   8
ENDBRANCH   6   7
ENDBRANCH   5   6
ENDBRANCH   4   5
ENDBRANCH   3   4
ENDBRANCH   2   3
TORSDOF 36
ENDMDL
MODEL      100
REMARK 921   NORMALIZED FREE ENERGY PREDICTED BY IDOCK:    3.40 KCAL/MOL
REMARK 922        TOTAL FREE ENERGY PREDICTED BY IDOCK:    5.08 KCAL/MOL
REMARK 923 INTER-LIGAND FREE ENERGY PREDICTED BY IDOCK:   -2.79 KCAL/MOL
REMARK 924 INTRA-LIGAND FREE ENERGY PREDICTED BY IDOCK:    7.87 KCAL/MOL
REMARK 927      BINDING AFFINITY PREDICTED BY RF-SCORE:    0.00 PKD
ROOT
HETATM    1  C   UNL     1      -7.360   9.815  70.348  1.00  0.00    -0.151 C  
HETATM    2  C   UNL     1      -6.278  10.172  71.353  1.00  0.00     0.263 C  
ENDROOT
BRANCH   2   3
HETATM    3  C   UNL     1      -6.631   9.669  72.751  1.00  0.00     1.014 C  
BRANCH   3   4
HETATM    4  C   UNL     1      -7.441   8.374  72.691  1.00  0.00    -0.122 C  
BRANCH   4   5
HETATM    5  C   UNL     1      -8.894   8.620  73.095  1.00  0.00     0.082 C  
BRANCH   5   6
HETATM    6  C   UNL     1      -9.681   7.311  73.161  1.00  0.00    -0.254 C  
BRANCH   6   7
HETATM    7  C   UNL     1     -10.398   7.036  71.840  1.00  0.00    -0.213 C  
BRANCH   7   8
HETATM    8  C   UNL     1      -9.805   5.819  71.135  1.00  0.00    -0.227 C  
BRANCH   8   9
HETATM    9  C   UNL     1      -8.946   6.233  69.944  1.00  0.00    -0.141 C  
BRANCH   9  10
HETATM   10  C   UNL     1      -9.079   7.732  69.676  1.00  0.00    -0.146 C  
BRANCH  10  11
HETATM   11  C   UNL     1     -10.232   8.040  68.723  1.00  0.00    -0.220 C  
BRANCH  11  12
HETATM   12  C   UNL     1      -9.770   9.001  67.628  1.00  0.00    -0.196 C  
BRANCH  12  13
HETATM   13  C   UNL     1      -8.253   9.001  67.473  1.00  0.00    -0.109 C  
BRANCH  13  14
HETATM   14  C   UNL     1      -7.755   7.605  67.182  1.00  0.00    -0.112 C  
HETATM   15  O   UNL     1      -7.913   6.636  67.912  1.00  0.00    -0.110 OA 
BRANCH  14  16
HETATM   16  O   UNL     1      -7.155   7.570  65.958  1.00  0.00    -0.066 OA 
BRANCH  16  17
HETATM   17  C   UNL     1      -7.633   8.554  65.025  1.00  0.00    -0.093 C  
BRANCH  17  18
HETATM   18  C   UNL     1      -6.509   9.037  64.099  1.00  0.00    -0.083 C  
BRANCH  18  19
HETATM   19  O   UNL     1      -7.047  10.050  63.215  1.00  0.00    -0.126 OA 
BRANCH  19  20
HETATM   20  C   UNL     1      -8.168  10.687  63.645  1.00  0.00    -0.006 C  
HETATM   21  O   UNL     1      -8.207  11.724  64.290  1.00  0.00     1.163 OA 
BRANCH  20  22
HETATM   22  C   UNL     1      -9.396   9.939  63.188  1.00  0.00    -0.217 C  
BRANCH  22  23
HETATM   23  C   UNL     1     -10.380   9.721  64.332  1.00  0.00     1.191 C  
BRANCH  23  24
HETATM   24  C   UNL     1     -10.600  10.987  65.163  1.00  0.00    -0.295 C  
BRANCH  24  25
HETATM   25  C   UNL     1     -11.856  11.730  64.711  1.00  0.00    -0.174 C  
BRANCH  25  26
HETATM   26  C   UNL     1     -11.539  13.186  64.384  1.00  0.00    -0.422 C  
BRANCH  26  27
HETATM   27  C   UNL     1     -10.273  13.654  65.095  1.00  0.00    -0.349 C  
BRANCH  27  28
HETATM   28  C   UNL     1     -10.592  14.149  66.504  1.00  0.00    -0.282 C  
BRANCH  28  29
HETATM   29  C   UNL     1      -9.551  15.160  66.979  1.00  0.00    -0.235 C  
BRANCH  29  30
HETATM   30  C   UNL     1      -9.385  16.290  65.968  1.00  0.00    -0.361 C  
BRANCH  30  31
HETATM   31  C   UNL     1     -10.257  17.491  66.335  1.00  0.00    -0.354 C  
BRANCH  31  32
HETATM   32  C   UNL     1      -9.505  18.802  66.112  1.00  0.00    -0.199 C  
BRANCH  32  33
HETATM   33  C   UNL     1      -9.950  19.871  67.107  1.00  0.00    -0.557 C  
HETATM   34  C   UNL     1     -11.138  19.398  67.928  1.00  0.00     0.004 C  
ENDBRANCH  32  33
ENDBRANCH  31  32
ENDBRANCH  30  31
ENDBRANCH  29  30
ENDBRANCH  28  29
ENDBRANCH  27  28
ENDBRANCH  26  27
ENDBRANCH  25  26
ENDBRANCH  24  25
ENDBRANCH  23  24
ENDBRANCH  22  23
ENDBRANCH  20  22
ENDBRANCH  19  20
ENDBRANCH  18  19
BRANCH  18  35
HETATM   35  C   UNL     1      -6.026   7.875  63.234  1.00  0.00    -0.063 C  
BRANCH  35  36
HETATM   36  O   UNL     1      -6.286   6.615  63.870  1.00  0.00    -0.033 OA 
BRANCH  36  37
HETATM   37  P   UNL     1      -7.550   5.708  63.116  1.00  0.00    -0.091 P  
HETATM   38  O   UNL     1      -7.953   5.109  64.579  1.00  0.00    -0.094 OA 
HETATM   39  O   UNL     1      -8.244   7.026  62.841  1.00  0.00    -0.076 OA 
BRANCH  37  40
HETATM   40  O   UNL     1      -8.816   4.799  62.363  1.00  0.00    -0.115 OA 
BRANCH  40  41
HETATM   41  C   UNL     1      -8.997   3.423  62.807  1.00  0.00    -0.092 C  
BRANCH  41  42
HETATM   42  C   UNL     1      -9.373   3.182  64.294  1.00  0.00    -0.137 C  
HETATM   43  H   UNL     1     -10.986   2.683  65.327  1.00  0.00     0.000 HD 
HETATM   44  O   UNL     1     -10.755   2.830  64.416  1.00  0.00     0.166 OA 
BRANCH  42  45
HETATM   45  C   UNL     1      -8.504   2.118  64.979  1.00  0.00    -0.095 C  
HETATM   46  O   UNL     1      -7.179   2.611  65.216  1.00  0.00    -0.059 OA 
HETATM   47  H   UNL     1      -6.642   1.952  65.639  1.00  0.00     0.000 HD 
ENDBRANCH  42  45
ENDBRANCH  41  42
ENDBRANCH  40  41
ENDBRANCH  37  40
ENDBRANCH  36  37
ENDBRANCH  35  36
ENDBRANCH  18  35
ENDBRANCH  17  18
ENDBRANCH  16  17
ENDBRANCH  14  16
ENDBRANCH  13  14
ENDBRANCH  12  13
ENDBRANCH  11  12
ENDBRANCH  10  11
ENDBRANCH   9  10
ENDBRANCH   8   9
ENDBRANCH   7   8
ENDBRANCH   6   7
ENDBRANCH   5   6
ENDBRANCH   4   5
ENDBRANCH   3   4
ENDBRANCH   2   3
TORSDOF 36
ENDMDL
MODEL      101
REMARK 921   NORMALIZED FREE ENERGY PREDICTED BY IDOCK:    3.59 KCAL/MOL
REMARK 922        TOTAL FREE ENERGY PREDICTED BY IDOCK:    5.67 KCAL/MOL
REMARK 923 INTER-LIGAND FREE ENERGY PREDICTED BY IDOCK:   -0.55 KCAL/MOL
REMARK 924 INTRA-LIGAND FREE ENERGY PREDICTED BY IDOCK:    6.22 KCAL/MOL
REMARK 927      BINDING AFFINITY PREDICTED BY RF-SCORE:    0.00 PKD
ROOT
HETATM    1  C   UNL     1     -10.797   2.334  68.732  1.00  0.00     4.809 C  
HETATM    2  C   UNL     1      -9.489   3.033  68.399  1.00  0.00    -0.211 C  
ENDROOT
BRANCH   2   3
HETATM    3  C   UNL     1      -8.767   3.492  69.664  1.00  0.00    -0.127 C  
BRANCH   3   4
HETATM    4  C   UNL     1      -7.534   2.633  69.946  1.00  0.00    -0.043 C  
BRANCH   4   5
HETATM    5  C   UNL     1      -6.251   3.439  69.753  1.00  0.00    -0.028 C  
BRANCH   5   6
HETATM    6  C   UNL     1      -6.448   4.902  70.148  1.00  0.00    -0.035 C  
BRANCH   6   7
HETATM    7  C   UNL     1      -5.129   5.670  70.081  1.00  0.00    -0.005 C  
BRANCH   7   8
HETATM    8  C   UNL     1      -5.363   7.140  69.743  1.00  0.00    -0.015 C  
BRANCH   8   9
HETATM    9  C   UNL     1      -6.792   7.563  70.073  1.00  0.00    -0.051 C  
BRANCH   9  10
HETATM   10  C   UNL     1      -6.849   9.051  70.417  1.00  0.00    -0.055 C  
BRANCH  10  11
HETATM   11  C   UNL     1      -8.284   9.572  70.455  1.00  0.00    -0.203 C  
BRANCH  11  12
HETATM   12  C   UNL     1      -8.526  10.538  69.295  1.00  0.00    -0.138 C  
BRANCH  12  13
HETATM   13  C   UNL     1      -7.220  11.032  68.684  1.00  0.00    -0.091 C  
BRANCH  13  14
HETATM   14  C   UNL     1      -6.512   9.903  67.973  1.00  0.00    -0.056 C  
HETATM   15  O   UNL     1      -5.652  10.043  67.114  1.00  0.00    -0.045 OA 
BRANCH  14  16
HETATM   16  O   UNL     1      -6.930   8.704  68.471  1.00  0.00    -0.063 OA 
BRANCH  16  17
HETATM   17  C   UNL     1      -7.351   7.754  67.477  1.00  0.00    -0.092 C  
BRANCH  17  18
HETATM   18  C   UNL     1      -8.564   8.270  66.691  1.00  0.00    -0.129 C  
BRANCH  18  19
HETATM   19  O   UNL     1      -9.391   7.138  66.330  1.00  0.00    -0.167 OA 
BRANCH  19  20
HETATM   20  C   UNL     1     -10.227   6.673  67.296  1.00  0.00    -0.198 C  
HETATM   21  O   UNL     1     -10.277   5.526  67.716  1.00  0.00    -0.168 OA 
BRANCH  20  22
HETATM   22  C   UNL     1     -11.094   7.794  67.814  1.00  0.00     0.187 C  
BRANCH  22  23
HETATM   23  C   UNL     1     -11.841   7.388  69.078  1.00  0.00     1.115 C  
BRANCH  23  24
HETATM   24  C   UNL     1     -11.139   7.865  70.352  1.00  0.00    -0.249 C  
BRANCH  24  25
HETATM   25  C   UNL     1     -12.044   7.704  71.572  1.00  0.00    -0.338 C  
BRANCH  25  26
HETATM   26  C   UNL     1     -12.141   6.240  71.991  1.00  0.00    -0.321 C  
BRANCH  26  27
HETATM   27  C   UNL     1     -10.870   5.475  71.632  1.00  0.00    -0.271 C  
BRANCH  27  28
HETATM   28  C   UNL     1      -9.629   6.315  71.921  1.00  0.00    -0.163 C  
BRANCH  28  29
HETATM   29  C   UNL     1      -8.943   5.860  73.207  1.00  0.00    -0.130 C  
BRANCH  29  30
HETATM   30  C   UNL     1      -7.425   5.937  73.074  1.00  0.00    -0.095 C  
BRANCH  30  31
HETATM   31  C   UNL     1      -6.814   6.762  74.205  1.00  0.00    -0.083 C  
BRANCH  31  32
HETATM   32  C   UNL     1      -7.708   7.948  74.563  1.00  0.00    -0.254 C  
BRANCH  32  33
HETATM   33  C   UNL     1      -7.008   9.275  74.278  1.00  0.00     0.430 C  
HETATM   34  C   UNL     1      -5.640   9.053  73.655  1.00  0.00    -0.097 C  
ENDBRANCH  32  33
ENDBRANCH  31  32
ENDBRANCH  30  31
ENDBRANCH  29  30
ENDBRANCH  28  29
ENDBRANCH  27  28
ENDBRANCH  26  27
ENDBRANCH  25  26
ENDBRANCH  24  25
ENDBRANCH  23  24
ENDBRANCH  22  23
ENDBRANCH  20  22
ENDBRANCH  19  20
ENDBRANCH  18  19
BRANCH  18  35
HETATM   35  C   UNL     1      -8.090   8.930  65.398  1.00  0.00    -0.119 C  
BRANCH  35  36
HETATM   36  O   UNL     1      -9.200   9.388  64.613  1.00  0.00    -0.220 OA 
BRANCH  36  37
HETATM   37  P   UNL     1      -9.621  11.039  64.908  1.00  0.00    -0.265 P  
HETATM   38  O   UNL     1      -9.777  11.256  63.298  1.00  0.00    -0.310 OA 
HETATM   39  O   UNL     1     -10.905  10.533  65.532  1.00  0.00    -0.048 OA 
BRANCH  37  40
HETATM   40  O   UNL     1     -10.041  12.692  65.201  1.00  0.00    -0.281 OA 
BRANCH  40  41
HETATM   41  C   UNL     1     -10.901  12.962  66.347  1.00  0.00    -0.274 C  
BRANCH  41  42
HETATM   42  C   UNL     1     -12.195  13.785  66.107  1.00  0.00    -0.459 C  
HETATM   43  H   UNL     1     -13.058  15.398  66.864  1.00  0.00     0.000 HD 
HETATM   44  O   UNL     1     -12.266  14.894  67.010  1.00  0.00    -0.148 OA 
BRANCH  42  45
HETATM   45  C   UNL     1     -12.344  14.283  64.662  1.00  0.00    -0.415 C  
HETATM   46  O   UNL     1     -11.168  14.987  64.239  1.00  0.00    -0.638 OA 
HETATM   47  H   UNL     1     -11.260  15.295  63.345  1.00  0.00     0.000 HD 
ENDBRANCH  42  45
ENDBRANCH  41  42
ENDBRANCH  40  41
ENDBRANCH  37  40
ENDBRANCH  36  37
ENDBRANCH  35  36
ENDBRANCH  18  35
ENDBRANCH  17  18
ENDBRANCH  16  17
ENDBRANCH  14  16
ENDBRANCH  13  14
ENDBRANCH  12  13
ENDBRANCH  11  12
ENDBRANCH  10  11
ENDBRANCH   9  10
ENDBRANCH   8   9
ENDBRANCH   7   8
ENDBRANCH   6   7
ENDBRANCH   5   6
ENDBRANCH   4   5
ENDBRANCH   3   4
ENDBRANCH   2   3
TORSDOF 36
ENDMDL
MODEL      102
REMARK 921   NORMALIZED FREE ENERGY PREDICTED BY IDOCK:    4.02 KCAL/MOL
REMARK 922        TOTAL FREE ENERGY PREDICTED BY IDOCK:    7.01 KCAL/MOL
REMARK 923 INTER-LIGAND FREE ENERGY PREDICTED BY IDOCK:    3.04 KCAL/MOL
REMARK 924 INTRA-LIGAND FREE ENERGY PREDICTED BY IDOCK:    3.96 KCAL/MOL
REMARK 927      BINDING AFFINITY PREDICTED BY RF-SCORE:    0.00 PKD
ROOT
HETATM    1  C   UNL     1      -9.911   3.576  68.823  1.00  0.00     0.136 C  
HETATM    2  C   UNL     1      -9.589   4.970  68.309  1.00  0.00    -0.187 C  
ENDROOT
BRANCH   2   3
HETATM    3  C   UNL     1     -10.858   5.800  68.124  1.00  0.00    -0.249 C  
BRANCH   3   4
HETATM    4  C   UNL     1     -10.871   6.505  66.768  1.00  0.00    -0.345 C  
BRANCH   4   5
HETATM    5  C   UNL     1     -11.281   7.969  66.918  1.00  0.00     0.938 C  
BRANCH   5   6
HETATM    6  C   UNL     1     -11.246   8.410  68.381  1.00  0.00     0.536 C  
BRANCH   6   7
HETATM    7  C   UNL     1     -11.984   9.734  68.571  1.00  0.00     1.210 C  
BRANCH   7   8
HETATM    8  C   UNL     1     -11.617  10.732  67.476  1.00  0.00    -0.011 C  
BRANCH   8   9
HETATM    9  C   UNL     1     -11.400  10.030  66.138  1.00  0.00     1.252 C  
BRANCH   9  10
HETATM   10  C   UNL     1      -9.946   9.584  65.991  1.00  0.00    -0.348 C  
BRANCH  10  11
HETATM   11  C   UNL     1      -8.996  10.462  66.802  1.00  0.00    -0.153 C  
BRANCH  11  12
HETATM   12  C   UNL     1      -8.142  11.320  65.868  1.00  0.00     0.050 C  
BRANCH  12  13
HETATM   13  C   UNL     1      -7.568  12.539  66.581  1.00  0.00     0.362 C  
BRANCH  13  14
HETATM   14  C   UNL     1      -6.468  12.123  67.529  1.00  0.00    -0.134 C  
HETATM   15  O   UNL     1      -5.333  11.811  67.195  1.00  0.00    -0.086 OA 
BRANCH  14  16
HETATM   16  O   UNL     1      -6.908  12.203  68.817  1.00  0.00    -0.083 OA 
BRANCH  16  17
HETATM   17  C   UNL     1      -6.497  11.114  69.662  1.00  0.00    -0.128 C  
BRANCH  17  18
HETATM   18  C   UNL     1      -5.440  11.564  70.679  1.00  0.00    -0.142 C  
BRANCH  18  19
HETATM   19  O   UNL     1      -5.129  10.446  71.543  1.00  0.00    -0.084 OA 
BRANCH  19  20
HETATM   20  C   UNL     1      -5.566  10.541  72.828  1.00  0.00     0.765 C  
HETATM   21  O   UNL     1      -5.351  11.466  73.597  1.00  0.00    -0.050 OA 
BRANCH  20  22
HETATM   22  C   UNL     1      -6.392   9.330  73.184  1.00  0.00     0.368 C  
BRANCH  22  23
HETATM   23  C   UNL     1      -6.517   8.369  72.008  1.00  0.00    -0.069 C  
BRANCH  23  24
HETATM   24  C   UNL     1      -5.503   7.224  72.077  1.00  0.00    -0.037 C  
BRANCH  24  25
HETATM   25  C   UNL     1      -6.198   5.889  72.339  1.00  0.00    -0.045 C  
BRANCH  25  26
HETATM   26  C   UNL     1      -6.468   5.149  71.033  1.00  0.00    -0.027 C  
BRANCH  26  27
HETATM   27  C   UNL     1      -7.292   3.886  71.270  1.00  0.00    -0.040 C  
BRANCH  27  28
HETATM   28  C   UNL     1      -8.441   4.160  72.238  1.00  0.00    -0.106 C  
BRANCH  28  29
HETATM   29  C   UNL     1      -8.475   5.630  72.649  1.00  0.00    -0.120 C  
BRANCH  29  30
HETATM   30  C   UNL     1      -9.836   6.004  73.229  1.00  0.00    -0.168 C  
BRANCH  30  31
HETATM   31  C   UNL     1     -10.066   7.513  73.166  1.00  0.00    -0.362 C  
BRANCH  31  32
HETATM   32  C   UNL     1     -11.525   7.831  72.843  1.00  0.00    -0.359 C  
BRANCH  32  33
HETATM   33  C   UNL     1     -11.632   8.912  71.770  1.00  0.00    -0.422 C  
HETATM   34  C   UNL     1     -10.301   9.615  71.562  1.00  0.00     0.099 C  
ENDBRANCH  32  33
ENDBRANCH  31  32
ENDBRANCH  30  31
ENDBRANCH  29  30
ENDBRANCH  28  29
ENDBRANCH  27  28
ENDBRANCH  26  27
ENDBRANCH  25  26
ENDBRANCH  24  25
ENDBRANCH  23  24
ENDBRANCH  22  23
ENDBRANCH  20  22
ENDBRANCH  19  20
ENDBRANCH  18  19
BRANCH  18  35
HETATM   35  C   UNL     1      -6.014  12.679  71.550  1.00  0.00     0.989 C  
BRANCH  35  36
HETATM   36  O   UNL     1      -5.388  13.937  71.258  1.00  0.00    -0.143 OA 
BRANCH  36  37
HETATM   37  P   UNL     1      -6.375  15.000  70.316  1.00  0.00     0.001 P  
HETATM   38  O   UNL     1      -7.574  14.802  71.404  1.00  0.00     1.857 OA 
HETATM   39  O   UNL     1      -5.436  16.120  70.715  1.00  0.00    -0.147 OA 
BRANCH  37  40
HETATM   40  O   UNL     1      -7.363  16.063  69.374  1.00  0.00    -0.223 OA 
BRANCH  40  41
HETATM   41  C   UNL     1      -6.863  16.437  68.057  1.00  0.00    -0.137 C  
BRANCH  41  42
HETATM   42  C   UNL     1      -7.253  17.833  67.501  1.00  0.00    -0.190 C  
HETATM   43  H   UNL     1      -6.557  19.684  67.593  1.00  0.00     0.000 HD 
HETATM   44  O   UNL     1      -6.319  18.829  67.933  1.00  0.00    -0.201 OA 
BRANCH  42  45
HETATM   45  C   UNL     1      -7.376  17.868  65.971  1.00  0.00    -0.271 C  
HETATM   46  O   UNL     1      -7.584  19.207  65.504  1.00  0.00    -0.452 OA 
HETATM   47  H   UNL     1      -7.661  19.229  64.557  1.00  0.00     0.000 HD 
ENDBRANCH  42  45
ENDBRANCH  41  42
ENDBRANCH  40  41
ENDBRANCH  37  40
ENDBRANCH  36  37
ENDBRANCH  35  36
ENDBRANCH  18  35
ENDBRANCH  17  18
ENDBRANCH  16  17
ENDBRANCH  14  16
ENDBRANCH  13  14
ENDBRANCH  12  13
ENDBRANCH  11  12
ENDBRANCH  10  11
ENDBRANCH   9  10
ENDBRANCH   8   9
ENDBRANCH   7   8
ENDBRANCH   6   7
ENDBRANCH   5   6
ENDBRANCH   4   5
ENDBRANCH   3   4
ENDBRANCH   2   3
TORSDOF 36
ENDMDL
MODEL      103
REMARK 921   NORMALIZED FREE ENERGY PREDICTED BY IDOCK:    4.16 KCAL/MOL
REMARK 922        TOTAL FREE ENERGY PREDICTED BY IDOCK:    7.45 KCAL/MOL
REMARK 923 INTER-LIGAND FREE ENERGY PREDICTED BY IDOCK:    4.69 KCAL/MOL
REMARK 924 INTRA-LIGAND FREE ENERGY PREDICTED BY IDOCK:    2.76 KCAL/MOL
REMARK 927      BINDING AFFINITY PREDICTED BY RF-SCORE:    0.00 PKD
ROOT
HETATM    1  C   UNL     1      -9.931   2.996  69.012  1.00  0.00     0.537 C  
HETATM    2  C   UNL     1      -9.696   4.381  68.431  1.00  0.00    -0.172 C  
ENDROOT
BRANCH   2   3
HETATM    3  C   UNL     1     -11.017   5.098  68.154  1.00  0.00     0.599 C  
BRANCH   3   4
HETATM    4  C   UNL     1     -11.024   5.737  66.766  1.00  0.00    -0.239 C  
BRANCH   4   5
HETATM    5  C   UNL     1     -11.314   7.234  66.855  1.00  0.00     0.623 C  
BRANCH   5   6
HETATM    6  C   UNL     1     -11.250   7.727  68.300  1.00  0.00     0.468 C  
BRANCH   6   7
HETATM    7  C   UNL     1     -11.899   9.104  68.438  1.00  0.00     1.832 C  
BRANCH   7   8
HETATM    8  C   UNL     1     -11.468  10.032  67.306  1.00  0.00     0.657 C  
BRANCH   8   9
HETATM    9  C   UNL     1     -11.278   9.262  66.001  1.00  0.00     2.256 C  
BRANCH   9  10
HETATM   10  C   UNL     1      -9.844   8.745  65.883  1.00  0.00    -0.136 C  
BRANCH  10  11
HETATM   11  C   UNL     1      -8.866   9.587  66.699  1.00  0.00    -0.150 C  
BRANCH  11  12
HETATM   12  C   UNL     1      -7.912  10.338  65.772  1.00  0.00    -0.144 C  
BRANCH  12  13
HETATM   13  C   UNL     1      -7.285  11.546  66.457  1.00  0.00    -0.009 C  
BRANCH  13  14
HETATM   14  C   UNL     1      -6.271  11.100  67.485  1.00  0.00    -0.060 C  
HETATM   15  O   UNL     1      -5.146  10.692  67.231  1.00  0.00    -0.036 OA 
BRANCH  14  16
HETATM   16  O   UNL     1      -6.773  11.273  68.741  1.00  0.00    -0.059 OA 
BRANCH  16  17
HETATM   17  C   UNL     1      -6.412  10.245  69.680  1.00  0.00    -0.069 C  
BRANCH  17  18
HETATM   18  C   UNL     1      -5.429  10.771  70.733  1.00  0.00    -0.112 C  
BRANCH  18  19
HETATM   19  O   UNL     1      -5.163   9.712  71.683  1.00  0.00    -0.064 OA 
BRANCH  19  20
HETATM   20  C   UNL     1      -5.720   9.857  72.915  1.00  0.00     0.447 C  
HETATM   21  O   UNL     1      -5.330  10.605  73.800  1.00  0.00    -0.308 OA 
BRANCH  20  22
HETATM   22  C   UNL     1      -6.930   8.967  73.044  1.00  0.00     0.221 C  
BRANCH  22  23
HETATM   23  C   UNL     1      -6.560   7.493  72.924  1.00  0.00    -0.065 C  
BRANCH  23  24
HETATM   24  C   UNL     1      -6.488   6.795  74.284  1.00  0.00    -0.079 C  
BRANCH  24  25
HETATM   25  C   UNL     1      -7.552   5.704  74.399  1.00  0.00    -0.095 C  
BRANCH  25  26
HETATM   26  C   UNL     1      -7.208   4.512  73.512  1.00  0.00    -0.080 C  
BRANCH  26  27
HETATM   27  C   UNL     1      -7.803   3.219  74.063  1.00  0.00    -0.066 C  
BRANCH  27  28
HETATM   28  C   UNL     1      -9.265   3.418  74.456  1.00  0.00    -0.108 C  
BRANCH  28  29
HETATM   29  C   UNL     1      -9.797   4.752  73.938  1.00  0.00    -0.174 C  
BRANCH  29  30
HETATM   30  C   UNL     1     -10.858   4.537  72.863  1.00  0.00    -0.276 C  
BRANCH  30  31
HETATM   31  C   UNL     1     -11.084   5.811  72.049  1.00  0.00    -0.318 C  
BRANCH  31  32
HETATM   32  C   UNL     1      -9.993   6.843  72.333  1.00  0.00    -0.181 C  
BRANCH  32  33
HETATM   33  C   UNL     1     -10.593   8.221  72.603  1.00  0.00    -0.378 C  
HETATM   34  C   UNL     1     -11.835   8.456  71.761  1.00  0.00    -0.374 C  
ENDBRANCH  32  33
ENDBRANCH  31  32
ENDBRANCH  30  31
ENDBRANCH  29  30
ENDBRANCH  28  29
ENDBRANCH  27  28
ENDBRANCH  26  27
ENDBRANCH  25  26
ENDBRANCH  24  25
ENDBRANCH  23  24
ENDBRANCH  22  23
ENDBRANCH  20  22
ENDBRANCH  19  20
ENDBRANCH  18  19
BRANCH  18  35
HETATM   35  C   UNL     1      -6.070  11.929  71.495  1.00  0.00     1.509 C  
BRANCH  35  36
HETATM   36  O   UNL     1      -5.426  13.173  71.183  1.00  0.00    -0.181 OA 
BRANCH  36  37
HETATM   37  P   UNL     1      -6.532  14.451  70.816  1.00  0.00     0.425 P  
HETATM   38  O   UNL     1      -5.260  15.418  70.490  1.00  0.00    -0.126 OA 
HETATM   39  O   UNL     1      -6.953  13.650  69.600  1.00  0.00     0.005 OA 
BRANCH  37  40
HETATM   40  O   UNL     1      -7.638  15.730  70.448  1.00  0.00     0.628 OA 
BRANCH  40  41
HETATM   41  C   UNL     1      -8.155  15.786  69.087  1.00  0.00    -0.237 C  
BRANCH  41  42
HETATM   42  C   UNL     1      -9.571  16.386  68.871  1.00  0.00    -0.252 C  
HETATM   43  H   UNL     1     -10.579  17.250  67.403  1.00  0.00     0.000 HD 
HETATM   44  O   UNL     1      -9.712  16.883  67.536  1.00  0.00    -0.243 OA 
BRANCH  42  45
HETATM   45  C   UNL     1     -10.706  15.398  69.179  1.00  0.00    -0.246 C  
HETATM   46  O   UNL     1     -10.669  14.986  70.551  1.00  0.00    -0.482 OA 
HETATM   47  H   UNL     1     -11.371  14.375  70.742  1.00  0.00     0.000 HD 
ENDBRANCH  42  45
ENDBRANCH  41  42
ENDBRANCH  40  41
ENDBRANCH  37  40
ENDBRANCH  36  37
ENDBRANCH  35  36
ENDBRANCH  18  35
ENDBRANCH  17  18
ENDBRANCH  16  17
ENDBRANCH  14  16
ENDBRANCH  13  14
ENDBRANCH  12  13
ENDBRANCH  11  12
ENDBRANCH  10  11
ENDBRANCH   9  10
ENDBRANCH   8   9
ENDBRANCH   7   8
ENDBRANCH   6   7
ENDBRANCH   5   6
ENDBRANCH   4   5
ENDBRANCH   3   4
ENDBRANCH   2   3
TORSDOF 36
ENDMDL
MODEL      104
REMARK 921   NORMALIZED FREE ENERGY PREDICTED BY IDOCK:    4.34 KCAL/MOL
REMARK 922        TOTAL FREE ENERGY PREDICTED BY IDOCK:    7.99 KCAL/MOL
REMARK 923 INTER-LIGAND FREE ENERGY PREDICTED BY IDOCK:    4.55 KCAL/MOL
REMARK 924 INTRA-LIGAND FREE ENERGY PREDICTED BY IDOCK:    3.44 KCAL/MOL
REMARK 927      BINDING AFFINITY PREDICTED BY RF-SCORE:    0.00 PKD
ROOT
HETATM    1  C   UNL     1      -9.193  16.842  65.059  1.00  0.00     2.346 C  
HETATM    2  C   UNL     1      -9.114  15.393  65.510  1.00  0.00     0.350 C  
ENDROOT
BRANCH   2   3
HETATM    3  C   UNL     1      -9.914  14.480  64.582  1.00  0.00     0.296 C  
BRANCH   3   4
HETATM    4  C   UNL     1     -11.417  14.614  64.826  1.00  0.00    -0.410 C  
BRANCH   4   5
HETATM    5  C   UNL     1     -12.001  13.310  65.368  1.00  0.00    -0.432 C  
BRANCH   5   6
HETATM    6  C   UNL     1     -13.251  13.568  66.208  1.00  0.00     1.147 C  
BRANCH   6   7
HETATM    7  C   UNL     1     -13.201  14.952  66.855  1.00  0.00     2.952 C  
BRANCH   7   8
HETATM    8  C   UNL     1     -12.033  15.062  67.831  1.00  0.00    -0.140 C  
BRANCH   8   9
HETATM    9  C   UNL     1     -11.449  13.689  68.153  1.00  0.00    -0.348 C  
BRANCH   9  10
HETATM   10  C   UNL     1      -9.959  13.798  68.476  1.00  0.00    -0.217 C  
BRANCH  10  11
HETATM   11  C   UNL     1      -9.517  12.743  69.488  1.00  0.00     1.476 C  
BRANCH  11  12
HETATM   12  C   UNL     1     -10.245  11.424  69.229  1.00  0.00    -0.007 C  
BRANCH  12  13
HETATM   13  C   UNL     1      -9.366  10.426  68.483  1.00  0.00    -0.160 C  
BRANCH  13  14
HETATM   14  C   UNL     1      -8.087  10.177  69.250  1.00  0.00    -0.149 C  
HETATM   15  O   UNL     1      -7.479  11.021  69.895  1.00  0.00     0.008 OA 
BRANCH  14  16
HETATM   16  O   UNL     1      -7.741   8.861  69.165  1.00  0.00    -0.088 OA 
BRANCH  16  17
HETATM   17  C   UNL     1      -6.636   8.475  69.999  1.00  0.00    -0.038 C  
BRANCH  17  18
HETATM   18  C   UNL     1      -5.365   8.244  69.171  1.00  0.00    -0.031 C  
BRANCH  18  19
HETATM   19  O   UNL     1      -5.418   9.097  68.002  1.00  0.00    -0.034 OA 
BRANCH  19  20
HETATM   20  C   UNL     1      -6.124   8.621  66.943  1.00  0.00    -0.058 C  
HETATM   21  O   UNL     1      -6.905   9.257  66.251  1.00  0.00    -0.080 OA 
BRANCH  20  22
HETATM   22  C   UNL     1      -5.790   7.168  66.711  1.00  0.00    -0.027 C  
BRANCH  22  23
HETATM   23  C   UNL     1      -5.266   6.930  65.300  1.00  0.00    -0.027 C  
BRANCH  23  24
HETATM   24  C   UNL     1      -5.885   5.691  64.647  1.00  0.00    -0.021 C  
BRANCH  24  25
HETATM   25  C   UNL     1      -7.128   5.232  65.406  1.00  0.00    -0.066 C  
BRANCH  25  26
HETATM   26  C   UNL     1      -8.339   6.082  65.033  1.00  0.00    -0.121 C  
BRANCH  26  27
HETATM   27  C   UNL     1      -8.113   6.827  63.721  1.00  0.00     0.003 C  
BRANCH  27  28
HETATM   28  C   UNL     1      -7.775   5.855  62.594  1.00  0.00    -0.084 C  
BRANCH  28  29
HETATM   29  C   UNL     1      -8.836   4.763  62.474  1.00  0.00    -0.123 C  
BRANCH  29  30
HETATM   30  C   UNL     1      -8.191   3.384  62.362  1.00  0.00    -0.072 C  
BRANCH  30  31
HETATM   31  C   UNL     1      -9.230   2.275  62.520  1.00  0.00    -0.090 C  
BRANCH  31  32
HETATM   32  C   UNL     1     -10.068   2.485  63.780  1.00  0.00    -0.144 C  
BRANCH  32  33
HETATM   33  C   UNL     1      -9.218   3.033  64.924  1.00  0.00    -0.148 C  
HETATM   34  C   UNL     1      -9.770   2.604  66.274  1.00  0.00     0.388 C  
ENDBRANCH  32  33
ENDBRANCH  31  32
ENDBRANCH  30  31
ENDBRANCH  29  30
ENDBRANCH  28  29
ENDBRANCH  27  28
ENDBRANCH  26  27
ENDBRANCH  25  26
ENDBRANCH  24  25
ENDBRANCH  23  24
ENDBRANCH  22  23
ENDBRANCH  20  22
ENDBRANCH  19  20
ENDBRANCH  18  19
BRANCH  18  35
HETATM   35  C   UNL     1      -5.328   6.797  68.687  1.00  0.00    -0.016 C  
BRANCH  35  36
HETATM   36  O   UNL     1      -5.380   5.881  69.791  1.00  0.00    -0.008 OA 
BRANCH  36  37
HETATM   37  P   UNL     1      -6.839   4.956  69.854  1.00  0.00    -0.050 P  
HETATM   38  O   UNL     1      -5.972   3.619  69.505  1.00  0.00    -0.022 OA 
HETATM   39  O   UNL     1      -6.872   5.229  71.344  1.00  0.00    -0.048 OA 
BRANCH  37  40
HETATM   40  O   UNL     1      -8.299   4.029  69.916  1.00  0.00    -0.060 OA 
BRANCH  40  41
HETATM   41  C   UNL     1      -9.405   4.588  70.684  1.00  0.00    -0.155 C  
BRANCH  41  42
HETATM   42  C   UNL     1     -10.245   5.718  70.032  1.00  0.00    -0.238 C  
HETATM   43  H   UNL     1     -10.846   6.225  68.216  1.00  0.00     0.000 HD 
HETATM   44  O   UNL     1     -10.332   5.533  68.615  1.00  0.00    -0.186 OA 
BRANCH  42  45
HETATM   45  C   UNL     1     -11.656   5.850  70.625  1.00  0.00     0.099 C  
HETATM   46  O   UNL     1     -12.354   6.960  70.045  1.00  0.00    -0.619 OA 
HETATM   47  H   UNL     1     -13.227   7.041  70.411  1.00  0.00     0.000 HD 
ENDBRANCH  42  45
ENDBRANCH  41  42
ENDBRANCH  40  41
ENDBRANCH  37  40
ENDBRANCH  36  37
ENDBRANCH  35  36
ENDBRANCH  18  35
ENDBRANCH  17  18
ENDBRANCH  16  17
ENDBRANCH  14  16
ENDBRANCH  13  14
ENDBRANCH  12  13
ENDBRANCH  11  12
ENDBRANCH  10  11
ENDBRANCH   9  10
ENDBRANCH   8   9
ENDBRANCH   7   8
ENDBRANCH   6   7
ENDBRANCH   5   6
ENDBRANCH   4   5
ENDBRANCH   3   4
ENDBRANCH   2   3
TORSDOF 36
ENDMDL
MODEL      105
REMARK 921   NORMALIZED FREE ENERGY PREDICTED BY IDOCK:    5.44 KCAL/MOL
REMARK 922        TOTAL FREE ENERGY PREDICTED BY IDOCK:   11.42 KCAL/MOL
REMARK 923 INTER-LIGAND FREE ENERGY PREDICTED BY IDOCK:   -3.44 KCAL/MOL
REMARK 924 INTRA-LIGAND FREE ENERGY PREDICTED BY IDOCK:   14.86 KCAL/MOL
REMARK 927      BINDING AFFINITY PREDICTED BY RF-SCORE:    0.00 PKD
ROOT
HETATM    1  C   UNL     1     -11.938   7.112  69.334  1.00  0.00     0.619 C  
HETATM    2  C   UNL     1     -10.735   6.183  69.365  1.00  0.00    -0.385 C  
ENDROOT
BRANCH   2   3
HETATM    3  C   UNL     1     -10.043   6.217  70.726  1.00  0.00    -0.238 C  
BRANCH   3   4
HETATM    4  C   UNL     1      -9.922   7.646  71.255  1.00  0.00    -0.195 C  
BRANCH   4   5
HETATM    5  C   UNL     1     -10.563   7.773  72.636  1.00  0.00    -0.377 C  
BRANCH   5   6
HETATM    6  C   UNL     1     -12.004   8.271  72.536  1.00  0.00    -0.420 C  
BRANCH   6   7
HETATM    7  C   UNL     1     -12.053   9.699  71.993  1.00  0.00    -0.269 C  
BRANCH   7   8
HETATM    8  C   UNL     1     -12.573   9.725  70.558  1.00  0.00    -0.091 C  
BRANCH   8   9
HETATM    9  C   UNL     1     -12.972  11.138  70.140  1.00  0.00     0.050 C  
BRANCH   9  10
HETATM   10  C   UNL     1     -11.749  11.933  69.685  1.00  0.00    -0.413 C  
BRANCH  10  11
HETATM   11  C   UNL     1     -11.376  11.626  68.236  1.00  0.00    -0.348 C  
BRANCH  11  12
HETATM   12  C   UNL     1     -11.960  12.687  67.304  1.00  0.00    -0.321 C  
BRANCH  12  13
HETATM   13  C   UNL     1     -12.814  13.700  68.058  1.00  0.00     1.447 C  
BRANCH  13  14
HETATM   14  C   UNL     1     -12.106  14.152  69.314  1.00  0.00    -0.324 C  
HETATM   15  O   UNL     1     -12.645  14.340  70.396  1.00  0.00    -0.340 OA 
BRANCH  14  16
HETATM   16  O   UNL     1     -10.767  14.265  69.079  1.00  0.00    -0.246 OA 
BRANCH  16  17
HETATM   17  C   UNL     1     -10.004  13.082  69.369  1.00  0.00     0.788 C  
BRANCH  17  18
HETATM   18  C   UNL     1      -9.378  12.494  68.097  1.00  0.00    -0.210 C  
BRANCH  18  19
HETATM   19  O   UNL     1      -8.245  11.679  68.477  1.00  0.00    -0.149 OA 
BRANCH  19  20
HETATM   20  C   UNL     1      -7.326  12.268  69.289  1.00  0.00     0.184 C  
HETATM   21  O   UNL     1      -7.455  13.336  69.868  1.00  0.00     0.683 OA 
BRANCH  20  22
HETATM   22  C   UNL     1      -6.101  11.396  69.401  1.00  0.00    -0.078 C  
BRANCH  22  23
HETATM   23  C   UNL     1      -5.560  11.007  68.031  1.00  0.00    -0.042 C  
BRANCH  23  24
HETATM   24  C   UNL     1      -5.141   9.536  67.963  1.00  0.00    -0.036 C  
BRANCH  24  25
HETATM   25  C   UNL     1      -5.546   8.790  69.233  1.00  0.00    -0.035 C  
BRANCH  25  26
HETATM   26  C   UNL     1      -6.739   7.875  68.972  1.00  0.00    -0.049 C  
BRANCH  26  27
HETATM   27  C   UNL     1      -6.316   6.409  68.931  1.00  0.00    -0.038 C  
BRANCH  27  28
HETATM   28  C   UNL     1      -5.763   6.041  67.556  1.00  0.00    -0.016 C  
BRANCH  28  29
HETATM   29  C   UNL     1      -6.891   5.715  66.580  1.00  0.00    -0.059 C  
BRANCH  29  30
HETATM   30  C   UNL     1      -6.508   4.548  65.673  1.00  0.00    -0.040 C  
BRANCH  30  31
HETATM   31  C   UNL     1      -5.746   5.034  64.441  1.00  0.00    -0.017 C  
BRANCH  31  32
HETATM   32  C   UNL     1      -5.529   3.895  63.446  1.00  0.00    -0.013 C  
BRANCH  32  33
HETATM   33  C   UNL     1      -6.652   2.864  63.533  1.00  0.00    -0.031 C  
HETATM   34  C   UNL     1      -6.576   1.870  62.386  1.00  0.00    -0.010 C  
ENDBRANCH  32  33
ENDBRANCH  31  32
ENDBRANCH  30  31
ENDBRANCH  29  30
ENDBRANCH  28  29
ENDBRANCH  27  28
ENDBRANCH  26  27
ENDBRANCH  25  26
ENDBRANCH  24  25
ENDBRANCH  23  24
ENDBRANCH  22  23
ENDBRANCH  20  22
ENDBRANCH  19  20
ENDBRANCH  18  19
BRANCH  18  35
HETATM   35  C   UNL     1      -8.860  13.628  67.214  1.00  0.00    -0.224 C  
BRANCH  35  36
HETATM   36  O   UNL     1      -7.545  14.036  67.616  1.00  0.00    -0.149 OA 
BRANCH  36  37
HETATM   37  P   UNL     1      -7.269  15.736  67.457  1.00  0.00    -0.217 P  
HETATM   38  O   UNL     1      -8.850  15.992  67.768  1.00  0.00    -0.175 OA 
HETATM   39  O   UNL     1      -6.454  15.657  68.732  1.00  0.00    -0.105 OA 
BRANCH  37  40
HETATM   40  O   UNL     1      -6.994  17.437  67.299  1.00  0.00    -0.156 OA 
BRANCH  40  41
HETATM   41  C   UNL     1      -7.934  18.184  66.472  1.00  0.00    -0.262 C  
BRANCH  41  42
HETATM   42  C   UNL     1      -9.167  18.820  67.167  1.00  0.00    -0.287 C  
HETATM   43  H   UNL     1      -9.604  20.509  68.102  1.00  0.00     0.000 HD 
HETATM   44  O   UNL     1      -8.849  20.119  67.677  1.00  0.00    -0.328 OA 
BRANCH  42  45
HETATM   45  C   UNL     1     -10.402  18.909  66.258  1.00  0.00    -0.453 C  
HETATM   46  O   UNL     1     -10.272  18.034  65.130  1.00  0.00    -0.066 OA 
HETATM   47  H   UNL     1     -11.036  18.089  64.568  1.00  0.00     0.000 HD 
ENDBRANCH  42  45
ENDBRANCH  41  42
ENDBRANCH  40  41
ENDBRANCH  37  40
ENDBRANCH  36  37
ENDBRANCH  35  36
ENDBRANCH  18  35
ENDBRANCH  17  18
ENDBRANCH  16  17
ENDBRANCH  14  16
ENDBRANCH  13  14
ENDBRANCH  12  13
ENDBRANCH  11  12
ENDBRANCH  10  11
ENDBRANCH   9  10
ENDBRANCH   8   9
ENDBRANCH   7   8
ENDBRANCH   6   7
ENDBRANCH   5   6
ENDBRANCH   4   5
ENDBRANCH   3   4
ENDBRANCH   2   3
TORSDOF 36
ENDMDL
MODEL      106
REMARK 921   NORMALIZED FREE ENERGY PREDICTED BY IDOCK:    6.52 KCAL/MOL
REMARK 922        TOTAL FREE ENERGY PREDICTED BY IDOCK:   14.76 KCAL/MOL
REMARK 923 INTER-LIGAND FREE ENERGY PREDICTED BY IDOCK:   -2.17 KCAL/MOL
REMARK 924 INTRA-LIGAND FREE ENERGY PREDICTED BY IDOCK:   16.94 KCAL/MOL
REMARK 927      BINDING AFFINITY PREDICTED BY RF-SCORE:    0.00 PKD
ROOT
HETATM    1  C   UNL     1      -7.467  10.003  69.492  1.00  0.00    -0.123 C  
HETATM    2  C   UNL     1      -6.383  10.442  70.463  1.00  0.00    -0.101 C  
ENDROOT
BRANCH   2   3
HETATM    3  C   UNL     1      -6.702   9.996  71.889  1.00  0.00     1.158 C  
BRANCH   3   4
HETATM    4  C   UNL     1      -7.514   8.701  71.901  1.00  0.00    -0.099 C  
BRANCH   4   5
HETATM    5  C   UNL     1      -8.940   8.955  72.384  1.00  0.00     0.137 C  
BRANCH   5   6
HETATM    6  C   UNL     1      -9.761   7.666  72.398  1.00  0.00    -0.231 C  
BRANCH   6   7
HETATM    7  C   UNL     1     -10.567   7.517  71.108  1.00  0.00    -0.234 C  
BRANCH   7   8
HETATM    8  C   UNL     1      -9.967   6.445  70.204  1.00  0.00    -0.201 C  
BRANCH   8   9
HETATM    9  C   UNL     1      -9.204   7.069  69.038  1.00  0.00    -0.137 C  
BRANCH   9  10
HETATM   10  C   UNL     1      -9.370   8.588  69.034  1.00  0.00    -0.146 C  
BRANCH  10  11
HETATM   11  C   UNL     1     -10.607   9.024  68.253  1.00  0.00    -0.213 C  
BRANCH  11  12
HETATM   12  C   UNL     1     -10.258  10.174  67.309  1.00  0.00    -0.273 C  
BRANCH  12  13
HETATM   13  C   UNL     1      -8.753  10.311  67.110  1.00  0.00    -0.131 C  
BRANCH  13  14
HETATM   14  C   UNL     1      -8.151   8.980  66.725  1.00  0.00    -0.111 C  
HETATM   15  O   UNL     1      -8.160   7.976  67.424  1.00  0.00    -0.119 OA 
BRANCH  14  16
HETATM   16  O   UNL     1      -7.646   9.045  65.460  1.00  0.00    -0.088 OA 
BRANCH  16  17
HETATM   17  C   UNL     1      -8.328   9.962  64.587  1.00  0.00    -0.163 C  
BRANCH  17  18
HETATM   18  C   UNL     1      -7.360  10.602  63.583  1.00  0.00     0.197 C  
BRANCH  18  19
HETATM   19  O   UNL     1      -8.117  11.462  62.699  1.00  0.00     0.038 OA 
BRANCH  19  20
HETATM   20  C   UNL     1      -9.329  11.876  63.158  1.00  0.00     0.112 C  
HETATM   21  O   UNL     1      -9.552  12.903  63.781  1.00  0.00     0.014 OA 
BRANCH  20  22
HETATM   22  C   UNL     1     -10.396  10.885  62.764  1.00  0.00     0.140 C  
BRANCH  22  23
HETATM   23  C   UNL     1     -11.282  10.514  63.947  1.00  0.00     1.592 C  
BRANCH  23  24
HETATM   24  C   UNL     1     -11.766  11.740  64.725  1.00  0.00    -0.212 C  
BRANCH  24  25
HETATM   25  C   UNL     1     -12.066  12.905  63.783  1.00  0.00    -0.583 C  
BRANCH  25  26
HETATM   26  C   UNL     1     -11.239  14.132  64.154  1.00  0.00    -0.056 C  
BRANCH  26  27
HETATM   27  C   UNL     1     -10.762  14.064  65.602  1.00  0.00    -0.306 C  
BRANCH  27  28
HETATM   28  C   UNL     1     -11.813  14.639  66.548  1.00  0.00    -0.317 C  
BRANCH  28  29
HETATM   29  C   UNL     1     -11.168  15.187  67.819  1.00  0.00    -0.327 C  
BRANCH  29  30
HETATM   30  C   UNL     1      -9.652  15.011  67.782  1.00  0.00    -0.203 C  
BRANCH  30  31
HETATM   31  C   UNL     1      -8.964  16.270  67.257  1.00  0.00    -0.209 C  
BRANCH  31  32
HETATM   32  C   UNL     1      -7.540  15.964  66.796  1.00  0.00    -0.215 C  
BRANCH  32  33
HETATM   33  C   UNL     1      -6.579  15.890  67.981  1.00  0.00    -0.143 C  
HETATM   34  C   UNL     1      -6.069  14.474  68.188  1.00  0.00    -0.146 C  
ENDBRANCH  32  33
ENDBRANCH  31  32
ENDBRANCH  30  31
ENDBRANCH  29  30
ENDBRANCH  28  29
ENDBRANCH  27  28
ENDBRANCH  26  27
ENDBRANCH  25  26
ENDBRANCH  24  25
ENDBRANCH  23  24
ENDBRANCH  22  23
ENDBRANCH  20  22
ENDBRANCH  19  20
ENDBRANCH  18  19
BRANCH  18  35
HETATM   35  C   UNL     1      -6.716   9.511  62.731  1.00  0.00    -0.099 C  
BRANCH  35  36
HETATM   36  O   UNL     1      -6.690   8.258  63.428  1.00  0.00    -0.083 OA 
BRANCH  36  37
HETATM   37  P   UNL     1      -7.888   7.137  62.880  1.00  0.00    -0.060 P  
HETATM   38  O   UNL     1      -7.988   6.547  64.398  1.00  0.00    -0.115 OA 
HETATM   39  O   UNL     1      -8.810   8.321  62.677  1.00  0.00     0.025 OA 
BRANCH  37  40
HETATM   40  O   UNL     1      -9.086   6.015  62.333  1.00  0.00     0.214 OA 
BRANCH  40  41
HETATM   41  C   UNL     1      -9.113   4.708  62.979  1.00  0.00    -0.098 C  
BRANCH  41  42
HETATM   42  C   UNL     1      -7.905   3.760  62.751  1.00  0.00    -0.063 C  
HETATM   43  H   UNL     1      -5.956   3.774  63.092  1.00  0.00     0.000 HD 
HETATM   44  O   UNL     1      -6.695   4.355  63.232  1.00  0.00    -0.036 OA 
BRANCH  42  45
HETATM   45  C   UNL     1      -8.089   2.374  63.387  1.00  0.00    -0.073 C  
HETATM   46  O   UNL     1      -8.419   2.487  64.778  1.00  0.00    -0.087 OA 
HETATM   47  H   UNL     1      -8.533   1.630  65.171  1.00  0.00     0.000 HD 
ENDBRANCH  42  45
ENDBRANCH  41  42
ENDBRANCH  40  41
ENDBRANCH  37  40
ENDBRANCH  36  37
ENDBRANCH  35  36
ENDBRANCH  18  35
ENDBRANCH  17  18
ENDBRANCH  16  17
ENDBRANCH  14  16
ENDBRANCH  13  14
ENDBRANCH  12  13
ENDBRANCH  11  12
ENDBRANCH  10  11
ENDBRANCH   9  10
ENDBRANCH   8   9
ENDBRANCH   7   8
ENDBRANCH   6   7
ENDBRANCH   5   6
ENDBRANCH   4   5
ENDBRANCH   3   4
ENDBRANCH   2   3
TORSDOF 36
ENDMDL
MODEL      107
REMARK 921   NORMALIZED FREE ENERGY PREDICTED BY IDOCK:    6.57 KCAL/MOL
REMARK 922        TOTAL FREE ENERGY PREDICTED BY IDOCK:   14.93 KCAL/MOL
REMARK 923 INTER-LIGAND FREE ENERGY PREDICTED BY IDOCK:    1.17 KCAL/MOL
REMARK 924 INTRA-LIGAND FREE ENERGY PREDICTED BY IDOCK:   13.76 KCAL/MOL
REMARK 927      BINDING AFFINITY PREDICTED BY RF-SCORE:    0.00 PKD
ROOT
HETATM    1  C   UNL     1      -5.641  12.656  66.360  1.00  0.00     1.712 C  
HETATM    2  C   UNL     1      -5.435  11.290  65.727  1.00  0.00     0.060 C  
ENDROOT
BRANCH   2   3
HETATM    3  C   UNL     1      -5.126  10.230  66.783  1.00  0.00    -0.040 C  
BRANCH   3   4
HETATM    4  C   UNL     1      -5.773   8.890  66.435  1.00  0.00    -0.053 C  
BRANCH   4   5
HETATM    5  C   UNL     1      -7.005   9.090  65.554  1.00  0.00    -0.080 C  
BRANCH   5   6
HETATM    6  C   UNL     1      -8.036   9.988  66.236  1.00  0.00    -0.111 C  
BRANCH   6   7
HETATM    7  C   UNL     1      -7.542  10.445  67.608  1.00  0.00    -0.089 C  
BRANCH   7   8
HETATM    8  C   UNL     1      -8.253   9.691  68.729  1.00  0.00    -0.106 C  
BRANCH   8   9
HETATM    9  C   UNL     1      -8.038   8.185  68.606  1.00  0.00    -0.124 C  
BRANCH   9  10
HETATM   10  C   UNL     1      -6.642   7.882  68.062  1.00  0.00    -0.056 C  
BRANCH  10  11
HETATM   11  C   UNL     1      -6.423   6.384  67.860  1.00  0.00    -0.049 C  
BRANCH  11  12
HETATM   12  C   UNL     1      -5.988   5.731  69.171  1.00  0.00    -0.020 C  
BRANCH  12  13
HETATM   13  C   UNL     1      -7.169   5.485  70.104  1.00  0.00    -0.067 C  
BRANCH  13  14
HETATM   14  C   UNL     1      -6.884   4.312  71.013  1.00  0.00    -0.036 C  
HETATM   15  O   UNL     1      -6.699   3.162  70.640  1.00  0.00    -0.031 OA 
BRANCH  14  16
HETATM   16  O   UNL     1      -6.805   4.735  72.307  1.00  0.00    -0.052 OA 
BRANCH  16  17
HETATM   17  C   UNL     1      -7.040   6.141  72.496  1.00  0.00    -0.084 C  
BRANCH  17  18
HETATM   18  C   UNL     1      -8.037   6.392  73.636  1.00  0.00    -0.108 C  
BRANCH  18  19
HETATM   19  O   UNL     1      -8.851   5.207  73.802  1.00  0.00    -0.118 OA 
BRANCH  19  20
HETATM   20  C   UNL     1     -10.142   5.302  73.383  1.00  0.00    -0.180 C  
HETATM   21  O   UNL     1     -11.138   5.106  74.063  1.00  0.00    -0.250 OA 
BRANCH  20  22
HETATM   22  C   UNL     1     -10.185   5.713  71.932  1.00  0.00    -0.244 C  
BRANCH  22  23
HETATM   23  C   UNL     1     -10.730   4.599  71.047  1.00  0.00     0.240 C  
BRANCH  23  24
HETATM   24  C   UNL     1     -10.692   4.960  69.560  1.00  0.00     0.414 C  
BRANCH  24  25
HETATM   25  C   UNL     1     -10.258   6.410  69.358  1.00  0.00    -0.230 C  
BRANCH  25  26
HETATM   26  C   UNL     1     -10.440   6.836  67.904  1.00  0.00    -0.265 C  
BRANCH  26  27
HETATM   27  C   UNL     1      -9.313   6.303  67.024  1.00  0.00    -0.135 C  
BRANCH  27  28
HETATM   28  C   UNL     1      -9.471   6.788  65.585  1.00  0.00     0.357 C  
BRANCH  28  29
HETATM   29  C   UNL     1      -8.438   6.136  64.669  1.00  0.00     0.020 C  
BRANCH  29  30
HETATM   30  C   UNL     1      -7.589   7.190  63.965  1.00  0.00    -0.113 C  
BRANCH  30  31
HETATM   31  C   UNL     1      -8.158   7.525  62.587  1.00  0.00    -0.096 C  
BRANCH  31  32
HETATM   32  C   UNL     1      -8.413   9.026  62.450  1.00  0.00    -0.213 C  
BRANCH  32  33
HETATM   33  C   UNL     1      -9.182   9.568  63.652  1.00  0.00    -0.060 C  
HETATM   34  C   UNL     1     -10.676   9.608  63.377  1.00  0.00     4.093 C  
ENDBRANCH  32  33
ENDBRANCH  31  32
ENDBRANCH  30  31
ENDBRANCH  29  30
ENDBRANCH  28  29
ENDBRANCH  27  28
ENDBRANCH  26  27
ENDBRANCH  25  26
ENDBRANCH  24  25
ENDBRANCH  23  24
ENDBRANCH  22  23
ENDBRANCH  20  22
ENDBRANCH  19  20
ENDBRANCH  18  19
BRANCH  18  35
HETATM   35  C   UNL     1      -8.964   7.544  73.255  1.00  0.00    -0.182 C  
BRANCH  35  36
HETATM   36  O   UNL     1      -8.747   7.957  71.899  1.00  0.00    -0.114 OA 
BRANCH  36  37
HETATM   37  P   UNL     1     -10.164   8.582  71.130  1.00  0.00    -0.254 P  
HETATM   38  O   UNL     1     -10.983   8.359  72.523  1.00  0.00    -0.356 OA 
HETATM   39  O   UNL     1      -9.472   9.930  71.097  1.00  0.00     0.094 OA 
BRANCH  37  40
HETATM   40  O   UNL     1     -11.582   9.208  70.361  1.00  0.00    -0.242 OA 
BRANCH  40  41
HETATM   41  C   UNL     1     -12.073  10.498  70.829  1.00  0.00    -0.370 C  
BRANCH  41  42
HETATM   42  C   UNL     1     -12.215  11.643  69.790  1.00  0.00    -0.219 C  
HETATM   43  H   UNL     1     -11.855  13.587  69.704  1.00  0.00     0.000 HD 
HETATM   44  O   UNL     1     -11.767  12.886  70.340  1.00  0.00    -0.213 OA 
BRANCH  42  45
HETATM   45  C   UNL     1     -11.480  11.365  68.471  1.00  0.00    -0.297 C  
HETATM   46  O   UNL     1     -11.964  12.217  67.424  1.00  0.00    -0.563 OA 
HETATM   47  H   UNL     1     -11.509  12.045  66.608  1.00  0.00     0.000 HD 
ENDBRANCH  42  45
ENDBRANCH  41  42
ENDBRANCH  40  41
ENDBRANCH  37  40
ENDBRANCH  36  37
ENDBRANCH  35  36
ENDBRANCH  18  35
ENDBRANCH  17  18
ENDBRANCH  16  17
ENDBRANCH  14  16
ENDBRANCH  13  14
ENDBRANCH  12  13
ENDBRANCH  11  12
ENDBRANCH  10  11
ENDBRANCH   9  10
ENDBRANCH   8   9
ENDBRANCH   7   8
ENDBRANCH   6   7
ENDBRANCH   5   6
ENDBRANCH   4   5
ENDBRANCH   3   4
ENDBRANCH   2   3
TORSDOF 36
ENDMDL
MODEL      108
REMARK 921   NORMALIZED FREE ENERGY PREDICTED BY IDOCK:    7.13 KCAL/MOL
REMARK 922        TOTAL FREE ENERGY PREDICTED BY IDOCK:   16.68 KCAL/MOL
REMARK 923 INTER-LIGAND FREE ENERGY PREDICTED BY IDOCK:    0.58 KCAL/MOL
REMARK 924 INTRA-LIGAND FREE ENERGY PREDICTED BY IDOCK:   16.10 KCAL/MOL
REMARK 927      BINDING AFFINITY PREDICTED BY RF-SCORE:    0.00 PKD
ROOT
HETATM    1  C   UNL     1     -11.940   7.113  69.334  1.00  0.00     0.619 C  
HETATM    2  C   UNL     1     -10.742   6.179  69.397  1.00  0.00    -0.385 C  
ENDROOT
BRANCH   2   3
HETATM    3  C   UNL     1     -10.071   6.230  70.769  1.00  0.00    -0.229 C  
BRANCH   3   4
HETATM    4  C   UNL     1      -9.945   7.666  71.276  1.00  0.00    -0.195 C  
BRANCH   4   5
HETATM    5  C   UNL     1     -10.591   7.818  72.653  1.00  0.00    -0.377 C  
BRANCH   5   6
HETATM    6  C   UNL     1     -12.033   8.311  72.539  1.00  0.00    -0.420 C  
BRANCH   6   7
HETATM    7  C   UNL     1     -12.085   9.716  71.941  1.00  0.00    -0.380 C  
BRANCH   7   8
HETATM    8  C   UNL     1     -12.626   9.688  70.514  1.00  0.00    -0.017 C  
BRANCH   8   9
HETATM    9  C   UNL     1     -13.009  11.088  70.040  1.00  0.00     0.073 C  
BRANCH   9  10
HETATM   10  C   UNL     1     -11.783  11.834  69.514  1.00  0.00    -0.408 C  
BRANCH  10  11
HETATM   11  C   UNL     1     -11.417  11.401  68.096  1.00  0.00    -0.375 C  
BRANCH  11  12
HETATM   12  C   UNL     1     -12.002  12.378  67.077  1.00  0.00    -0.257 C  
BRANCH  12  13
HETATM   13  C   UNL     1     -12.862  13.447  67.743  1.00  0.00     1.497 C  
BRANCH  13  14
HETATM   14  C   UNL     1     -12.192  13.953  68.999  1.00  0.00    -0.239 C  
HETATM   15  O   UNL     1     -12.776  14.276  70.025  1.00  0.00    -0.297 OA 
BRANCH  14  16
HETATM   16  O   UNL     1     -10.838  13.940  68.843  1.00  0.00    -0.251 OA 
BRANCH  16  17
HETATM   17  C   UNL     1     -10.191  12.739  69.297  1.00  0.00     0.415 C  
BRANCH  17  18
HETATM   18  C   UNL     1      -9.402  12.067  68.165  1.00  0.00    -0.199 C  
BRANCH  18  19
HETATM   19  O   UNL     1      -8.383  11.225  68.754  1.00  0.00    -0.154 OA 
BRANCH  19  20
HETATM   20  C   UNL     1      -7.640  11.786  69.745  1.00  0.00     0.845 C  
HETATM   21  O   UNL     1      -7.866  12.849  70.303  1.00  0.00     2.193 OA 
BRANCH  20  22
HETATM   22  C   UNL     1      -6.479  10.887  70.093  1.00  0.00    -0.145 C  
BRANCH  22  23
HETATM   23  C   UNL     1      -5.686  10.489  68.855  1.00  0.00    -0.040 C  
BRANCH  23  24
HETATM   24  C   UNL     1      -5.288   9.011  68.864  1.00  0.00    -0.037 C  
BRANCH  24  25
HETATM   25  C   UNL     1      -5.933   8.275  70.037  1.00  0.00    -0.025 C  
BRANCH  25  26
HETATM   26  C   UNL     1      -7.078   7.387  69.561  1.00  0.00    -0.069 C  
BRANCH  26  27
HETATM   27  C   UNL     1      -6.605   5.958  69.308  1.00  0.00    -0.051 C  
BRANCH  27  28
HETATM   28  C   UNL     1      -5.764   5.881  68.037  1.00  0.00    -0.012 C  
BRANCH  28  29
HETATM   29  C   UNL     1      -6.650   5.781  66.797  1.00  0.00    -0.056 C  
BRANCH  29  30
HETATM   30  C   UNL     1      -8.014   6.416  67.048  1.00  0.00    -0.109 C  
BRANCH  30  31
HETATM   31  C   UNL     1      -9.145   5.477  66.629  1.00  0.00    -0.126 C  
BRANCH  31  32
HETATM   32  C   UNL     1      -8.625   4.058  66.410  1.00  0.00    -0.110 C  
BRANCH  32  33
HETATM   33  C   UNL     1      -9.397   3.049  67.258  1.00  0.00    -0.198 C  
HETATM   34  C   UNL     1      -8.462   2.036  67.897  1.00  0.00    -0.090 C  
ENDBRANCH  32  33
ENDBRANCH  31  32
ENDBRANCH  30  31
ENDBRANCH  29  30
ENDBRANCH  28  29
ENDBRANCH  27  28
ENDBRANCH  26  27
ENDBRANCH  25  26
ENDBRANCH  24  25
ENDBRANCH  23  24
ENDBRANCH  22  23
ENDBRANCH  20  22
ENDBRANCH  19  20
ENDBRANCH  18  19
BRANCH  18  35
HETATM   35  C   UNL     1      -8.699  13.135  67.331  1.00  0.00    -0.206 C  
BRANCH  35  36
HETATM   36  O   UNL     1      -7.348  12.753  67.035  1.00  0.00    -0.063 OA 
BRANCH  36  37
HETATM   37  P   UNL     1      -6.240  14.081  67.024  1.00  0.00     1.944 P  
HETATM   38  O   UNL     1      -7.490  15.088  67.317  1.00  0.00    -0.198 OA 
HETATM   39  O   UNL     1      -5.659  13.522  68.307  1.00  0.00    -0.084 OA 
BRANCH  37  40
HETATM   40  O   UNL     1      -5.132  15.410  67.014  1.00  0.00    -0.183 OA 
BRANCH  40  41
HETATM   41  C   UNL     1      -5.502  16.585  67.792  1.00  0.00    -0.132 C  
BRANCH  41  42
HETATM   42  C   UNL     1      -6.151  17.780  67.041  1.00  0.00    -0.148 C  
HETATM   43  H   UNL     1      -7.489  18.047  65.607  1.00  0.00     0.000 HD 
HETATM   44  O   UNL     1      -7.091  17.316  66.067  1.00  0.00    -0.267 OA 
BRANCH  42  45
HETATM   45  C   UNL     1      -6.830  18.792  67.975  1.00  0.00    -0.229 C  
HETATM   46  O   UNL     1      -6.940  18.269  69.306  1.00  0.00    -0.250 OA 
HETATM   47  H   UNL     1      -7.360  18.895  69.883  1.00  0.00     0.000 HD 
ENDBRANCH  42  45
ENDBRANCH  41  42
ENDBRANCH  40  41
ENDBRANCH  37  40
ENDBRANCH  36  37
ENDBRANCH  35  36
ENDBRANCH  18  35
ENDBRANCH  17  18
ENDBRANCH  16  17
ENDBRANCH  14  16
ENDBRANCH  13  14
ENDBRANCH  12  13
ENDBRANCH  11  12
ENDBRANCH  10  11
ENDBRANCH   9  10
ENDBRANCH   8   9
ENDBRANCH   7   8
ENDBRANCH   6   7
ENDBRANCH   5   6
ENDBRANCH   4   5
ENDBRANCH   3   4
ENDBRANCH   2   3
TORSDOF 36
ENDMDL
MODEL      109
REMARK 921   NORMALIZED FREE ENERGY PREDICTED BY IDOCK:    7.66 KCAL/MOL
REMARK 922        TOTAL FREE ENERGY PREDICTED BY IDOCK:   18.32 KCAL/MOL
REMARK 923 INTER-LIGAND FREE ENERGY PREDICTED BY IDOCK:   15.90 KCAL/MOL
REMARK 924 INTRA-LIGAND FREE ENERGY PREDICTED BY IDOCK:    2.42 KCAL/MOL
REMARK 927      BINDING AFFINITY PREDICTED BY RF-SCORE:    0.00 PKD
ROOT
HETATM    1  C   UNL     1      -9.816   3.269  68.549  1.00  0.00     0.192 C  
HETATM    2  C   UNL     1      -9.676   4.671  67.979  1.00  0.00    -0.197 C  
ENDROOT
BRANCH   2   3
HETATM    3  C   UNL     1     -11.040   5.286  67.674  1.00  0.00     0.729 C  
BRANCH   3   4
HETATM    4  C   UNL     1     -11.049   5.977  66.311  1.00  0.00     0.361 C  
BRANCH   4   5
HETATM    5  C   UNL     1     -11.338   7.470  66.457  1.00  0.00     1.841 C  
BRANCH   5   6
HETATM    6  C   UNL     1     -11.317   7.899  67.924  1.00  0.00     0.788 C  
BRANCH   6   7
HETATM    7  C   UNL     1     -12.004   9.252  68.108  1.00  0.00     2.668 C  
BRANCH   7   8
HETATM    8  C   UNL     1     -11.471  10.281  67.115  1.00  0.00     0.497 C  
BRANCH   8   9
HETATM    9  C   UNL     1     -11.137   9.634  65.773  1.00  0.00     1.637 C  
BRANCH   9  10
HETATM   10  C   UNL     1      -9.693   9.135  65.758  1.00  0.00    -0.299 C  
BRANCH  10  11
HETATM   11  C   UNL     1      -8.770  10.037  66.575  1.00  0.00    -0.142 C  
BRANCH  11  12
HETATM   12  C   UNL     1      -7.803  10.779  65.652  1.00  0.00    -0.076 C  
BRANCH  12  13
HETATM   13  C   UNL     1      -7.262  12.050  66.297  1.00  0.00     0.611 C  
BRANCH  13  14
HETATM   14  C   UNL     1      -6.304  11.705  67.413  1.00  0.00    -0.100 C  
HETATM   15  O   UNL     1      -5.134  11.381  67.259  1.00  0.00    -0.046 OA 
BRANCH  14  16
HETATM   16  O   UNL     1      -6.917  11.864  68.620  1.00  0.00    -0.081 OA 
BRANCH  16  17
HETATM   17  C   UNL     1      -6.476  10.956  69.643  1.00  0.00    -0.114 C  
BRANCH  17  18
HETATM   18  C   UNL     1      -5.719  11.693  70.757  1.00  0.00    -0.077 C  
BRANCH  18  19
HETATM   19  O   UNL     1      -5.142  10.710  71.648  1.00  0.00    -0.133 OA 
BRANCH  19  20
HETATM   20  C   UNL     1      -5.736  10.579  72.864  1.00  0.00     1.011 C  
HETATM   21  O   UNL     1      -5.628  11.348  73.807  1.00  0.00     0.329 OA 
BRANCH  20  22
HETATM   22  C   UNL     1      -6.590   9.336  72.890  1.00  0.00     0.479 C  
BRANCH  22  23
HETATM   23  C   UNL     1      -8.045   9.659  73.210  1.00  0.00     3.421 C  
BRANCH  23  24
HETATM   24  C   UNL     1      -8.973   9.424  72.016  1.00  0.00     1.010 C  
BRANCH  24  25
HETATM   25  C   UNL     1      -9.375   7.953  71.913  1.00  0.00    -0.204 C  
BRANCH  25  26
HETATM   26  C   UNL     1     -10.643   7.677  72.714  1.00  0.00    -0.381 C  
BRANCH  26  27
HETATM   27  C   UNL     1     -11.546   6.677  71.998  1.00  0.00    -0.341 C  
BRANCH  27  28
HETATM   28  C   UNL     1     -10.855   5.323  71.859  1.00  0.00    -0.218 C  
BRANCH  28  29
HETATM   29  C   UNL     1      -9.416   5.487  71.378  1.00  0.00    -0.182 C  
BRANCH  29  30
HETATM   30  C   UNL     1      -8.476   4.554  72.136  1.00  0.00    -0.115 C  
BRANCH  30  31
HETATM   31  C   UNL     1      -7.459   3.912  71.194  1.00  0.00    -0.044 C  
BRANCH  31  32
HETATM   32  C   UNL     1      -6.425   4.935  70.725  1.00  0.00    -0.030 C  
BRANCH  32  33
HETATM   33  C   UNL     1      -6.826   5.553  69.388  1.00  0.00    -0.061 C  
HETATM   34  C   UNL     1      -5.821   5.214  68.300  1.00  0.00    -0.017 C  
ENDBRANCH  32  33
ENDBRANCH  31  32
ENDBRANCH  30  31
ENDBRANCH  29  30
ENDBRANCH  28  29
ENDBRANCH  27  28
ENDBRANCH  26  27
ENDBRANCH  25  26
ENDBRANCH  24  25
ENDBRANCH  23  24
ENDBRANCH  22  23
ENDBRANCH  20  22
ENDBRANCH  19  20
ENDBRANCH  18  19
BRANCH  18  35
HETATM   35  C   UNL     1      -6.701  12.536  71.567  1.00  0.00     4.032 C  
BRANCH  35  36
HETATM   36  O   UNL     1      -6.270  13.902  71.644  1.00  0.00    -0.203 OA 
BRANCH  36  37
HETATM   37  P   UNL     1      -6.774  14.864  70.299  1.00  0.00     0.203 P  
HETATM   38  O   UNL     1      -6.276  16.194  71.100  1.00  0.00     0.713 OA 
HETATM   39  O   UNL     1      -5.648  14.231  69.507  1.00  0.00    -0.090 OA 
BRANCH  37  40
HETATM   40  O   UNL     1      -7.279  15.827  68.953  1.00  0.00    -0.127 OA 
BRANCH  40  41
HETATM   41  C   UNL     1      -8.400  15.327  68.166  1.00  0.00    -0.149 C  
BRANCH  41  42
HETATM   42  C   UNL     1      -9.596  16.284  67.914  1.00  0.00    -0.227 C  
HETATM   43  H   UNL     1     -10.886  16.654  66.459  1.00  0.00     0.000 HD 
HETATM   44  O   UNL     1     -10.154  16.068  66.613  1.00  0.00    -0.260 OA 
BRANCH  42  45
HETATM   45  C   UNL     1     -10.700  16.175  68.976  1.00  0.00    -0.287 C  
HETATM   46  O   UNL     1     -11.980  15.967  68.366  1.00  0.00    -0.420 OA 
HETATM   47  H   UNL     1     -12.663  15.899  69.023  1.00  0.00     0.000 HD 
ENDBRANCH  42  45
ENDBRANCH  41  42
ENDBRANCH  40  41
ENDBRANCH  37  40
ENDBRANCH  36  37
ENDBRANCH  35  36
ENDBRANCH  18  35
ENDBRANCH  17  18
ENDBRANCH  16  17
ENDBRANCH  14  16
ENDBRANCH  13  14
ENDBRANCH  12  13
ENDBRANCH  11  12
ENDBRANCH  10  11
ENDBRANCH   9  10
ENDBRANCH   8   9
ENDBRANCH   7   8
ENDBRANCH   6   7
ENDBRANCH   5   6
ENDBRANCH   4   5
ENDBRANCH   3   4
ENDBRANCH   2   3
TORSDOF 36
ENDMDL
MODEL      110
REMARK 921   NORMALIZED FREE ENERGY PREDICTED BY IDOCK:    9.51 KCAL/MOL
REMARK 922        TOTAL FREE ENERGY PREDICTED BY IDOCK:   24.06 KCAL/MOL
REMARK 923 INTER-LIGAND FREE ENERGY PREDICTED BY IDOCK:   19.01 KCAL/MOL
REMARK 924 INTRA-LIGAND FREE ENERGY PREDICTED BY IDOCK:    5.05 KCAL/MOL
REMARK 927      BINDING AFFINITY PREDICTED BY RF-SCORE:    0.00 PKD
ROOT
HETATM    1  C   UNL     1      -9.806   2.918  67.687  1.00  0.00     0.392 C  
HETATM    2  C   UNL     1      -9.665   4.325  67.130  1.00  0.00    -0.232 C  
ENDROOT
BRANCH   2   3
HETATM    3  C   UNL     1     -11.029   4.937  66.817  1.00  0.00     0.484 C  
BRANCH   3   4
HETATM    4  C   UNL     1     -11.027   5.640  65.459  1.00  0.00     1.187 C  
BRANCH   4   5
HETATM    5  C   UNL     1     -11.331   7.129  65.615  1.00  0.00     5.179 C  
BRANCH   5   6
HETATM    6  C   UNL     1     -11.325   7.547  67.084  1.00  0.00     0.648 C  
BRANCH   6   7
HETATM    7  C   UNL     1     -12.030   8.890  67.274  1.00  0.00     4.707 C  
BRANCH   7   8
HETATM    8  C   UNL     1     -11.502   9.933  66.293  1.00  0.00     1.777 C  
BRANCH   8   9
HETATM    9  C   UNL     1     -11.152   9.300  64.948  1.00  0.00     5.363 C  
BRANCH   9  10
HETATM   10  C   UNL     1      -9.702   8.818  64.940  1.00  0.00     0.880 C  
BRANCH  10  11
HETATM   11  C   UNL     1      -8.795   9.724  65.771  1.00  0.00    -0.180 C  
BRANCH  11  12
HETATM   12  C   UNL     1      -7.832  10.486  64.862  1.00  0.00    -0.037 C  
BRANCH  12  13
HETATM   13  C   UNL     1      -7.311  11.757  65.523  1.00  0.00     1.420 C  
BRANCH  13  14
HETATM   14  C   UNL     1      -6.358  11.413  66.644  1.00  0.00    -0.127 C  
HETATM   15  O   UNL     1      -5.182  11.107  66.498  1.00  0.00    -0.082 OA 
BRANCH  14  16
HETATM   16  O   UNL     1      -6.984  11.552  67.848  1.00  0.00    -0.069 OA 
BRANCH  16  17
HETATM   17  C   UNL     1      -6.638  10.554  68.824  1.00  0.00    -0.053 C  
BRANCH  17  18
HETATM   18  C   UNL     1      -5.699  11.124  69.896  1.00  0.00    -0.083 C  
BRANCH  18  19
HETATM   19  O   UNL     1      -5.182  10.026  70.684  1.00  0.00    -0.038 OA 
BRANCH  19  20
HETATM   20  C   UNL     1      -5.767   9.828  71.895  1.00  0.00     0.078 C  
HETATM   21  O   UNL     1      -5.583  10.495  72.902  1.00  0.00    -0.091 OA 
BRANCH  20  22
HETATM   22  C   UNL     1      -6.716   8.658  71.826  1.00  0.00    -0.085 C  
BRANCH  22  23
HETATM   23  C   UNL     1      -7.281   8.311  73.198  1.00  0.00    -0.147 C  
BRANCH  23  24
HETATM   24  C   UNL     1      -8.809   8.394  73.240  1.00  0.00    -0.196 C  
BRANCH  24  25
HETATM   25  C   UNL     1      -9.442   7.339  72.336  1.00  0.00    -0.178 C  
BRANCH  25  26
HETATM   26  C   UNL     1     -10.464   7.968  71.394  1.00  0.00    -0.257 C  
BRANCH  26  27
HETATM   27  C   UNL     1      -9.835   8.328  70.052  1.00  0.00    -0.182 C  
BRANCH  27  28
HETATM   28  C   UNL     1      -9.326   7.078  69.338  1.00  0.00    -0.146 C  
BRANCH  28  29
HETATM   29  C   UNL     1      -9.017   5.963  70.334  1.00  0.00    -0.154 C  
BRANCH  29  30
HETATM   30  C   UNL     1     -10.238   5.074  70.554  1.00  0.00    -0.316 C  
BRANCH  30  31
HETATM   31  C   UNL     1      -9.950   3.631  70.141  1.00  0.00     0.116 C  
BRANCH  31  32
HETATM   32  C   UNL     1      -9.063   2.933  71.172  1.00  0.00    -0.182 C  
BRANCH  32  33
HETATM   33  C   UNL     1      -9.892   2.077  72.126  1.00  0.00    -0.207 C  
HETATM   34  C   UNL     1      -9.624   2.450  73.574  1.00  0.00    -0.120 C  
ENDBRANCH  32  33
ENDBRANCH  31  32
ENDBRANCH  30  31
ENDBRANCH  29  30
ENDBRANCH  28  29
ENDBRANCH  27  28
ENDBRANCH  26  27
ENDBRANCH  25  26
ENDBRANCH  24  25
ENDBRANCH  23  24
ENDBRANCH  22  23
ENDBRANCH  20  22
ENDBRANCH  19  20
ENDBRANCH  18  19
BRANCH  18  35
HETATM   35  C   UNL     1      -6.489  12.036  70.832  1.00  0.00     1.392 C  
BRANCH  35  36
HETATM   36  O   UNL     1      -5.842  13.307  70.984  1.00  0.00    -0.213 OA 
BRANCH  36  37
HETATM   37  P   UNL     1      -6.777  14.635  70.392  1.00  0.00     0.329 P  
HETATM   38  O   UNL     1      -5.434  15.560  70.428  1.00  0.00    -0.138 OA 
HETATM   39  O   UNL     1      -6.902  13.880  69.084  1.00  0.00    -0.109 OA 
BRANCH  37  40
HETATM   40  O   UNL     1      -7.713  15.965  69.799  1.00  0.00    -0.094 OA 
BRANCH  40  41
HETATM   41  C   UNL     1      -9.064  15.670  69.339  1.00  0.00    -0.278 C  
BRANCH  41  42
HETATM   42  C   UNL     1      -9.330  15.678  67.810  1.00  0.00    -0.202 C  
HETATM   43  H   UNL     1     -10.817  15.219  66.587  1.00  0.00     0.000 HD 
HETATM   44  O   UNL     1     -10.654  15.214  67.523  1.00  0.00    -0.259 OA 
BRANCH  42  45
HETATM   45  C   UNL     1      -9.110  17.051  67.159  1.00  0.00    -0.223 C  
HETATM   46  O   UNL     1      -8.709  18.023  68.133  1.00  0.00    -0.258 OA 
HETATM   47  H   UNL     1      -8.573  18.872  67.730  1.00  0.00     0.000 HD 
ENDBRANCH  42  45
ENDBRANCH  41  42
ENDBRANCH  40  41
ENDBRANCH  37  40
ENDBRANCH  36  37
ENDBRANCH  35  36
ENDBRANCH  18  35
ENDBRANCH  17  18
ENDBRANCH  16  17
ENDBRANCH  14  16
ENDBRANCH  13  14
ENDBRANCH  12  13
ENDBRANCH  11  12
ENDBRANCH  10  11
ENDBRANCH   9  10
ENDBRANCH   8   9
ENDBRANCH   7   8
ENDBRANCH   6   7
ENDBRANCH   5   6
ENDBRANCH   4   5
ENDBRANCH   3   4
ENDBRANCH   2   3
TORSDOF 36
ENDMDL
MODEL      111
REMARK 921   NORMALIZED FREE ENERGY PREDICTED BY IDOCK:   10.60 KCAL/MOL
REMARK 922        TOTAL FREE ENERGY PREDICTED BY IDOCK:   27.44 KCAL/MOL
REMARK 923 INTER-LIGAND FREE ENERGY PREDICTED BY IDOCK:   18.20 KCAL/MOL
REMARK 924 INTRA-LIGAND FREE ENERGY PREDICTED BY IDOCK:    9.24 KCAL/MOL
REMARK 927      BINDING AFFINITY PREDICTED BY RF-SCORE:    0.00 PKD
ROOT
HETATM    1  C   UNL     1      -9.285  16.879  65.088  1.00  0.00     1.779 C  
HETATM    2  C   UNL     1      -9.697  15.682  65.929  1.00  0.00    -0.388 C  
ENDROOT
BRANCH   2   3
HETATM    3  C   UNL     1     -10.720  14.815  65.196  1.00  0.00    -0.433 C  
BRANCH   3   4
HETATM    4  C   UNL     1     -12.144  15.120  65.660  1.00  0.00     0.235 C  
BRANCH   4   5
HETATM    5  C   UNL     1     -12.704  13.971  66.497  1.00  0.00    -0.037 C  
BRANCH   5   6
HETATM    6  C   UNL     1     -13.819  14.451  67.425  1.00  0.00     7.782 C  
BRANCH   6   7
HETATM    7  C   UNL     1     -13.658  15.936  67.751  1.00  0.00     6.084 C  
BRANCH   7   8
HETATM    8  C   UNL     1     -12.243  16.245  68.230  1.00  0.00     0.861 C  
BRANCH   8   9
HETATM    9  C   UNL     1     -11.489  14.968  68.591  1.00  0.00    -0.329 C  
BRANCH   9  10
HETATM   10  C   UNL     1      -9.982  15.218  68.616  1.00  0.00    -0.216 C  
BRANCH  10  11
HETATM   11  C   UNL     1      -9.293  14.438  69.733  1.00  0.00     0.697 C  
BRANCH  11  12
HETATM   12  C   UNL     1     -10.061  13.152  70.033  1.00  0.00     2.142 C  
BRANCH  12  13
HETATM   13  C   UNL     1      -9.427  11.940  69.359  1.00  0.00     0.814 C  
BRANCH  13  14
HETATM   14  C   UNL     1      -7.929  11.952  69.559  1.00  0.00     0.806 C  
HETATM   15  O   UNL     1      -7.230  12.956  69.565  1.00  0.00     0.162 OA 
BRANCH  14  16
HETATM   16  O   UNL     1      -7.479  10.686  69.789  1.00  0.00    -0.150 OA 
BRANCH  16  17
HETATM   17  C   UNL     1      -6.120  10.606  70.253  1.00  0.00    -0.123 C  
BRANCH  17  18
HETATM   18  C   UNL     1      -5.170  10.177  69.127  1.00  0.00    -0.035 C  
BRANCH  18  19
HETATM   19  O   UNL     1      -5.665  10.717  67.878  1.00  0.00    -0.043 OA 
BRANCH  19  20
HETATM   20  C   UNL     1      -6.770  10.118  67.361  1.00  0.00    -0.073 C  
HETATM   21  O   UNL     1      -7.725  10.683  66.850  1.00  0.00    -0.112 OA 
BRANCH  20  22
HETATM   22  C   UNL     1      -6.651   8.619  67.484  1.00  0.00    -0.058 C  
BRANCH  22  23
HETATM   23  C   UNL     1      -6.267   7.975  66.157  1.00  0.00    -0.045 C  
BRANCH  23  24
HETATM   24  C   UNL     1      -7.267   6.903  65.715  1.00  0.00    -0.073 C  
BRANCH  24  25
HETATM   25  C   UNL     1      -7.668   7.095  64.253  1.00  0.00    -0.117 C  
BRANCH  25  26
HETATM   26  C   UNL     1      -6.783   6.261  63.332  1.00  0.00    -0.040 C  
BRANCH  26  27
HETATM   27  C   UNL     1      -5.886   5.317  64.127  1.00  0.00    -0.021 C  
BRANCH  27  28
HETATM   28  C   UNL     1      -6.717   4.404  65.025  1.00  0.00    -0.048 C  
BRANCH  28  29
HETATM   29  C   UNL     1      -7.882   3.788  64.254  1.00  0.00    -0.085 C  
BRANCH  29  30
HETATM   30  C   UNL     1      -7.400   2.671  63.334  1.00  0.00    -0.052 C  
BRANCH  30  31
HETATM   31  C   UNL     1      -8.562   2.057  62.555  1.00  0.00    -0.073 C  
BRANCH  31  32
HETATM   32  C   UNL     1      -9.897   2.357  63.235  1.00  0.00    -0.112 C  
BRANCH  32  33
HETATM   33  C   UNL     1     -10.412   3.743  62.855  1.00  0.00    -0.209 C  
HETATM   34  C   UNL     1     -10.446   4.668  64.060  1.00  0.00     0.470 C  
ENDBRANCH  32  33
ENDBRANCH  31  32
ENDBRANCH  30  31
ENDBRANCH  29  30
ENDBRANCH  28  29
ENDBRANCH  27  28
ENDBRANCH  26  27
ENDBRANCH  25  26
ENDBRANCH  24  25
ENDBRANCH  23  24
ENDBRANCH  22  23
ENDBRANCH  20  22
ENDBRANCH  19  20
ENDBRANCH  18  19
BRANCH  18  35
HETATM   35  C   UNL     1      -5.175   8.655  69.009  1.00  0.00    -0.036 C  
BRANCH  35  36
HETATM   36  O   UNL     1      -5.394   8.038  70.286  1.00  0.00    -0.023 OA 
BRANCH  36  37
HETATM   37  P   UNL     1      -6.520   6.726  70.237  1.00  0.00    -0.045 P  
HETATM   38  O   UNL     1      -5.360   5.795  69.565  1.00  0.00    -0.004 OA 
HETATM   39  O   UNL     1      -6.453   6.698  71.750  1.00  0.00    -0.048 OA 
BRANCH  37  40
HETATM   40  O   UNL     1      -7.645   5.413  70.188  1.00  0.00    -0.069 OA 
BRANCH  40  41
HETATM   41  C   UNL     1      -8.692   5.401  71.201  1.00  0.00    -0.129 C  
BRANCH  41  42
HETATM   42  C   UNL     1      -9.589   4.138  71.306  1.00  0.00    -0.172 C  
HETATM   43  H   UNL     1      -9.365   2.226  71.767  1.00  0.00     0.000 HD 
HETATM   44  O   UNL     1      -8.816   2.999  71.703  1.00  0.00    -0.072 OA 
BRANCH  42  45
HETATM   45  C   UNL     1     -10.781   4.312  72.258  1.00  0.00     0.043 C  
HETATM   46  O   UNL     1     -10.657   5.521  73.019  1.00  0.00    -0.206 OA 
HETATM   47  H   UNL     1     -11.395   5.629  73.608  1.00  0.00     0.000 HD 
ENDBRANCH  42  45
ENDBRANCH  41  42
ENDBRANCH  40  41
ENDBRANCH  37  40
ENDBRANCH  36  37
ENDBRANCH  35  36
ENDBRANCH  18  35
ENDBRANCH  17  18
ENDBRANCH  16  17
ENDBRANCH  14  16
ENDBRANCH  13  14
ENDBRANCH  12  13
ENDBRANCH  11  12
ENDBRANCH  10  11
ENDBRANCH   9  10
ENDBRANCH   8   9
ENDBRANCH   7   8
ENDBRANCH   6   7
ENDBRANCH   5   6
ENDBRANCH   4   5
ENDBRANCH   3   4
ENDBRANCH   2   3
TORSDOF 36
ENDMDL
MODEL      112
REMARK 921   NORMALIZED FREE ENERGY PREDICTED BY IDOCK:   11.59 KCAL/MOL
REMARK 922        TOTAL FREE ENERGY PREDICTED BY IDOCK:   30.52 KCAL/MOL
REMARK 923 INTER-LIGAND FREE ENERGY PREDICTED BY IDOCK:    3.90 KCAL/MOL
REMARK 924 INTRA-LIGAND FREE ENERGY PREDICTED BY IDOCK:   26.62 KCAL/MOL
REMARK 927      BINDING AFFINITY PREDICTED BY RF-SCORE:    0.00 PKD
ROOT
HETATM    1  C   UNL     1     -11.943   7.113  69.331  1.00  0.00     0.619 C  
HETATM    2  C   UNL     1     -10.742   6.185  69.403  1.00  0.00    -0.385 C  
ENDROOT
BRANCH   2   3
HETATM    3  C   UNL     1     -10.047   6.280  70.760  1.00  0.00    -0.229 C  
BRANCH   3   4
HETATM    4  C   UNL     1      -9.909   7.732  71.216  1.00  0.00    -0.194 C  
BRANCH   4   5
HETATM    5  C   UNL     1     -10.509   7.927  72.608  1.00  0.00    -0.384 C  
BRANCH   5   6
HETATM    6  C   UNL     1     -11.963   8.392  72.526  1.00  0.00    -0.418 C  
BRANCH   6   7
HETATM    7  C   UNL     1     -12.065   9.749  71.831  1.00  0.00    -0.331 C  
BRANCH   7   8
HETATM    8  C   UNL     1     -12.708   9.615  70.454  1.00  0.00     0.146 C  
BRANCH   8   9
HETATM    9  C   UNL     1     -13.110  10.978  69.896  1.00  0.00     0.372 C  
BRANCH   9  10
HETATM   10  C   UNL     1     -11.885  11.737  69.388  1.00  0.00    -0.398 C  
BRANCH  10  11
HETATM   11  C   UNL     1     -11.443  11.249  68.010  1.00  0.00    -0.369 C  
BRANCH  11  12
HETATM   12  C   UNL     1     -12.007  12.161  66.920  1.00  0.00    -0.164 C  
BRANCH  12  13
HETATM   13  C   UNL     1     -12.902  13.252  67.497  1.00  0.00     1.507 C  
BRANCH  13  14
HETATM   14  C   UNL     1     -12.284  13.830  68.749  1.00  0.00    -0.186 C  
HETATM   15  O   UNL     1     -12.910  14.228  69.722  1.00  0.00    -0.121 OA 
BRANCH  14  16
HETATM   16  O   UNL     1     -10.924  13.791  68.659  1.00  0.00    -0.249 OA 
BRANCH  16  17
HETATM   17  C   UNL     1     -10.317  12.621  69.233  1.00  0.00     0.323 C  
BRANCH  17  18
HETATM   18  C   UNL     1      -9.520  11.833  68.185  1.00  0.00    -0.193 C  
BRANCH  18  19
HETATM   19  O   UNL     1      -8.534  11.026  68.870  1.00  0.00    -0.157 OA 
BRANCH  19  20
HETATM   20  C   UNL     1      -7.794  11.659  69.819  1.00  0.00     1.024 C  
HETATM   21  O   UNL     1      -7.996  12.779  70.263  1.00  0.00     2.472 OA 
BRANCH  20  22
HETATM   22  C   UNL     1      -6.673  10.764  70.283  1.00  0.00    -0.052 C  
BRANCH  22  23
HETATM   23  C   UNL     1      -5.912  10.161  69.109  1.00  0.00    -0.037 C  
BRANCH  23  24
HETATM   24  C   UNL     1      -6.575   8.890  68.572  1.00  0.00    -0.059 C  
BRANCH  24  25
HETATM   25  C   UNL     1      -7.920   8.643  69.251  1.00  0.00    -0.103 C  
BRANCH  25  26
HETATM   26  C   UNL     1      -9.075   8.983  68.314  1.00  0.00    -0.133 C  
BRANCH  26  27
HETATM   27  C   UNL     1      -9.587   7.743  67.588  1.00  0.00    -0.177 C  
BRANCH  27  28
HETATM   28  C   UNL     1      -8.600   7.296  66.513  1.00  0.00    -0.134 C  
BRANCH  28  29
HETATM   29  C   UNL     1      -8.785   8.100  65.228  1.00  0.00    -0.093 C  
BRANCH  29  30
HETATM   30  C   UNL     1      -9.370   9.478  65.526  1.00  0.00    -0.317 C  
BRANCH  30  31
HETATM   31  C   UNL     1      -8.445  10.589  65.032  1.00  0.00    -0.166 C  
BRANCH  31  32
HETATM   32  C   UNL     1      -7.382  10.036  64.084  1.00  0.00    -0.132 C  
BRANCH  32  33
HETATM   33  C   UNL     1      -7.396  10.773  62.747  1.00  0.00     0.037 C  
HETATM   34  C   UNL     1      -5.994  11.190  62.334  1.00  0.00     0.014 C  
ENDBRANCH  32  33
ENDBRANCH  31  32
ENDBRANCH  30  31
ENDBRANCH  29  30
ENDBRANCH  28  29
ENDBRANCH  27  28
ENDBRANCH  26  27
ENDBRANCH  25  26
ENDBRANCH  24  25
ENDBRANCH  23  24
ENDBRANCH  22  23
ENDBRANCH  20  22
ENDBRANCH  19  20
ENDBRANCH  18  19
BRANCH  18  35
HETATM   35  C   UNL     1      -8.774  12.807  67.275  1.00  0.00    -0.200 C  
BRANCH  35  36
HETATM   36  O   UNL     1      -7.428  12.368  67.042  1.00  0.00    -0.128 OA 
BRANCH  36  37
HETATM   37  P   UNL     1      -6.289  13.664  66.922  1.00  0.00     2.241 P  
HETATM   38  O   UNL     1      -7.525  14.722  67.047  1.00  0.00    -0.111 OA 
HETATM   39  O   UNL     1      -5.770  13.248  68.283  1.00  0.00    -0.078 OA 
BRANCH  37  40
HETATM   40  O   UNL     1      -5.150  14.962  66.802  1.00  0.00     0.642 OA 
BRANCH  40  41
HETATM   41  C   UNL     1      -5.296  16.059  67.749  1.00  0.00    -0.138 C  
BRANCH  41  42
HETATM   42  C   UNL     1      -5.999  17.354  67.260  1.00  0.00    -0.137 C  
HETATM   43  H   UNL     1      -5.590  18.865  66.047  1.00  0.00     0.000 HD 
HETATM   44  O   UNL     1      -5.160  18.072  66.347  1.00  0.00    -0.128 OA 
BRANCH  42  45
HETATM   45  C   UNL     1      -7.368  17.100  66.614  1.00  0.00    -0.250 C  
HETATM   46  O   UNL     1      -7.333  15.936  65.777  1.00  0.00     0.850 OA 
HETATM   47  H   UNL     1      -8.180  15.778  65.378  1.00  0.00     0.000 HD 
ENDBRANCH  42  45
ENDBRANCH  41  42
ENDBRANCH  40  41
ENDBRANCH  37  40
ENDBRANCH  36  37
ENDBRANCH  35  36
ENDBRANCH  18  35
ENDBRANCH  17  18
ENDBRANCH  16  17
ENDBRANCH  14  16
ENDBRANCH  13  14
ENDBRANCH  12  13
ENDBRANCH  11  12
ENDBRANCH  10  11
ENDBRANCH   9  10
ENDBRANCH   8   9
ENDBRANCH   7   8
ENDBRANCH   6   7
ENDBRANCH   5   6
ENDBRANCH   4   5
ENDBRANCH   3   4
ENDBRANCH   2   3
TORSDOF 36
ENDMDL
MODEL      113
REMARK 921   NORMALIZED FREE ENERGY PREDICTED BY IDOCK:   12.29 KCAL/MOL
REMARK 922        TOTAL FREE ENERGY PREDICTED BY IDOCK:   32.68 KCAL/MOL
REMARK 923 INTER-LIGAND FREE ENERGY PREDICTED BY IDOCK:   16.90 KCAL/MOL
REMARK 924 INTRA-LIGAND FREE ENERGY PREDICTED BY IDOCK:   15.78 KCAL/MOL
REMARK 927      BINDING AFFINITY PREDICTED BY RF-SCORE:    0.00 PKD
ROOT
HETATM    1  C   UNL     1     -14.013  16.508  70.443  1.00  0.00     5.387 C  
HETATM    2  C   UNL     1     -12.614  16.277  69.897  1.00  0.00     0.962 C  
ENDROOT
BRANCH   2   3
HETATM    3  C   UNL     1     -12.517  16.683  68.428  1.00  0.00     1.995 C  
BRANCH   3   4
HETATM    4  C   UNL     1     -12.992  15.560  67.506  1.00  0.00     2.908 C  
BRANCH   4   5
HETATM    5  C   UNL     1     -12.669  14.191  68.101  1.00  0.00     0.897 C  
BRANCH   5   6
HETATM    6  C   UNL     1     -11.263  14.162  68.699  1.00  0.00    -0.291 C  
BRANCH   6   7
HETATM    7  C   UNL     1     -11.272  14.663  70.143  1.00  0.00    -0.230 C  
BRANCH   7   8
HETATM    8  C   UNL     1     -10.341  15.859  70.317  1.00  0.00    -0.087 C  
BRANCH   8   9
HETATM    9  C   UNL     1      -9.199  15.537  71.278  1.00  0.00     3.173 C  
BRANCH   9  10
HETATM   10  C   UNL     1      -8.688  14.114  71.052  1.00  0.00     4.893 C  
BRANCH  10  11
HETATM   11  C   UNL     1      -7.205  14.092  70.690  1.00  0.00     1.117 C  
BRANCH  11  12
HETATM   12  C   UNL     1      -6.960  13.140  69.520  1.00  0.00     0.171 C  
BRANCH  12  13
HETATM   13  C   UNL     1      -7.078  11.679  69.940  1.00  0.00     0.377 C  
BRANCH  13  14
HETATM   14  C   UNL     1      -5.735  10.994  69.836  1.00  0.00    -0.072 C  
HETATM   15  O   UNL     1      -5.129  10.490  70.772  1.00  0.00    -0.061 OA 
BRANCH  14  16
HETATM   16  O   UNL     1      -5.325  10.966  68.536  1.00  0.00    -0.041 OA 
BRANCH  16  17
HETATM   17  C   UNL     1      -6.217  10.284  67.638  1.00  0.00    -0.057 C  
BRANCH  17  18
HETATM   18  C   UNL     1      -6.679  11.207  66.502  1.00  0.00    -0.128 C  
BRANCH  18  19
HETATM   19  O   UNL     1      -7.014  12.497  67.066  1.00  0.00    -0.098 OA 
BRANCH  19  20
HETATM   20  C   UNL     1      -8.328  12.708  67.345  1.00  0.00    -0.184 C  
HETATM   21  O   UNL     1      -9.216  11.869  67.314  1.00  0.00    -0.172 OA 
BRANCH  20  22
HETATM   22  C   UNL     1      -8.549  14.149  67.730  1.00  0.00    -0.184 C  
BRANCH  22  23
HETATM   23  C   UNL     1      -9.576  14.822  66.827  1.00  0.00    -0.267 C  
BRANCH  23  24
HETATM   24  C   UNL     1      -8.927  15.703  65.757  1.00  0.00    -0.028 C  
BRANCH  24  25
HETATM   25  C   UNL     1      -9.495  17.121  65.793  1.00  0.00     0.036 C  
BRANCH  25  26
HETATM   26  C   UNL     1     -10.463  17.291  66.960  1.00  0.00    -0.287 C  
BRANCH  26  27
HETATM   27  C   UNL     1     -10.027  18.426  67.882  1.00  0.00    -0.370 C  
BRANCH  27  28
HETATM   28  C   UNL     1      -9.200  17.891  69.049  1.00  0.00    -0.047 C  
BRANCH  28  29
HETATM   29  C   UNL     1      -7.834  17.403  68.576  1.00  0.00    -0.268 C  
BRANCH  29  30
HETATM   30  C   UNL     1      -7.312  18.264  67.429  1.00  0.00    -0.218 C  
BRANCH  30  31
HETATM   31  C   UNL     1      -7.289  19.742  67.816  1.00  0.00    -0.314 C  
BRANCH  31  32
HETATM   32  C   UNL     1      -6.524  20.567  66.782  1.00  0.00    -0.285 C  
BRANCH  32  33
HETATM   33  C   UNL     1      -6.983  20.238  65.363  1.00  0.00    -0.297 C  
HETATM   34  C   UNL     1      -6.608  18.817  64.978  1.00  0.00    -0.068 C  
ENDBRANCH  32  33
ENDBRANCH  31  32
ENDBRANCH  30  31
ENDBRANCH  29  30
ENDBRANCH  28  29
ENDBRANCH  27  28
ENDBRANCH  26  27
ENDBRANCH  25  26
ENDBRANCH  24  25
ENDBRANCH  23  24
ENDBRANCH  22  23
ENDBRANCH  20  22
ENDBRANCH  19  20
ENDBRANCH  18  19
BRANCH  18  35
HETATM   35  C   UNL     1      -7.944  10.636  65.866  1.00  0.00    -0.157 C  
BRANCH  35  36
HETATM   36  O   UNL     1      -7.679   9.380  65.224  1.00  0.00    -0.104 OA 
BRANCH  36  37
HETATM   37  P   UNL     1      -7.045   8.177  66.293  1.00  0.00    -0.075 P  
HETATM   38  O   UNL     1      -8.543   7.975  66.907  1.00  0.00    -0.123 OA 
HETATM   39  O   UNL     1      -6.817   7.307  65.074  1.00  0.00    -0.046 OA 
BRANCH  37  40
HETATM   40  O   UNL     1      -6.412   6.974  67.363  1.00  0.00    -0.049 OA 
BRANCH  40  41
HETATM   41  C   UNL     1      -7.262   5.824  67.644  1.00  0.00    -0.076 C  
BRANCH  41  42
HETATM   42  C   UNL     1      -7.791   5.647  69.092  1.00  0.00    -0.089 C  
HETATM   43  H   UNL     1      -7.123   4.924  70.809  1.00  0.00     0.000 HD 
HETATM   44  O   UNL     1      -6.799   5.033  69.922  1.00  0.00    -0.048 OA 
BRANCH  42  45
HETATM   45  C   UNL     1      -8.265   6.958  69.735  1.00  0.00    -0.131 C  
HETATM   46  O   UNL     1      -7.241   7.523  70.564  1.00  0.00    -0.062 OA 
HETATM   47  H   UNL     1      -7.534   8.334  70.961  1.00  0.00     0.000 HD 
ENDBRANCH  42  45
ENDBRANCH  41  42
ENDBRANCH  40  41
ENDBRANCH  37  40
ENDBRANCH  36  37
ENDBRANCH  35  36
ENDBRANCH  18  35
ENDBRANCH  17  18
ENDBRANCH  16  17
ENDBRANCH  14  16
ENDBRANCH  13  14
ENDBRANCH  12  13
ENDBRANCH  11  12
ENDBRANCH  10  11
ENDBRANCH   9  10
ENDBRANCH   8   9
ENDBRANCH   7   8
ENDBRANCH   6   7
ENDBRANCH   5   6
ENDBRANCH   4   5
ENDBRANCH   3   4
ENDBRANCH   2   3
TORSDOF 36
ENDMDL
MODEL      114
REMARK 921   NORMALIZED FREE ENERGY PREDICTED BY IDOCK:   16.87 KCAL/MOL
REMARK 922        TOTAL FREE ENERGY PREDICTED BY IDOCK:   46.91 KCAL/MOL
REMARK 923 INTER-LIGAND FREE ENERGY PREDICTED BY IDOCK:   32.04 KCAL/MOL
REMARK 924 INTRA-LIGAND FREE ENERGY PREDICTED BY IDOCK:   14.86 KCAL/MOL
REMARK 927      BINDING AFFINITY PREDICTED BY RF-SCORE:    0.00 PKD
ROOT
HETATM    1  C   UNL     1     -14.101  16.608  70.465  1.00  0.00     6.446 C  
HETATM    2  C   UNL     1     -12.742  16.477  69.798  1.00  0.00     2.205 C  
ENDROOT
BRANCH   2   3
HETATM    3  C   UNL     1     -12.779  16.982  68.357  1.00  0.00     3.758 C  
BRANCH   3   4
HETATM    4  C   UNL     1     -13.335  15.920  67.408  1.00  0.00     5.087 C  
BRANCH   4   5
HETATM    5  C   UNL     1     -12.986  14.515  67.896  1.00  0.00     1.964 C  
BRANCH   5   6
HETATM    6  C   UNL     1     -11.631  14.493  68.603  1.00  0.00    -0.346 C  
BRANCH   6   7
HETATM    7  C   UNL     1     -11.778  14.857  70.080  1.00  0.00    -0.340 C  
BRANCH   7   8
HETATM    8  C   UNL     1     -10.973  16.107  70.423  1.00  0.00    -0.320 C  
BRANCH   8   9
HETATM    9  C   UNL     1      -9.886  15.801  71.449  1.00  0.00     2.460 C  
BRANCH   9  10
HETATM   10  C   UNL     1      -9.239  14.446  71.164  1.00  0.00     4.247 C  
BRANCH  10  11
HETATM   11  C   UNL     1      -7.744  14.576  70.882  1.00  0.00     2.120 C  
BRANCH  11  12
HETATM   12  C   UNL     1      -7.357  13.718  69.678  1.00  0.00     0.377 C  
BRANCH  12  13
HETATM   13  C   UNL     1      -7.313  12.234  70.027  1.00  0.00     1.343 C  
BRANCH  13  14
HETATM   14  C   UNL     1      -5.899  11.712  69.922  1.00  0.00    -0.125 C  
HETATM   15  O   UNL     1      -5.254  11.238  70.848  1.00  0.00    -0.103 OA 
BRANCH  14  16
HETATM   16  O   UNL     1      -5.466  11.793  68.631  1.00  0.00    -0.049 OA 
BRANCH  16  17
HETATM   17  C   UNL     1      -6.251  11.046  67.686  1.00  0.00    -0.052 C  
BRANCH  17  18
HETATM   18  C   UNL     1      -6.822  11.957  66.591  1.00  0.00     0.089 C  
BRANCH  18  19
HETATM   19  O   UNL     1      -7.311  13.170  67.211  1.00  0.00    -0.137 OA 
BRANCH  19  20
HETATM   20  C   UNL     1      -8.600  13.507  66.937  1.00  0.00    -0.099 C  
HETATM   21  O   UNL     1      -9.439  12.788  66.416  1.00  0.00    -0.246 OA 
BRANCH  20  22
HETATM   22  C   UNL     1      -8.873  14.918  67.396  1.00  0.00    -0.204 C  
BRANCH  22  23
HETATM   23  C   UNL     1      -9.498  15.758  66.289  1.00  0.00    -0.349 C  
BRANCH  23  24
HETATM   24  C   UNL     1      -8.476  16.652  65.583  1.00  0.00     0.572 C  
BRANCH  24  25
HETATM   25  C   UNL     1      -8.929  18.111  65.581  1.00  0.00     0.690 C  
BRANCH  25  26
HETATM   26  C   UNL     1      -9.775  18.421  66.813  1.00  0.00    -0.331 C  
BRANCH  26  27
HETATM   27  C   UNL     1      -9.169  19.557  67.631  1.00  0.00    -0.389 C  
BRANCH  27  28
HETATM   28  C   UNL     1      -8.232  19.014  68.707  1.00  0.00    -0.369 C  
BRANCH  28  29
HETATM   29  C   UNL     1      -7.030  18.308  68.083  1.00  0.00    -0.230 C  
BRANCH  29  30
HETATM   30  C   UNL     1      -6.664  18.934  66.740  1.00  0.00    -0.205 C  
BRANCH  30  31
HETATM   31  C   UNL     1      -5.758  18.009  65.929  1.00  0.00    -0.241 C  
BRANCH  31  32
HETATM   32  C   UNL     1      -5.687  18.454  64.469  1.00  0.00     0.003 C  
BRANCH  32  33
HETATM   33  C   UNL     1      -5.337  19.936  64.359  1.00  0.00    -0.219 C  
HETATM   34  C   UNL     1      -6.438  20.807  64.939  1.00  0.00    -0.264 C  
ENDBRANCH  32  33
ENDBRANCH  31  32
ENDBRANCH  30  31
ENDBRANCH  29  30
ENDBRANCH  28  29
ENDBRANCH  27  28
ENDBRANCH  26  27
ENDBRANCH  25  26
ENDBRANCH  24  25
ENDBRANCH  23  24
ENDBRANCH  22  23
ENDBRANCH  20  22
ENDBRANCH  19  20
ENDBRANCH  18  19
BRANCH  18  35
HETATM   35  C   UNL     1      -8.008  11.267  65.921  1.00  0.00     0.083 C  
BRANCH  35  36
HETATM   36  O   UNL     1      -7.814   9.847  65.863  1.00  0.00    -0.109 OA 
BRANCH  36  37
HETATM   37  P   UNL     1      -8.925   8.956  66.844  1.00  0.00    -0.137 P  
HETATM   38  O   UNL     1     -10.151   9.778  66.152  1.00  0.00    -0.257 OA 
HETATM   39  O   UNL     1      -8.550   7.728  66.040  1.00  0.00    -0.137 OA 
BRANCH  37  40
HETATM   40  O   UNL     1     -10.037   8.065  67.826  1.00  0.00    -0.172 OA 
BRANCH  40  41
HETATM   41  C   UNL     1     -10.291   6.680  67.447  1.00  0.00    -0.220 C  
BRANCH  41  42
HETATM   42  C   UNL     1     -11.229   6.417  66.239  1.00  0.00     0.922 C  
HETATM   43  H   UNL     1     -11.871   7.407  64.650  1.00  0.00     0.000 HD 
HETATM   44  O   UNL     1     -11.297   7.568  65.389  1.00  0.00     5.624 OA 
BRANCH  42  45
HETATM   45  C   UNL     1     -10.831   5.186  65.413  1.00  0.00     0.384 C  
HETATM   46  O   UNL     1     -11.990   4.483  64.948  1.00  0.00    -0.681 OA 
HETATM   47  H   UNL     1     -11.744   3.721  64.437  1.00  0.00     0.000 HD 
ENDBRANCH  42  45
ENDBRANCH  41  42
ENDBRANCH  40  41
ENDBRANCH  37  40
ENDBRANCH  36  37
ENDBRANCH  35  36
ENDBRANCH  18  35
ENDBRANCH  17  18
ENDBRANCH  16  17
ENDBRANCH  14  16
ENDBRANCH  13  14
ENDBRANCH  12  13
ENDBRANCH  11  12
ENDBRANCH  10  11
ENDBRANCH   9  10
ENDBRANCH   8   9
ENDBRANCH   7   8
ENDBRANCH   6   7
ENDBRANCH   5   6
ENDBRANCH   4   5
ENDBRANCH   3   4
ENDBRANCH   2   3
TORSDOF 36
ENDMDL
MODEL      115
REMARK 921   NORMALIZED FREE ENERGY PREDICTED BY IDOCK:   29.16 KCAL/MOL
REMARK 922        TOTAL FREE ENERGY PREDICTED BY IDOCK:   85.06 KCAL/MOL
REMARK 923 INTER-LIGAND FREE ENERGY PREDICTED BY IDOCK:   23.64 KCAL/MOL
REMARK 924 INTRA-LIGAND FREE ENERGY PREDICTED BY IDOCK:   61.41 KCAL/MOL
REMARK 927      BINDING AFFINITY PREDICTED BY RF-SCORE:    0.00 PKD
ROOT
HETATM    1  C   UNL     1      -5.855  12.626  66.293  1.00  0.00     2.232 C  
HETATM    2  C   UNL     1      -6.205  11.370  65.513  1.00  0.00     0.717 C  
ENDROOT
BRANCH   2   3
HETATM    3  C   UNL     1      -6.384  10.171  66.442  1.00  0.00    -0.077 C  
BRANCH   3   4
HETATM    4  C   UNL     1      -7.503   9.251  65.956  1.00  0.00    -0.095 C  
BRANCH   4   5
HETATM    5  C   UNL     1      -8.565  10.039  65.191  1.00  0.00    -0.170 C  
BRANCH   5   6
HETATM    6  C   UNL     1      -9.264  11.053  66.096  1.00  0.00    -0.209 C  
BRANCH   6   7
HETATM    7  C   UNL     1      -8.711  10.989  67.519  1.00  0.00    -0.128 C  
BRANCH   7   8
HETATM    8  C   UNL     1      -9.600  10.135  68.418  1.00  0.00    -0.150 C  
BRANCH   8   9
HETATM    9  C   UNL     1      -9.943   8.804  67.753  1.00  0.00    -0.243 C  
BRANCH   9  10
HETATM   10  C   UNL     1      -8.914   8.455  66.679  1.00  0.00    -0.181 C  
BRANCH  10  11
HETATM   11  C   UNL     1      -9.363   7.276  65.820  1.00  0.00     0.159 C  
BRANCH  11  12
HETATM   12  C   UNL     1      -8.929   5.958  66.461  1.00  0.00    -0.133 C  
BRANCH  12  13
HETATM   13  C   UNL     1      -9.739   5.641  67.714  1.00  0.00    -0.140 C  
BRANCH  13  14
HETATM   14  C   UNL     1      -9.687   4.161  68.012  1.00  0.00    -0.094 C  
HETATM   15  O   UNL     1     -10.260   3.294  67.366  1.00  0.00     0.641 OA 
BRANCH  14  16
HETATM   16  O   UNL     1      -8.861   3.927  69.072  1.00  0.00    -0.088 OA 
BRANCH  16  17
HETATM   17  C   UNL     1      -8.056   5.052  69.466  1.00  0.00    -0.078 C  
BRANCH  17  18
HETATM   18  C   UNL     1      -8.201   5.343  70.966  1.00  0.00    -0.118 C  
BRANCH  18  19
HETATM   19  O   UNL     1      -9.405   4.697  71.445  1.00  0.00    -0.136 OA 
BRANCH  19  20
HETATM   20  C   UNL     1     -10.353   5.514  71.978  1.00  0.00    -0.213 C  
HETATM   21  O   UNL     1     -10.916   5.360  73.051  1.00  0.00    -0.252 OA 
BRANCH  20  22
HETATM   22  C   UNL     1     -10.610   6.679  71.056  1.00  0.00    -0.263 C  
BRANCH  22  23
HETATM   23  C   UNL     1     -12.010   6.625  70.457  1.00  0.00    -0.377 C  
BRANCH  23  24
HETATM   24  C   UNL     1     -12.282   7.785  69.496  1.00  0.00     1.608 C  
BRANCH  24  25
HETATM   25  C   UNL     1     -11.146   8.806  69.532  1.00  0.00     0.006 C  
BRANCH  25  26
HETATM   26  C   UNL     1     -11.533  10.078  68.784  1.00  0.00    -0.040 C  
BRANCH  26  27
HETATM   27  C   UNL     1     -11.389   9.900  67.275  1.00  0.00     0.425 C  
BRANCH  27  28
HETATM   28  C   UNL     1     -11.970  11.098  66.528  1.00  0.00     1.193 C  
BRANCH  28  29
HETATM   29  C   UNL     1     -11.645  11.027  65.038  1.00  0.00     0.555 C  
BRANCH  29  30
HETATM   30  C   UNL     1     -10.971  12.311  64.563  1.00  0.00    -0.358 C  
BRANCH  30  31
HETATM   31  C   UNL     1     -11.999  13.308  64.030  1.00  0.00    -0.525 C  
BRANCH  31  32
HETATM   32  C   UNL     1     -12.175  14.481  64.992  1.00  0.00    -0.376 C  
BRANCH  32  33
HETATM   33  C   UNL     1     -12.736  15.707  64.274  1.00  0.00     0.620 C  
HETATM   34  C   UNL     1     -13.332  15.331  62.928  1.00  0.00     4.846 C  
ENDBRANCH  32  33
ENDBRANCH  31  32
ENDBRANCH  30  31
ENDBRANCH  29  30
ENDBRANCH  28  29
ENDBRANCH  27  28
ENDBRANCH  26  27
ENDBRANCH  25  26
ENDBRANCH  24  25
ENDBRANCH  23  24
ENDBRANCH  22  23
ENDBRANCH  20  22
ENDBRANCH  19  20
ENDBRANCH  18  19
BRANCH  18  35
HETATM   35  C   UNL     1      -8.365   6.846  71.179  1.00  0.00    -0.119 C  
BRANCH  35  36
HETATM   36  O   UNL     1      -8.570   7.526  69.932  1.00  0.00    -0.137 OA 
BRANCH  36  37
HETATM   37  P   UNL     1      -9.512   8.969  70.078  1.00  0.00    -0.216 P  
HETATM   38  O   UNL     1      -9.613   8.706  71.685  1.00  0.00    -0.221 OA 
HETATM   39  O   UNL     1      -8.262   9.744  69.715  1.00  0.00    -0.139 OA 
BRANCH  37  40
HETATM   40  O   UNL     1     -10.455  10.412  70.224  1.00  0.00    -0.227 OA 
BRANCH  40  41
HETATM   41  C   UNL     1      -9.852  11.525  70.947  1.00  0.00     5.733 C  
BRANCH  41  42
HETATM   42  C   UNL     1      -9.656  12.865  70.188  1.00  0.00     3.711 C  
HETATM   43  H   UNL     1     -10.442  13.780  68.619  1.00  0.00     0.000 HD 
HETATM   44  O   UNL     1     -10.562  12.959  69.083  1.00  0.00    -0.107 OA 
BRANCH  42  45
HETATM   45  C   UNL     1      -9.804  14.102  71.086  1.00  0.00     4.324 C  
HETATM   46  O   UNL     1      -8.526  14.691  71.362  1.00  0.00     2.483 OA 
HETATM   47  H   UNL     1      -8.617  15.456  71.917  1.00  0.00     0.000 HD 
ENDBRANCH  42  45
ENDBRANCH  41  42
ENDBRANCH  40  41
ENDBRANCH  37  40
ENDBRANCH  36  37
ENDBRANCH  35  36
ENDBRANCH  18  35
ENDBRANCH  17  18
ENDBRANCH  16  17
ENDBRANCH  14  16
ENDBRANCH  13  14
ENDBRANCH  12  13
ENDBRANCH  11  12
ENDBRANCH  10  11
ENDBRANCH   9  10
ENDBRANCH   8   9
ENDBRANCH   7   8
ENDBRANCH   6   7
ENDBRANCH   5   6
ENDBRANCH   4   5
ENDBRANCH   3   4
ENDBRANCH   2   3
TORSDOF 36
ENDMDL
MODEL      116
REMARK 921   NORMALIZED FREE ENERGY PREDICTED BY IDOCK:   30.52 KCAL/MOL
REMARK 922        TOTAL FREE ENERGY PREDICTED BY IDOCK:   89.29 KCAL/MOL
REMARK 923 INTER-LIGAND FREE ENERGY PREDICTED BY IDOCK:   37.63 KCAL/MOL
REMARK 924 INTRA-LIGAND FREE ENERGY PREDICTED BY IDOCK:   51.66 KCAL/MOL
REMARK 927      BINDING AFFINITY PREDICTED BY RF-SCORE:    0.00 PKD
ROOT
HETATM    1  C   UNL     1      -7.627  10.106  68.408  1.00  0.00    -0.087 C  
HETATM    2  C   UNL     1      -6.427  10.806  69.026  1.00  0.00    -0.054 C  
ENDROOT
BRANCH   2   3
HETATM    3  C   UNL     1      -6.461  10.722  70.551  1.00  0.00    -0.000 C  
BRANCH   3   4
HETATM    4  C   UNL     1      -7.325   9.554  71.027  1.00  0.00     0.020 C  
BRANCH   4   5
HETATM    5  C   UNL     1      -8.440  10.040  71.950  1.00  0.00     3.565 C  
BRANCH   5   6
HETATM    6  C   UNL     1      -9.518   8.972  72.131  1.00  0.00     0.023 C  
BRANCH   6   7
HETATM    7  C   UNL     1     -10.698   9.220  71.193  1.00  0.00    -0.403 C  
BRANCH   7   8
HETATM    8  C   UNL     1     -10.454   8.597  69.822  1.00  0.00    -0.220 C  
BRANCH   8   9
HETATM    9  C   UNL     1      -9.773   9.585  68.878  1.00  0.00    -0.166 C  
BRANCH   9  10
HETATM   10  C   UNL     1      -9.406  10.872  69.616  1.00  0.00     0.341 C  
BRANCH  10  11
HETATM   11  C   UNL     1     -10.601  11.812  69.752  1.00  0.00     0.453 C  
BRANCH  11  12
HETATM   12  C   UNL     1     -10.177  13.252  69.469  1.00  0.00     0.680 C  
BRANCH  12  13
HETATM   13  C   UNL     1      -8.744  13.333  68.956  1.00  0.00     0.433 C  
BRANCH  13  14
HETATM   14  C   UNL     1      -8.469  12.208  67.985  1.00  0.00    -0.170 C  
HETATM   15  O   UNL     1      -8.370  11.027  68.288  1.00  0.00    -0.120 OA 
BRANCH  14  16
HETATM   16  O   UNL     1      -8.406  12.695  66.713  1.00  0.00    -0.126 OA 
BRANCH  16  17
HETATM   17  C   UNL     1      -9.519  13.520  66.329  1.00  0.00    -0.184 C  
BRANCH  17  18
HETATM   18  C   UNL     1      -9.071  14.680  65.429  1.00  0.00     0.982 C  
BRANCH  18  19
HETATM   19  O   UNL     1     -10.246  15.279  64.833  1.00  0.00    -0.336 OA 
BRANCH  19  20
HETATM   20  C   UNL     1     -11.440  14.933  65.382  1.00  0.00    -0.320 C  
HETATM   21  O   UNL     1     -12.036  15.543  66.258  1.00  0.00     0.309 OA 
BRANCH  20  22
HETATM   22  C   UNL     1     -11.962  13.674  64.736  1.00  0.00    -0.426 C  
BRANCH  22  23
HETATM   23  C   UNL     1     -12.518  12.701  65.767  1.00  0.00    -0.159 C  
BRANCH  23  24
HETATM   24  C   UNL     1     -13.385  13.395  66.820  1.00  0.00     3.220 C  
BRANCH  24  25
HETATM   25  C   UNL     1     -14.198  14.531  66.201  1.00  0.00     5.840 C  
BRANCH  25  26
HETATM   26  C   UNL     1     -13.721  15.886  66.716  1.00  0.00     6.863 C  
BRANCH  26  27
HETATM   27  C   UNL     1     -12.375  15.769  67.425  1.00  0.00     1.333 C  
BRANCH  27  28
HETATM   28  C   UNL     1     -12.544  15.166  68.817  1.00  0.00     0.383 C  
BRANCH  28  29
HETATM   29  C   UNL     1     -11.419  15.610  69.748  1.00  0.00    -0.346 C  
BRANCH  29  30
HETATM   30  C   UNL     1     -10.102  15.746  68.989  1.00  0.00    -0.225 C  
BRANCH  30  31
HETATM   31  C   UNL     1      -9.989  17.116  68.322  1.00  0.00    -0.300 C  
BRANCH  31  32
HETATM   32  C   UNL     1      -8.602  17.317  67.714  1.00  0.00    -0.225 C  
BRANCH  32  33
HETATM   33  C   UNL     1      -7.503  17.016  68.731  1.00  0.00    -0.242 C  
HETATM   34  C   UNL     1      -6.681  15.809  68.313  1.00  0.00    -0.123 C  
ENDBRANCH  32  33
ENDBRANCH  31  32
ENDBRANCH  30  31
ENDBRANCH  29  30
ENDBRANCH  28  29
ENDBRANCH  27  28
ENDBRANCH  26  27
ENDBRANCH  25  26
ENDBRANCH  24  25
ENDBRANCH  23  24
ENDBRANCH  22  23
ENDBRANCH  20  22
ENDBRANCH  19  20
ENDBRANCH  18  19
BRANCH  18  35
HETATM   35  C   UNL     1      -8.199  14.139  64.298  1.00  0.00    10.806 C  
BRANCH  35  36
HETATM   36  O   UNL     1      -7.513  12.945  64.700  1.00  0.00     6.468 OA 
BRANCH  36  37
HETATM   37  P   UNL     1      -8.415  11.498  64.412  1.00  0.00     1.251 P  
HETATM   38  O   UNL     1      -7.743  10.848  65.749  1.00  0.00    -0.130 OA 
HETATM   39  O   UNL     1      -9.664  12.289  64.741  1.00  0.00    -0.146 OA 
BRANCH  37  40
HETATM   40  O   UNL     1      -9.317  10.050  64.125  1.00  0.00    -0.262 OA 
BRANCH  40  41
HETATM   41  C   UNL     1      -9.218   8.999  65.130  1.00  0.00    -0.093 C  
BRANCH  41  42
HETATM   42  C   UNL     1      -8.076   7.958  64.985  1.00  0.00    -0.144 C  
HETATM   43  H   UNL     1      -7.689   6.122  65.614  1.00  0.00     0.000 HD 
HETATM   44  O   UNL     1      -8.388   6.759  65.703  1.00  0.00    -0.138 OA 
BRANCH  42  45
HETATM   45  C   UNL     1      -7.743   7.616  63.525  1.00  0.00    -0.130 C  
HETATM   46  O   UNL     1      -7.483   6.214  63.373  1.00  0.00    -0.064 OA 
HETATM   47  H   UNL     1      -7.277   6.003  62.470  1.00  0.00     0.000 HD 
ENDBRANCH  42  45
ENDBRANCH  41  42
ENDBRANCH  40  41
ENDBRANCH  37  40
ENDBRANCH  36  37
ENDBRANCH  35  36
ENDBRANCH  18  35
ENDBRANCH  17  18
ENDBRANCH  16  17
ENDBRANCH  14  16
ENDBRANCH  13  14
ENDBRANCH  12  13
ENDBRANCH  11  12
ENDBRANCH  10  11
ENDBRANCH   9  10
ENDBRANCH   8   9
ENDBRANCH   7   8
ENDBRANCH   6   7
ENDBRANCH   5   6
ENDBRANCH   4   5
ENDBRANCH   3   4
ENDBRANCH   2   3
TORSDOF 36
ENDMDL
