MODEL        1
REMARK 921   NORMALIZED FREE ENERGY PREDICTED BY IDOCK:   -4.90 KCAL/MOL
REMARK 922        TOTAL FREE ENERGY PREDICTED BY IDOCK:  -20.69 KCAL/MOL
REMARK 923 INTER-LIGAND FREE ENERGY PREDICTED BY IDOCK:  -15.20 KCAL/MOL
REMARK 924 INTRA-LIGAND FREE ENERGY PREDICTED BY IDOCK:   -5.49 KCAL/MOL
REMARK 927      BINDING AFFINITY PREDICTED BY RF-SCORE:    0.00 PKD
ROOT
HETATM    1  C   UNL     1      -9.772   4.290  69.928  1.00  0.00    -0.291 C  
HETATM    2  C   UNL     1     -10.322   5.610  70.442  1.00  0.00    -0.330 C  
ENDROOT
BRANCH   2   3
HETATM    3  C   UNL     1     -11.256   6.256  69.420  1.00  0.00    -0.489 C  
BRANCH   3   4
HETATM    4  C   UNL     1     -10.700   6.134  68.003  1.00  0.00    -0.370 C  
BRANCH   4   5
HETATM    5  C   UNL     1     -10.839   7.454  67.246  1.00  0.00    -0.326 C  
BRANCH   5   6
HETATM    6  C   UNL     1      -9.550   7.809  66.509  1.00  0.00    -0.270 C  
BRANCH   6   7
HETATM    7  C   UNL     1      -9.327   9.321  66.491  1.00  0.00    -0.231 C  
BRANCH   7   8
HETATM    8  C   UNL     1     -10.144   9.981  65.379  1.00  0.00    -0.317 C  
BRANCH   8   9
HETATM    9  C   UNL     1      -9.291  10.220  64.134  1.00  0.00    -0.336 C  
BRANCH   9  10
HETATM   10  C   UNL     1      -9.775  11.453  63.375  1.00  0.00    -0.385 C  
BRANCH  10  11
HETATM   11  C   UNL     1     -11.289  11.620  63.491  1.00  0.00    -0.447 C  
BRANCH  11  12
HETATM   12  C   UNL     1     -11.652  13.054  63.884  1.00  0.00    -0.508 C  
BRANCH  12  13
HETATM   13  C   UNL     1     -12.722  13.112  64.972  1.00  0.00    -0.456 C  
BRANCH  13  14
HETATM   14  C   UNL     1     -12.124  13.129  66.355  1.00  0.00    -0.382 C  
HETATM   15  O   UNL     1     -12.052  12.148  67.084  1.00  0.00    -0.575 OA 
BRANCH  14  16
HETATM   16  O   UNL     1     -11.645  14.368  66.643  1.00  0.00    -0.357 OA 
BRANCH  16  17
HETATM   17  C   UNL     1     -10.468  14.394  67.464  1.00  0.00    -0.252 C  
BRANCH  17  18
HETATM   18  C   UNL     1     -10.717  15.155  68.766  1.00  0.00    -0.239 C  
BRANCH  18  19
HETATM   19  O   UNL     1     -12.133  15.387  68.933  1.00  0.00    -0.300 OA 
BRANCH  19  20
HETATM   20  C   UNL     1     -12.629  15.075  70.156  1.00  0.00    -0.269 C  
HETATM   21  O   UNL     1     -13.250  15.834  70.887  1.00  0.00    -0.560 OA 
BRANCH  20  22
HETATM   22  C   UNL     1     -12.315  13.635  70.480  1.00  0.00    -0.425 C  
BRANCH  22  23
HETATM   23  C   UNL     1     -13.080  13.211  71.731  1.00  0.00    -0.478 C  
BRANCH  23  24
HETATM   24  C   UNL     1     -13.240  11.696  71.821  1.00  0.00    -0.438 C  
BRANCH  24  25
HETATM   25  C   UNL     1     -12.449  11.007  70.708  1.00  0.00    -0.491 C  
BRANCH  25  26
HETATM   26  C   UNL     1     -12.216   9.531  71.017  1.00  0.00    -0.385 C  
BRANCH  26  27
HETATM   27  C   UNL     1     -10.762   9.277  71.415  1.00  0.00    -0.432 C  
BRANCH  27  28
HETATM   28  C   UNL     1      -9.814   9.596  70.262  1.00  0.00    -0.321 C  
BRANCH  28  29
HETATM   29  C   UNL     1      -8.361   9.316  70.643  1.00  0.00    -0.245 C  
BRANCH  29  30
HETATM   30  C   UNL     1      -7.822   8.103  69.885  1.00  0.00    -0.104 C  
BRANCH  30  31
HETATM   31  C   UNL     1      -6.622   8.479  69.016  1.00  0.00    -0.048 C  
BRANCH  31  32
HETATM   32  C   UNL     1      -6.189   7.301  68.143  1.00  0.00    -0.036 C  
BRANCH  32  33
HETATM   33  C   UNL     1      -6.976   6.037  68.486  1.00  0.00    -0.076 C  
HETATM   34  C   UNL     1      -6.045   4.879  68.811  1.00  0.00    -0.030 C  
ENDBRANCH  32  33
ENDBRANCH  31  32
ENDBRANCH  30  31
ENDBRANCH  29  30
ENDBRANCH  28  29
ENDBRANCH  27  28
ENDBRANCH  26  27
ENDBRANCH  25  26
ENDBRANCH  24  25
ENDBRANCH  23  24
ENDBRANCH  22  23
ENDBRANCH  20  22
ENDBRANCH  19  20
ENDBRANCH  18  19
BRANCH  18  35
HETATM   35  C   UNL     1     -10.059  16.521  68.678  1.00  0.00    -0.255 C  
BRANCH  35  36
HETATM   36  O   UNL     1     -10.881  17.425  67.927  1.00  0.00    -0.375 OA 
BRANCH  36  37
HETATM   37  P   UNL     1      -9.948  18.480  66.922  1.00  0.00    -0.397 P  
HETATM   38  O   UNL     1      -9.879  17.438  65.797  1.00  0.00    -0.536 OA 
HETATM   39  O   UNL     1     -11.024  19.565  66.956  1.00  0.00    -0.477 OA 
BRANCH  37  40
HETATM   40  O   UNL     1      -9.014  19.535  65.917  1.00  0.00    -0.406 OA 
BRANCH  40  41
HETATM   41  C   UNL     1      -7.988  20.158  66.667  1.00  0.00    -0.295 C  
BRANCH  41  42
HETATM   42  C   UNL     1      -7.852  19.466  68.013  1.00  0.00    -0.302 C  
BRANCH  42  43
HETATM   43  N   UNL     1      -6.397  19.273  68.506  1.00  0.00    -0.241 N  
HETATM   44  C   UNL     1      -6.250  20.015  69.818  1.00  0.00    -0.357 C  
HETATM   45  C   UNL     1      -5.399  19.851  67.492  1.00  0.00    -0.166 C  
HETATM   46  C   UNL     1      -6.078  17.798  68.694  1.00  0.00    -0.192 C  
ENDBRANCH  42  43
ENDBRANCH  41  42
ENDBRANCH  40  41
ENDBRANCH  37  40
ENDBRANCH  36  37
ENDBRANCH  35  36
ENDBRANCH  18  35
ENDBRANCH  17  18
ENDBRANCH  16  17
ENDBRANCH  14  16
ENDBRANCH  13  14
ENDBRANCH  12  13
ENDBRANCH  11  12
ENDBRANCH  10  11
ENDBRANCH   9  10
ENDBRANCH   8   9
ENDBRANCH   7   8
ENDBRANCH   6   7
ENDBRANCH   5   6
ENDBRANCH   4   5
ENDBRANCH   3   4
ENDBRANCH   2   3
TORSDOF 36
ENDMDL
MODEL        2
REMARK 921   NORMALIZED FREE ENERGY PREDICTED BY IDOCK:   -4.40 KCAL/MOL
REMARK 922        TOTAL FREE ENERGY PREDICTED BY IDOCK:  -19.14 KCAL/MOL
REMARK 923 INTER-LIGAND FREE ENERGY PREDICTED BY IDOCK:  -12.94 KCAL/MOL
REMARK 924 INTRA-LIGAND FREE ENERGY PREDICTED BY IDOCK:   -6.20 KCAL/MOL
REMARK 927      BINDING AFFINITY PREDICTED BY RF-SCORE:    0.00 PKD
ROOT
HETATM    1  C   UNL     1     -13.529  13.492  72.399  1.00  0.00    -0.685 C  
HETATM    2  C   UNL     1     -14.073  14.874  72.080  1.00  0.00    -0.616 C  
ENDROOT
BRANCH   2   3
HETATM    3  C   UNL     1     -13.485  15.415  70.778  1.00  0.00    -0.324 C  
BRANCH   3   4
HETATM    4  C   UNL     1     -11.958  15.382  70.802  1.00  0.00    -0.402 C  
BRANCH   4   5
HETATM    5  C   UNL     1     -11.391  15.261  69.388  1.00  0.00    -0.304 C  
BRANCH   5   6
HETATM    6  C   UNL     1      -9.865  15.313  69.396  1.00  0.00    -0.253 C  
BRANCH   6   7
HETATM    7  C   UNL     1      -9.357  16.586  68.720  1.00  0.00    -0.247 C  
BRANCH   7   8
HETATM    8  C   UNL     1      -7.938  16.392  68.183  1.00  0.00    -0.160 C  
BRANCH   8   9
HETATM    9  C   UNL     1      -7.849  15.153  67.294  1.00  0.00    -0.241 C  
BRANCH   9  10
HETATM   10  C   UNL     1      -6.956  14.092  67.933  1.00  0.00    -0.168 C  
BRANCH  10  11
HETATM   11  C   UNL     1      -7.765  12.869  68.364  1.00  0.00    -0.133 C  
BRANCH  11  12
HETATM   12  C   UNL     1      -6.846  11.673  68.632  1.00  0.00    -0.079 C  
BRANCH  12  13
HETATM   13  C   UNL     1      -7.563  10.531  69.348  1.00  0.00    -0.145 C  
BRANCH  13  14
HETATM   14  C   UNL     1      -6.921  10.200  70.670  1.00  0.00     0.047 C  
HETATM   15  O   UNL     1      -5.894  10.721  71.086  1.00  0.00    -0.317 OA 
BRANCH  14  16
HETATM   16  O   UNL     1      -7.670   9.282  71.338  1.00  0.00    -0.334 OA 
BRANCH  16  17
HETATM   17  C   UNL     1      -8.747   8.707  70.584  1.00  0.00    -0.165 C  
BRANCH  17  18
HETATM   18  C   UNL     1      -9.997   8.534  71.447  1.00  0.00    -0.233 C  
BRANCH  18  19
HETATM   19  O   UNL     1     -10.777   9.749  71.427  1.00  0.00    -0.267 OA 
BRANCH  19  20
HETATM   20  C   UNL     1     -12.117   9.575  71.314  1.00  0.00    -0.360 C  
HETATM   21  O   UNL     1     -12.790   8.790  71.966  1.00  0.00    -0.341 OA 
BRANCH  20  22
HETATM   22  C   UNL     1     -12.664  10.513  70.266  1.00  0.00    -0.255 C  
BRANCH  22  23
HETATM   23  C   UNL     1     -11.553  11.432  69.767  1.00  0.00    -0.407 C  
BRANCH  23  24
HETATM   24  C   UNL     1     -11.299  11.269  68.271  1.00  0.00    -0.359 C  
BRANCH  24  25
HETATM   25  C   UNL     1     -10.892   9.830  67.952  1.00  0.00    -0.298 C  
BRANCH  25  26
HETATM   26  C   UNL     1     -10.043   9.756  66.686  1.00  0.00    -0.303 C  
BRANCH  26  27
HETATM   27  C   UNL     1      -9.854  11.141  66.070  1.00  0.00    -0.270 C  
BRANCH  27  28
HETATM   28  C   UNL     1      -9.614  11.044  64.564  1.00  0.00    -0.299 C  
BRANCH  28  29
HETATM   29  C   UNL     1     -10.904  11.282  63.781  1.00  0.00    -0.424 C  
BRANCH  29  30
HETATM   30  C   UNL     1     -11.319  12.751  63.844  1.00  0.00    -0.498 C  
BRANCH  30  31
HETATM   31  C   UNL     1     -12.393  12.980  64.907  1.00  0.00    -0.512 C  
BRANCH  31  32
HETATM   32  C   UNL     1     -11.983  14.096  65.868  1.00  0.00    -0.420 C  
BRANCH  32  33
HETATM   33  C   UNL     1     -10.664  14.739  65.441  1.00  0.00    -0.385 C  
HETATM   34  C   UNL     1     -10.845  16.220  65.145  1.00  0.00    -0.333 C  
ENDBRANCH  32  33
ENDBRANCH  31  32
ENDBRANCH  30  31
ENDBRANCH  29  30
ENDBRANCH  28  29
ENDBRANCH  27  28
ENDBRANCH  26  27
ENDBRANCH  25  26
ENDBRANCH  24  25
ENDBRANCH  23  24
ENDBRANCH  22  23
ENDBRANCH  20  22
ENDBRANCH  19  20
ENDBRANCH  18  19
BRANCH  18  35
HETATM   35  C   UNL     1      -9.579   8.308  72.891  1.00  0.00    -0.249 C  
BRANCH  35  36
HETATM   36  O   UNL     1     -10.332   7.231  73.467  1.00  0.00    -0.321 OA 
BRANCH  36  37
HETATM   37  P   UNL     1     -10.314   5.814  72.475  1.00  0.00    -0.218 P  
HETATM   38  O   UNL     1      -9.411   5.065  73.465  1.00  0.00    -0.132 OA 
HETATM   39  O   UNL     1     -11.836   5.691  72.515  1.00  0.00    -0.282 OA 
BRANCH  37  40
HETATM   40  O   UNL     1     -10.295   4.396  71.482  1.00  0.00    -0.139 OA 
BRANCH  40  41
HETATM   41  C   UNL     1      -9.594   4.641  70.278  1.00  0.00    -0.200 C  
BRANCH  41  42
HETATM   42  C   UNL     1     -10.496   5.382  69.306  1.00  0.00    -0.239 C  
BRANCH  42  43
HETATM   43  N   UNL     1      -9.988   5.427  67.844  1.00  0.00    -0.151 N  
HETATM   44  C   UNL     1      -9.686   4.008  67.415  1.00  0.00    -0.141 C  
HETATM   45  C   UNL     1      -8.704   6.265  67.741  1.00  0.00    -0.113 C  
HETATM   46  C   UNL     1     -11.031   6.047  66.926  1.00  0.00    -0.266 C  
ENDBRANCH  42  43
ENDBRANCH  41  42
ENDBRANCH  40  41
ENDBRANCH  37  40
ENDBRANCH  36  37
ENDBRANCH  35  36
ENDBRANCH  18  35
ENDBRANCH  17  18
ENDBRANCH  16  17
ENDBRANCH  14  16
ENDBRANCH  13  14
ENDBRANCH  12  13
ENDBRANCH  11  12
ENDBRANCH  10  11
ENDBRANCH   9  10
ENDBRANCH   8   9
ENDBRANCH   7   8
ENDBRANCH   6   7
ENDBRANCH   5   6
ENDBRANCH   4   5
ENDBRANCH   3   4
ENDBRANCH   2   3
TORSDOF 36
ENDMDL
MODEL        3
REMARK 921   NORMALIZED FREE ENERGY PREDICTED BY IDOCK:   -4.32 KCAL/MOL
REMARK 922        TOTAL FREE ENERGY PREDICTED BY IDOCK:  -18.90 KCAL/MOL
REMARK 923 INTER-LIGAND FREE ENERGY PREDICTED BY IDOCK:  -13.58 KCAL/MOL
REMARK 924 INTRA-LIGAND FREE ENERGY PREDICTED BY IDOCK:   -5.32 KCAL/MOL
REMARK 927      BINDING AFFINITY PREDICTED BY RF-SCORE:    0.00 PKD
ROOT
HETATM    1  C   UNL     1      -8.627   5.092  67.384  1.00  0.00    -0.104 C  
HETATM    2  C   UNL     1     -10.019   4.771  66.869  1.00  0.00    -0.245 C  
ENDROOT
BRANCH   2   3
HETATM    3  C   UNL     1     -10.815   6.044  66.590  1.00  0.00    -0.289 C  
BRANCH   3   4
HETATM    4  C   UNL     1     -10.416   7.169  67.544  1.00  0.00    -0.331 C  
BRANCH   4   5
HETATM    5  C   UNL     1     -10.510   8.530  66.855  1.00  0.00    -0.345 C  
BRANCH   5   6
HETATM    6  C   UNL     1      -9.142   9.204  66.771  1.00  0.00    -0.176 C  
BRANCH   6   7
HETATM    7  C   UNL     1      -8.368   8.721  65.544  1.00  0.00    -0.153 C  
BRANCH   7   8
HETATM    8  C   UNL     1      -8.026   9.888  64.618  1.00  0.00    -0.141 C  
BRANCH   8   9
HETATM    9  C   UNL     1      -8.339   9.547  63.161  1.00  0.00    -0.180 C  
BRANCH   9  10
HETATM   10  C   UNL     1      -9.512  10.379  62.650  1.00  0.00    -0.324 C  
BRANCH  10  11
HETATM   11  C   UNL     1      -9.706  11.642  63.488  1.00  0.00    -0.342 C  
BRANCH  11  12
HETATM   12  C   UNL     1     -11.098  11.667  64.124  1.00  0.00    -0.435 C  
BRANCH  12  13
HETATM   13  C   UNL     1     -11.087  12.243  65.538  1.00  0.00    -0.348 C  
BRANCH  13  14
HETATM   14  C   UNL     1     -12.161  13.281  65.736  1.00  0.00    -0.441 C  
HETATM   15  O   UNL     1     -12.862  13.724  64.835  1.00  0.00    -0.690 OA 
BRANCH  14  16
HETATM   16  O   UNL     1     -12.260  13.609  67.052  1.00  0.00    -0.389 OA 
BRANCH  16  17
HETATM   17  C   UNL     1     -11.455  12.820  67.940  1.00  0.00    -0.317 C  
BRANCH  17  18
HETATM   18  C   UNL     1     -12.272  12.320  69.132  1.00  0.00    -0.023 C  
BRANCH  18  19
HETATM   19  O   UNL     1     -11.808  12.955  70.343  1.00  0.00    -0.284 OA 
BRANCH  19  20
HETATM   20  C   UNL     1     -12.760  13.610  71.053  1.00  0.00    -0.332 C  
HETATM   21  O   UNL     1     -13.552  13.094  71.828  1.00  0.00    -0.370 OA 
BRANCH  20  22
HETATM   22  C   UNL     1     -12.687  15.089  70.757  1.00  0.00    -0.438 C  
BRANCH  22  23
HETATM   23  C   UNL     1     -11.276  15.600  71.037  1.00  0.00    -0.411 C  
BRANCH  23  24
HETATM   24  C   UNL     1     -10.681  16.331  69.836  1.00  0.00    -0.322 C  
BRANCH  24  25
HETATM   25  C   UNL     1      -9.570  15.497  69.198  1.00  0.00    -0.253 C  
BRANCH  25  26
HETATM   26  C   UNL     1      -9.389  15.839  67.722  1.00  0.00    -0.206 C  
BRANCH  26  27
HETATM   27  C   UNL     1     -10.517  16.742  67.226  1.00  0.00    -0.310 C  
BRANCH  27  28
HETATM   28  C   UNL     1     -10.080  17.544  66.002  1.00  0.00    -0.270 C  
BRANCH  28  29
HETATM   29  C   UNL     1     -10.538  18.998  66.098  1.00  0.00    -0.495 C  
BRANCH  29  30
HETATM   30  C   UNL     1     -10.739  19.412  67.555  1.00  0.00    -0.570 C  
BRANCH  30  31
HETATM   31  C   UNL     1      -9.544  20.210  68.077  1.00  0.00    -0.427 C  
BRANCH  31  32
HETATM   32  C   UNL     1      -8.796  19.429  69.157  1.00  0.00    -0.157 C  
BRANCH  32  33
HETATM   33  C   UNL     1      -7.291  19.421  68.894  1.00  0.00    -0.402 C  
HETATM   34  C   UNL     1      -6.978  18.905  67.499  1.00  0.00    -0.214 C  
ENDBRANCH  32  33
ENDBRANCH  31  32
ENDBRANCH  30  31
ENDBRANCH  29  30
ENDBRANCH  28  29
ENDBRANCH  27  28
ENDBRANCH  26  27
ENDBRANCH  25  26
ENDBRANCH  24  25
ENDBRANCH  23  24
ENDBRANCH  22  23
ENDBRANCH  20  22
ENDBRANCH  19  20
ENDBRANCH  18  19
BRANCH  18  35
HETATM   35  C   UNL     1     -12.039  10.828  69.305  1.00  0.00    -0.207 C  
BRANCH  35  36
HETATM   36  O   UNL     1     -11.123  10.587  70.382  1.00  0.00    -0.298 OA 
BRANCH  36  37
HETATM   37  P   UNL     1     -11.539   9.177  71.295  1.00  0.00    -0.385 P  
HETATM   38  O   UNL     1     -10.100   9.016  71.805  1.00  0.00    -0.326 OA 
HETATM   39  O   UNL     1     -12.601   9.932  72.093  1.00  0.00    -0.345 OA 
BRANCH  37  40
HETATM   40  O   UNL     1     -11.955   7.767  72.207  1.00  0.00    -0.310 OA 
BRANCH  40  41
HETATM   41  C   UNL     1     -11.706   6.595  71.452  1.00  0.00    -0.324 C  
BRANCH  41  42
HETATM   42  C   UNL     1     -11.698   5.389  72.375  1.00  0.00    -0.047 C  
BRANCH  42  43
HETATM   43  N   UNL     1     -10.363   4.605  72.418  1.00  0.00    -0.198 N  
HETATM   44  C   UNL     1      -9.746   4.665  71.038  1.00  0.00    -0.188 C  
HETATM   45  C   UNL     1     -10.609   3.135  72.792  1.00  0.00    -0.082 C  
HETATM   46  C   UNL     1      -9.416   5.202  73.448  1.00  0.00    -0.137 C  
ENDBRANCH  42  43
ENDBRANCH  41  42
ENDBRANCH  40  41
ENDBRANCH  37  40
ENDBRANCH  36  37
ENDBRANCH  35  36
ENDBRANCH  18  35
ENDBRANCH  17  18
ENDBRANCH  16  17
ENDBRANCH  14  16
ENDBRANCH  13  14
ENDBRANCH  12  13
ENDBRANCH  11  12
ENDBRANCH  10  11
ENDBRANCH   9  10
ENDBRANCH   8   9
ENDBRANCH   7   8
ENDBRANCH   6   7
ENDBRANCH   5   6
ENDBRANCH   4   5
ENDBRANCH   3   4
ENDBRANCH   2   3
TORSDOF 36
ENDMDL
MODEL        4
REMARK 921   NORMALIZED FREE ENERGY PREDICTED BY IDOCK:   -4.26 KCAL/MOL
REMARK 922        TOTAL FREE ENERGY PREDICTED BY IDOCK:  -18.71 KCAL/MOL
REMARK 923 INTER-LIGAND FREE ENERGY PREDICTED BY IDOCK:  -12.91 KCAL/MOL
REMARK 924 INTRA-LIGAND FREE ENERGY PREDICTED BY IDOCK:   -5.80 KCAL/MOL
REMARK 927      BINDING AFFINITY PREDICTED BY RF-SCORE:    0.00 PKD
ROOT
HETATM    1  C   UNL     1     -14.409  14.240  72.091  1.00  0.00    -0.608 C  
HETATM    2  C   UNL     1     -13.246  14.694  72.956  1.00  0.00    -0.587 C  
ENDROOT
BRANCH   2   3
HETATM    3  C   UNL     1     -12.539  15.902  72.345  1.00  0.00    -0.539 C  
BRANCH   3   4
HETATM    4  C   UNL     1     -11.543  15.477  71.268  1.00  0.00    -0.462 C  
BRANCH   4   5
HETATM    5  C   UNL     1     -12.026  15.894  69.879  1.00  0.00    -0.283 C  
BRANCH   5   6
HETATM    6  C   UNL     1     -10.906  16.550  69.076  1.00  0.00    -0.329 C  
BRANCH   6   7
HETATM    7  C   UNL     1     -10.697  15.834  67.742  1.00  0.00    -0.307 C  
BRANCH   7   8
HETATM    8  C   UNL     1      -9.411  16.305  67.063  1.00  0.00    -0.235 C  
BRANCH   8   9
HETATM    9  C   UNL     1      -8.489  15.127  66.749  1.00  0.00    -0.272 C  
BRANCH   9  10
HETATM   10  C   UNL     1      -8.711  13.988  67.741  1.00  0.00    -0.185 C  
BRANCH  10  11
HETATM   11  C   UNL     1      -8.333  12.638  67.132  1.00  0.00    -0.172 C  
BRANCH  11  12
HETATM   12  C   UNL     1      -7.506  11.807  68.117  1.00  0.00    -0.098 C  
BRANCH  12  13
HETATM   13  C   UNL     1      -8.293  10.640  68.708  1.00  0.00    -0.144 C  
BRANCH  13  14
HETATM   14  C   UNL     1      -7.721  10.178  70.022  1.00  0.00    -0.136 C  
HETATM   15  O   UNL     1      -6.628  10.522  70.455  1.00  0.00    -0.265 OA 
BRANCH  14  16
HETATM   16  O   UNL     1      -8.609   9.372  70.662  1.00  0.00    -0.211 OA 
BRANCH  16  17
HETATM   17  C   UNL     1      -9.670   8.859  69.844  1.00  0.00    -0.177 C  
BRANCH  17  18
HETATM   18  C   UNL     1     -10.837   8.362  70.696  1.00  0.00    -0.231 C  
BRANCH  18  19
HETATM   19  O   UNL     1     -11.270   9.409  71.591  1.00  0.00    -0.370 OA 
BRANCH  19  20
HETATM   20  C   UNL     1     -12.610   9.610  71.641  1.00  0.00    -0.402 C  
HETATM   21  O   UNL     1     -13.375   9.109  72.452  1.00  0.00    -0.434 OA 
BRANCH  20  22
HETATM   22  C   UNL     1     -13.022  10.567  70.548  1.00  0.00    -0.289 C  
BRANCH  22  23
HETATM   23  C   UNL     1     -12.122  11.800  70.578  1.00  0.00    -0.439 C  
BRANCH  23  24
HETATM   24  C   UNL     1     -11.802  12.311  69.176  1.00  0.00    -0.355 C  
BRANCH  24  25
HETATM   25  C   UNL     1     -11.850  11.166  68.164  1.00  0.00    -0.238 C  
BRANCH  25  26
HETATM   26  C   UNL     1     -11.617  11.666  66.741  1.00  0.00    -0.220 C  
BRANCH  26  27
HETATM   27  C   UNL     1     -12.005  13.137  66.605  1.00  0.00    -0.451 C  
BRANCH  27  28
HETATM   28  C   UNL     1     -12.314  13.491  65.152  1.00  0.00    -0.488 C  
BRANCH  28  29
HETATM   29  C   UNL     1     -11.079  13.333  64.267  1.00  0.00    -0.414 C  
BRANCH  29  30
HETATM   30  C   UNL     1     -11.092  11.984  63.548  1.00  0.00    -0.519 C  
BRANCH  30  31
HETATM   31  C   UNL     1      -9.722  11.657  62.954  1.00  0.00    -0.233 C  
BRANCH  31  32
HETATM   32  C   UNL     1      -9.213  10.309  63.464  1.00  0.00    -0.321 C  
BRANCH  32  33
HETATM   33  C   UNL     1      -9.763   9.998  64.855  1.00  0.00    -0.377 C  
HETATM   34  C   UNL     1      -8.999   8.855  65.506  1.00  0.00    -0.246 C  
ENDBRANCH  32  33
ENDBRANCH  31  32
ENDBRANCH  30  31
ENDBRANCH  29  30
ENDBRANCH  28  29
ENDBRANCH  27  28
ENDBRANCH  26  27
ENDBRANCH  25  26
ENDBRANCH  24  25
ENDBRANCH  23  24
ENDBRANCH  22  23
ENDBRANCH  20  22
ENDBRANCH  19  20
ENDBRANCH  18  19
BRANCH  18  35
HETATM   35  C   UNL     1     -10.363   7.212  71.569  1.00  0.00    -0.202 C  
BRANCH  35  36
HETATM   36  O   UNL     1     -10.977   5.983  71.154  1.00  0.00    -0.264 OA 
BRANCH  36  37
HETATM   37  P   UNL     1      -9.882   4.963  70.285  1.00  0.00    -0.255 P  
HETATM   38  O   UNL     1     -10.429   5.438  68.931  1.00  0.00    -0.211 OA 
HETATM   39  O   UNL     1      -8.662   5.613  70.937  1.00  0.00    -0.129 OA 
BRANCH  37  40
HETATM   40  O   UNL     1      -8.787   3.944  69.415  1.00  0.00    -0.081 OA 
BRANCH  40  41
HETATM   41  C   UNL     1      -9.403   3.436  68.246  1.00  0.00    -0.180 C  
BRANCH  41  42
HETATM   42  C   UNL     1      -8.342   3.151  67.196  1.00  0.00    -0.089 C  
BRANCH  42  43
HETATM   43  N   UNL     1      -8.273   4.176  66.039  1.00  0.00    -0.105 N  
HETATM   44  C   UNL     1      -7.510   3.537  64.899  1.00  0.00    -0.073 C  
HETATM   45  C   UNL     1      -7.533   5.447  66.483  1.00  0.00    -0.087 C  
HETATM   46  C   UNL     1      -9.668   4.577  65.583  1.00  0.00    -0.199 C  
ENDBRANCH  42  43
ENDBRANCH  41  42
ENDBRANCH  40  41
ENDBRANCH  37  40
ENDBRANCH  36  37
ENDBRANCH  35  36
ENDBRANCH  18  35
ENDBRANCH  17  18
ENDBRANCH  16  17
ENDBRANCH  14  16
ENDBRANCH  13  14
ENDBRANCH  12  13
ENDBRANCH  11  12
ENDBRANCH  10  11
ENDBRANCH   9  10
ENDBRANCH   8   9
ENDBRANCH   7   8
ENDBRANCH   6   7
ENDBRANCH   5   6
ENDBRANCH   4   5
ENDBRANCH   3   4
ENDBRANCH   2   3
TORSDOF 36
ENDMDL
MODEL        5
REMARK 921   NORMALIZED FREE ENERGY PREDICTED BY IDOCK:   -4.24 KCAL/MOL
REMARK 922        TOTAL FREE ENERGY PREDICTED BY IDOCK:  -18.64 KCAL/MOL
REMARK 923 INTER-LIGAND FREE ENERGY PREDICTED BY IDOCK:  -12.65 KCAL/MOL
REMARK 924 INTRA-LIGAND FREE ENERGY PREDICTED BY IDOCK:   -5.99 KCAL/MOL
REMARK 927      BINDING AFFINITY PREDICTED BY RF-SCORE:    0.00 PKD
ROOT
HETATM    1  C   UNL     1     -10.141  15.403  69.499  1.00  0.00    -0.278 C  
HETATM    2  C   UNL     1      -8.631  15.500  69.364  1.00  0.00    -0.259 C  
ENDROOT
BRANCH   2   3
HETATM    3  C   UNL     1      -8.061  14.287  68.631  1.00  0.00    -0.140 C  
BRANCH   3   4
HETATM    4  C   UNL     1      -6.584  14.080  68.964  1.00  0.00    -0.106 C  
BRANCH   4   5
HETATM    5  C   UNL     1      -5.896  13.235  67.893  1.00  0.00    -0.135 C  
BRANCH   5   6
HETATM    6  C   UNL     1      -5.514  11.859  68.434  1.00  0.00    -0.049 C  
BRANCH   6   7
HETATM    7  C   UNL     1      -5.851  11.743  69.920  1.00  0.00    -0.135 C  
BRANCH   7   8
HETATM    8  C   UNL     1      -6.318  10.329  70.267  1.00  0.00    -0.123 C  
BRANCH   8   9
HETATM    9  C   UNL     1      -7.216   9.759  69.170  1.00  0.00    -0.073 C  
BRANCH   9  10
HETATM   10  C   UNL     1      -8.146   8.687  69.734  1.00  0.00    -0.114 C  
BRANCH  10  11
HETATM   11  C   UNL     1      -9.439   9.298  70.271  1.00  0.00    -0.277 C  
BRANCH  11  12
HETATM   12  C   UNL     1      -9.854  10.516  69.442  1.00  0.00    -0.205 C  
BRANCH  12  13
HETATM   13  C   UNL     1     -11.281  10.406  68.909  1.00  0.00    -0.290 C  
BRANCH  13  14
HETATM   14  C   UNL     1     -11.910  11.757  68.689  1.00  0.00    -0.310 C  
HETATM   15  O   UNL     1     -12.221  12.525  69.589  1.00  0.00    -0.216 OA 
BRANCH  14  16
HETATM   16  O   UNL     1     -12.032  12.005  67.358  1.00  0.00    -0.583 OA 
BRANCH  16  17
HETATM   17  C   UNL     1     -10.964  12.766  66.776  1.00  0.00    -0.270 C  
BRANCH  17  18
HETATM   18  C   UNL     1     -10.967  12.652  65.252  1.00  0.00    -0.286 C  
BRANCH  18  19
HETATM   19  O   UNL     1      -9.673  12.206  64.792  1.00  0.00    -0.175 OA 
BRANCH  19  20
HETATM   20  C   UNL     1      -9.146  11.159  65.475  1.00  0.00    -0.195 C  
HETATM   21  O   UNL     1      -8.315  11.238  66.368  1.00  0.00    -0.165 OA 
BRANCH  20  22
HETATM   22  C   UNL     1      -9.753   9.870  64.977  1.00  0.00    -0.359 C  
BRANCH  22  23
HETATM   23  C   UNL     1      -9.900   8.889  66.137  1.00  0.00    -0.326 C  
BRANCH  23  24
HETATM   24  C   UNL     1      -8.950   7.701  66.010  1.00  0.00    -0.178 C  
BRANCH  24  25
HETATM   25  C   UNL     1      -9.522   6.479  66.730  1.00  0.00    -0.188 C  
BRANCH  25  26
HETATM   26  C   UNL     1     -10.914   6.759  67.289  1.00  0.00    -0.433 C  
BRANCH  26  27
HETATM   27  C   UNL     1     -11.055   6.213  68.709  1.00  0.00    -0.398 C  
BRANCH  27  28
HETATM   28  C   UNL     1     -10.018   5.126  68.984  1.00  0.00    -0.265 C  
BRANCH  28  29
HETATM   29  C   UNL     1     -10.048   4.686  70.447  1.00  0.00    -0.275 C  
BRANCH  29  30
HETATM   30  C   UNL     1      -9.732   5.857  71.376  1.00  0.00    -0.196 C  
BRANCH  30  31
HETATM   31  C   UNL     1     -10.681   5.891  72.573  1.00  0.00    -0.274 C  
BRANCH  31  32
HETATM   32  C   UNL     1     -11.282   7.284  72.756  1.00  0.00    -0.348 C  
BRANCH  32  33
HETATM   33  C   UNL     1     -12.470   7.503  71.821  1.00  0.00    -0.360 C  
HETATM   34  C   UNL     1     -12.838   8.976  71.733  1.00  0.00    -0.437 C  
ENDBRANCH  32  33
ENDBRANCH  31  32
ENDBRANCH  30  31
ENDBRANCH  29  30
ENDBRANCH  28  29
ENDBRANCH  27  28
ENDBRANCH  26  27
ENDBRANCH  25  26
ENDBRANCH  24  25
ENDBRANCH  23  24
ENDBRANCH  22  23
ENDBRANCH  20  22
ENDBRANCH  19  20
ENDBRANCH  18  19
BRANCH  18  35
HETATM   35  C   UNL     1     -11.193  14.028  64.649  1.00  0.00    -0.374 C  
BRANCH  35  36
HETATM   36  O   UNL     1     -11.591  14.960  65.664  1.00  0.00    -0.329 OA 
BRANCH  36  37
HETATM   37  P   UNL     1     -10.655  16.414  65.625  1.00  0.00    -0.165 P  
HETATM   38  O   UNL     1      -9.335  15.630  65.632  1.00  0.00    -0.301 OA 
HETATM   39  O   UNL     1     -11.315  16.877  64.327  1.00  0.00    -1.202 OA 
BRANCH  37  40
HETATM   40  O   UNL     1      -9.718  17.869  65.586  1.00  0.00    -0.487 OA 
BRANCH  40  41
HETATM   41  C   UNL     1      -8.698  17.830  66.567  1.00  0.00    -0.257 C  
BRANCH  41  42
HETATM   42  C   UNL     1      -7.962  19.158  66.588  1.00  0.00    -0.272 C  
BRANCH  42  43
HETATM   43  N   UNL     1      -6.647  19.167  67.405  1.00  0.00    -0.194 N  
HETATM   44  C   UNL     1      -7.010  19.350  68.863  1.00  0.00    -0.349 C  
HETATM   45  C   UNL     1      -5.743  20.328  66.966  1.00  0.00    -0.166 C  
HETATM   46  C   UNL     1      -5.878  17.869  67.210  1.00  0.00    -0.133 C  
ENDBRANCH  42  43
ENDBRANCH  41  42
ENDBRANCH  40  41
ENDBRANCH  37  40
ENDBRANCH  36  37
ENDBRANCH  35  36
ENDBRANCH  18  35
ENDBRANCH  17  18
ENDBRANCH  16  17
ENDBRANCH  14  16
ENDBRANCH  13  14
ENDBRANCH  12  13
ENDBRANCH  11  12
ENDBRANCH  10  11
ENDBRANCH   9  10
ENDBRANCH   8   9
ENDBRANCH   7   8
ENDBRANCH   6   7
ENDBRANCH   5   6
ENDBRANCH   4   5
ENDBRANCH   3   4
ENDBRANCH   2   3
TORSDOF 36
ENDMDL
MODEL        6
REMARK 921   NORMALIZED FREE ENERGY PREDICTED BY IDOCK:   -4.13 KCAL/MOL
REMARK 922        TOTAL FREE ENERGY PREDICTED BY IDOCK:  -18.30 KCAL/MOL
REMARK 923 INTER-LIGAND FREE ENERGY PREDICTED BY IDOCK:  -13.43 KCAL/MOL
REMARK 924 INTRA-LIGAND FREE ENERGY PREDICTED BY IDOCK:   -4.88 KCAL/MOL
REMARK 927      BINDING AFFINITY PREDICTED BY RF-SCORE:    0.00 PKD
ROOT
HETATM    1  C   UNL     1      -6.434  18.349  66.191  1.00  0.00    -0.260 C  
HETATM    2  C   UNL     1      -7.110  19.710  66.195  1.00  0.00    -0.273 C  
ENDROOT
BRANCH   2   3
HETATM    3  C   UNL     1      -7.446  20.157  67.617  1.00  0.00    -0.341 C  
BRANCH   3   4
HETATM    4  C   UNL     1      -8.057  19.016  68.429  1.00  0.00    -0.381 C  
BRANCH   4   5
HETATM    5  C   UNL     1      -9.528  19.292  68.738  1.00  0.00    -0.459 C  
BRANCH   5   6
HETATM    6  C   UNL     1     -10.446  18.525  67.790  1.00  0.00    -0.443 C  
BRANCH   6   7
HETATM    7  C   UNL     1     -10.430  17.029  68.103  1.00  0.00    -0.357 C  
BRANCH   7   8
HETATM    8  C   UNL     1     -10.754  16.773  69.575  1.00  0.00    -0.273 C  
BRANCH   8   9
HETATM    9  C   UNL     1     -11.587  15.503  69.745  1.00  0.00    -0.345 C  
BRANCH   9  10
HETATM   10  C   UNL     1     -12.569  15.650  70.905  1.00  0.00    -0.503 C  
BRANCH  10  11
HETATM   11  C   UNL     1     -12.417  14.511  71.911  1.00  0.00    -0.406 C  
BRANCH  11  12
HETATM   12  C   UNL     1     -13.469  13.425  71.670  1.00  0.00    -0.378 C  
BRANCH  12  13
HETATM   13  C   UNL     1     -12.928  12.018  71.914  1.00  0.00    -0.428 C  
BRANCH  13  14
HETATM   14  C   UNL     1     -12.438  11.373  70.644  1.00  0.00    -0.327 C  
HETATM   15  O   UNL     1     -11.917  11.983  69.720  1.00  0.00    -0.308 OA 
BRANCH  14  16
HETATM   16  O   UNL     1     -12.618  10.026  70.704  1.00  0.00    -0.283 OA 
BRANCH  16  17
HETATM   17  C   UNL     1     -11.600   9.304  71.413  1.00  0.00    -0.367 C  
BRANCH  17  18
HETATM   18  C   UNL     1     -10.938   8.257  70.517  1.00  0.00    -0.242 C  
BRANCH  18  19
HETATM   19  O   UNL     1     -11.053   8.653  69.134  1.00  0.00    -0.013 OA 
BRANCH  19  20
HETATM   20  C   UNL     1      -9.972   9.293  68.623  1.00  0.00    -0.178 C  
HETATM   21  O   UNL     1      -8.992   9.652  69.260  1.00  0.00    -0.151 OA 
BRANCH  20  22
HETATM   22  C   UNL     1     -10.149   9.483  67.136  1.00  0.00    -0.290 C  
BRANCH  22  23
HETATM   23  C   UNL     1      -8.782   9.607  66.468  1.00  0.00    -0.147 C  
BRANCH  23  24
HETATM   24  C   UNL     1      -8.841  10.440  65.190  1.00  0.00    -0.207 C  
BRANCH  24  25
HETATM   25  C   UNL     1     -10.269  10.481  64.644  1.00  0.00    -0.364 C  
BRANCH  25  26
HETATM   26  C   UNL     1     -10.401  11.476  63.494  1.00  0.00    -0.484 C  
BRANCH  26  27
HETATM   27  C   UNL     1     -11.828  12.012  63.392  1.00  0.00    -0.542 C  
BRANCH  27  28
HETATM   28  C   UNL     1     -11.920  13.435  63.938  1.00  0.00    -0.520 C  
BRANCH  28  29
HETATM   29  C   UNL     1     -12.451  13.447  65.371  1.00  0.00    -0.543 C  
BRANCH  29  30
HETATM   30  C   UNL     1     -11.627  14.385  66.251  1.00  0.00    -0.377 C  
BRANCH  30  31
HETATM   31  C   UNL     1     -10.146  14.009  66.231  1.00  0.00    -0.307 C  
BRANCH  31  32
HETATM   32  C   UNL     1      -9.742  13.309  67.529  1.00  0.00    -0.224 C  
BRANCH  32  33
HETATM   33  C   UNL     1      -8.377  13.791  68.018  1.00  0.00    -0.171 C  
HETATM   34  C   UNL     1      -7.863  14.944  67.170  1.00  0.00    -0.203 C  
ENDBRANCH  32  33
ENDBRANCH  31  32
ENDBRANCH  30  31
ENDBRANCH  29  30
ENDBRANCH  28  29
ENDBRANCH  27  28
ENDBRANCH  26  27
ENDBRANCH  25  26
ENDBRANCH  24  25
ENDBRANCH  23  24
ENDBRANCH  22  23
ENDBRANCH  20  22
ENDBRANCH  19  20
ENDBRANCH  18  19
BRANCH  18  35
HETATM   35  C   UNL     1     -11.683   6.939  70.656  1.00  0.00    -0.367 C  
BRANCH  35  36
HETATM   36  O   UNL     1     -11.998   6.686  72.032  1.00  0.00    -0.311 OA 
BRANCH  36  37
HETATM   37  P   UNL     1     -10.725   5.850  72.855  1.00  0.00    -0.280 P  
HETATM   38  O   UNL     1     -10.448   7.055  73.765  1.00  0.00    -0.364 OA 
HETATM   39  O   UNL     1     -11.659   4.716  73.275  1.00  0.00    -0.314 OA 
BRANCH  37  40
HETATM   40  O   UNL     1      -9.453   5.015  73.677  1.00  0.00    -0.128 OA 
BRANCH  40  41
HETATM   41  C   UNL     1      -8.614   4.351  72.750  1.00  0.00    -0.109 C  
BRANCH  41  42
HETATM   42  C   UNL     1      -8.641   5.087  71.421  1.00  0.00    -0.126 C  
BRANCH  42  43
HETATM   43  N   UNL     1      -8.260   4.231  70.189  1.00  0.00    -0.058 N  
HETATM   44  C   UNL     1      -9.469   3.403  69.809  1.00  0.00    -0.159 C  
HETATM   45  C   UNL     1      -7.094   3.289  70.522  1.00  0.00    -0.034 C  
HETATM   46  C   UNL     1      -7.836   5.113  69.025  1.00  0.00    -0.081 C  
ENDBRANCH  42  43
ENDBRANCH  41  42
ENDBRANCH  40  41
ENDBRANCH  37  40
ENDBRANCH  36  37
ENDBRANCH  35  36
ENDBRANCH  18  35
ENDBRANCH  17  18
ENDBRANCH  16  17
ENDBRANCH  14  16
ENDBRANCH  13  14
ENDBRANCH  12  13
ENDBRANCH  11  12
ENDBRANCH  10  11
ENDBRANCH   9  10
ENDBRANCH   8   9
ENDBRANCH   7   8
ENDBRANCH   6   7
ENDBRANCH   5   6
ENDBRANCH   4   5
ENDBRANCH   3   4
ENDBRANCH   2   3
TORSDOF 36
ENDMDL
MODEL        7
REMARK 921   NORMALIZED FREE ENERGY PREDICTED BY IDOCK:   -4.11 KCAL/MOL
REMARK 922        TOTAL FREE ENERGY PREDICTED BY IDOCK:  -18.24 KCAL/MOL
REMARK 923 INTER-LIGAND FREE ENERGY PREDICTED BY IDOCK:  -13.52 KCAL/MOL
REMARK 924 INTRA-LIGAND FREE ENERGY PREDICTED BY IDOCK:   -4.72 KCAL/MOL
REMARK 927      BINDING AFFINITY PREDICTED BY RF-SCORE:    0.00 PKD
ROOT
HETATM    1  C   UNL     1     -14.251   7.424  71.591  1.00  0.00    -0.583 C  
HETATM    2  C   UNL     1     -12.759   7.696  71.506  1.00  0.00    -0.373 C  
ENDROOT
BRANCH   2   3
HETATM    3  C   UNL     1     -12.382   8.964  72.269  1.00  0.00    -0.430 C  
BRANCH   3   4
HETATM    4  C   UNL     1     -12.446  10.195  71.367  1.00  0.00    -0.524 C  
BRANCH   4   5
HETATM    5  C   UNL     1     -13.387  11.251  71.948  1.00  0.00    -0.413 C  
BRANCH   5   6
HETATM    6  C   UNL     1     -12.929  12.661  71.584  1.00  0.00    -0.400 C  
BRANCH   6   7
HETATM    7  C   UNL     1     -13.788  13.713  72.286  1.00  0.00    -0.689 C  
BRANCH   7   8
HETATM    8  C   UNL     1     -13.882  14.990  71.449  1.00  0.00    -0.560 C  
BRANCH   8   9
HETATM    9  C   UNL     1     -12.508  15.631  71.264  1.00  0.00    -0.503 C  
BRANCH   9  10
HETATM   10  C   UNL     1     -12.149  15.724  69.783  1.00  0.00    -0.298 C  
BRANCH  10  11
HETATM   11  C   UNL     1     -10.776  16.362  69.581  1.00  0.00    -0.337 C  
BRANCH  11  12
HETATM   12  C   UNL     1      -9.671  15.303  69.614  1.00  0.00    -0.208 C  
BRANCH  12  13
HETATM   13  C   UNL     1      -9.285  14.813  68.220  1.00  0.00    -0.187 C  
BRANCH  13  14
HETATM   14  C   UNL     1      -9.768  13.409  67.960  1.00  0.00    -0.222 C  
HETATM   15  O   UNL     1     -10.681  12.872  68.573  1.00  0.00    -0.242 OA 
BRANCH  14  16
HETATM   16  O   UNL     1      -9.075  12.860  66.927  1.00  0.00    -0.218 OA 
BRANCH  16  17
HETATM   17  C   UNL     1      -7.733  12.456  67.236  1.00  0.00    -0.158 C  
BRANCH  17  18
HETATM   18  C   UNL     1      -7.474  11.015  66.797  1.00  0.00    -0.139 C  
BRANCH  18  19
HETATM   19  O   UNL     1      -8.607  10.519  66.053  1.00  0.00    -0.148 OA 
BRANCH  19  20
HETATM   20  C   UNL     1      -8.377  10.280  64.738  1.00  0.00    -0.172 C  
HETATM   21  O   UNL     1      -7.282  10.087  64.231  1.00  0.00    -0.132 OA 
BRANCH  20  22
HETATM   22  C   UNL     1      -9.686  10.273  63.986  1.00  0.00    -0.343 C  
BRANCH  22  23
HETATM   23  C   UNL     1     -10.111  11.706  63.680  1.00  0.00    -0.435 C  
BRANCH  23  24
HETATM   24  C   UNL     1     -11.478  12.039  64.272  1.00  0.00    -0.435 C  
BRANCH  24  25
HETATM   25  C   UNL     1     -12.111  13.215  63.527  1.00  0.00    -0.585 C  
BRANCH  25  26
HETATM   26  C   UNL     1     -12.400  14.383  64.467  1.00  0.00    -0.440 C  
BRANCH  26  27
HETATM   27  C   UNL     1     -11.104  15.031  64.951  1.00  0.00    -0.425 C  
BRANCH  27  28
HETATM   28  C   UNL     1     -11.188  16.554  64.868  1.00  0.00    -0.138 C  
BRANCH  28  29
HETATM   29  C   UNL     1     -10.409  17.216  66.004  1.00  0.00    -0.317 C  
BRANCH  29  30
HETATM   30  C   UNL     1     -10.589  18.733  65.978  1.00  0.00    -0.442 C  
BRANCH  30  31
HETATM   31  C   UNL     1      -9.306  19.453  66.392  1.00  0.00    -0.419 C  
BRANCH  31  32
HETATM   32  C   UNL     1      -8.287  18.468  66.963  1.00  0.00    -0.259 C  
BRANCH  32  33
HETATM   33  C   UNL     1      -7.978  18.776  68.428  1.00  0.00    -0.365 C  
HETATM   34  C   UNL     1      -6.986  17.778  69.003  1.00  0.00    -0.236 C  
ENDBRANCH  32  33
ENDBRANCH  31  32
ENDBRANCH  30  31
ENDBRANCH  29  30
ENDBRANCH  28  29
ENDBRANCH  27  28
ENDBRANCH  26  27
ENDBRANCH  25  26
ENDBRANCH  24  25
ENDBRANCH  23  24
ENDBRANCH  22  23
ENDBRANCH  20  22
ENDBRANCH  19  20
ENDBRANCH  18  19
BRANCH  18  35
HETATM   35  C   UNL     1      -7.341  10.135  68.029  1.00  0.00    -0.086 C  
BRANCH  35  36
HETATM   36  O   UNL     1      -8.436  10.365  68.927  1.00  0.00    -0.126 OA 
BRANCH  36  37
HETATM   37  P   UNL     1      -8.942   8.917  69.729  1.00  0.00    -0.166 P  
HETATM   38  O   UNL     1     -10.124   8.732  68.768  1.00  0.00    -0.187 OA 
HETATM   39  O   UNL     1      -7.592   8.241  69.491  1.00  0.00    -0.090 OA 
BRANCH  37  40
HETATM   40  O   UNL     1      -9.447   7.470  70.531  1.00  0.00    -0.164 OA 
BRANCH  40  41
HETATM   41  C   UNL     1      -8.623   6.381  70.159  1.00  0.00    -0.135 C  
BRANCH  41  42
HETATM   42  C   UNL     1      -9.477   5.276  69.564  1.00  0.00    -0.138 C  
BRANCH  42  43
HETATM   43  N   UNL     1      -9.250   5.011  68.055  1.00  0.00    -0.115 N  
HETATM   44  C   UNL     1     -10.413   5.615  67.298  1.00  0.00    -0.258 C  
HETATM   45  C   UNL     1      -9.198   3.502  67.771  1.00  0.00    -0.184 C  
HETATM   46  C   UNL     1      -7.939   5.625  67.588  1.00  0.00    -0.101 C  
ENDBRANCH  42  43
ENDBRANCH  41  42
ENDBRANCH  40  41
ENDBRANCH  37  40
ENDBRANCH  36  37
ENDBRANCH  35  36
ENDBRANCH  18  35
ENDBRANCH  17  18
ENDBRANCH  16  17
ENDBRANCH  14  16
ENDBRANCH  13  14
ENDBRANCH  12  13
ENDBRANCH  11  12
ENDBRANCH  10  11
ENDBRANCH   9  10
ENDBRANCH   8   9
ENDBRANCH   7   8
ENDBRANCH   6   7
ENDBRANCH   5   6
ENDBRANCH   4   5
ENDBRANCH   3   4
ENDBRANCH   2   3
TORSDOF 36
ENDMDL
MODEL        8
REMARK 921   NORMALIZED FREE ENERGY PREDICTED BY IDOCK:   -4.07 KCAL/MOL
REMARK 922        TOTAL FREE ENERGY PREDICTED BY IDOCK:  -18.11 KCAL/MOL
REMARK 923 INTER-LIGAND FREE ENERGY PREDICTED BY IDOCK:  -13.12 KCAL/MOL
REMARK 924 INTRA-LIGAND FREE ENERGY PREDICTED BY IDOCK:   -5.00 KCAL/MOL
REMARK 927      BINDING AFFINITY PREDICTED BY RF-SCORE:    0.00 PKD
ROOT
HETATM    1  C   UNL     1      -9.012   5.012  66.520  1.00  0.00    -0.116 C  
HETATM    2  C   UNL     1     -10.514   5.171  66.355  1.00  0.00    -0.356 C  
ENDROOT
BRANCH   2   3
HETATM    3  C   UNL     1     -11.017   6.434  67.052  1.00  0.00    -0.463 C  
BRANCH   3   4
HETATM    4  C   UNL     1     -10.167   6.770  68.276  1.00  0.00    -0.194 C  
BRANCH   4   5
HETATM    5  C   UNL     1     -10.093   8.281  68.492  1.00  0.00    -0.217 C  
BRANCH   5   6
HETATM    6  C   UNL     1      -8.763   8.686  69.122  1.00  0.00    -0.136 C  
BRANCH   6   7
HETATM    7  C   UNL     1      -7.592   8.006  68.413  1.00  0.00    -0.108 C  
BRANCH   7   8
HETATM    8  C   UNL     1      -7.087   8.859  67.249  1.00  0.00    -0.083 C  
BRANCH   8   9
HETATM    9  C   UNL     1      -7.388   8.195  65.906  1.00  0.00    -0.076 C  
BRANCH   9  10
HETATM   10  C   UNL     1      -8.568   8.877  65.217  1.00  0.00    -0.209 C  
BRANCH  10  11
HETATM   11  C   UNL     1      -8.686  10.342  65.634  1.00  0.00    -0.176 C  
BRANCH  11  12
HETATM   12  C   UNL     1     -10.152  10.742  65.818  1.00  0.00    -0.320 C  
BRANCH  12  13
HETATM   13  C   UNL     1     -10.407  11.445  67.149  1.00  0.00    -0.247 C  
BRANCH  13  14
HETATM   14  C   UNL     1     -11.619  12.339  67.094  1.00  0.00    -0.353 C  
HETATM   15  O   UNL     1     -12.238  12.595  66.070  1.00  0.00    -0.564 OA 
BRANCH  14  16
HETATM   16  O   UNL     1     -11.938  12.771  68.343  1.00  0.00    -0.319 OA 
BRANCH  16  17
HETATM   17  C   UNL     1     -11.871  11.773  69.372  1.00  0.00    -0.334 C  
BRANCH  17  18
HETATM   18  C   UNL     1     -12.800  12.114  70.537  1.00  0.00     0.143 C  
BRANCH  18  19
HETATM   19  O   UNL     1     -12.232  13.189  71.317  1.00  0.00    -0.226 OA 
BRANCH  19  20
HETATM   20  C   UNL     1     -13.107  14.153  71.696  1.00  0.00    -0.351 C  
HETATM   21  O   UNL     1     -13.918  14.060  72.606  1.00  0.00    -0.654 OA 
BRANCH  20  22
HETATM   22  C   UNL     1     -12.920  15.377  70.833  1.00  0.00    -0.539 C  
BRANCH  22  23
HETATM   23  C   UNL     1     -11.430  15.655  70.650  1.00  0.00    -0.400 C  
BRANCH  23  24
HETATM   24  C   UNL     1     -11.073  15.935  69.193  1.00  0.00    -0.302 C  
BRANCH  24  25
HETATM   25  C   UNL     1     -10.444  17.322  69.054  1.00  0.00    -0.309 C  
BRANCH  25  26
HETATM   26  C   UNL     1     -10.369  17.758  67.593  1.00  0.00    -0.375 C  
BRANCH  26  27
HETATM   27  C   UNL     1     -10.908  19.177  67.416  1.00  0.00    -0.533 C  
BRANCH  27  28
HETATM   28  C   UNL     1      -9.848  20.095  66.811  1.00  0.00    -0.591 C  
BRANCH  28  29
HETATM   29  C   UNL     1      -8.589  19.317  66.433  1.00  0.00    -0.355 C  
BRANCH  29  30
HETATM   30  C   UNL     1      -7.342  19.978  67.019  1.00  0.00    -0.288 C  
BRANCH  30  31
HETATM   31  C   UNL     1      -7.238  19.735  68.524  1.00  0.00    -0.356 C  
BRANCH  31  32
HETATM   32  C   UNL     1      -6.225  18.634  68.832  1.00  0.00    -0.243 C  
BRANCH  32  33
HETATM   33  C   UNL     1      -6.919  17.297  69.091  1.00  0.00    -0.215 C  
HETATM   34  C   UNL     1      -6.239  16.168  68.333  1.00  0.00    -0.113 C  
ENDBRANCH  32  33
ENDBRANCH  31  32
ENDBRANCH  30  31
ENDBRANCH  29  30
ENDBRANCH  28  29
ENDBRANCH  27  28
ENDBRANCH  26  27
ENDBRANCH  25  26
ENDBRANCH  24  25
ENDBRANCH  23  24
ENDBRANCH  22  23
ENDBRANCH  20  22
ENDBRANCH  19  20
ENDBRANCH  18  19
BRANCH  18  35
HETATM   35  C   UNL     1     -12.902  10.912  71.462  1.00  0.00    -0.454 C  
BRANCH  35  36
HETATM   36  O   UNL     1     -11.674  10.171  71.455  1.00  0.00    -0.343 OA 
BRANCH  36  37
HETATM   37  P   UNL     1     -11.919   8.491  71.791  1.00  0.00    -0.387 P  
HETATM   38  O   UNL     1     -10.610   8.403  72.588  1.00  0.00    -0.332 OA 
HETATM   39  O   UNL     1     -13.263   8.761  72.469  1.00  0.00    -0.400 OA 
BRANCH  37  40
HETATM   40  O   UNL     1     -12.165   6.812  72.127  1.00  0.00    -0.291 OA 
BRANCH  40  41
HETATM   41  C   UNL     1     -11.103   6.301  72.911  1.00  0.00    -0.236 C  
BRANCH  41  42
HETATM   42  C   UNL     1     -11.007   4.797  72.720  1.00  0.00    -0.194 C  
BRANCH  42  43
HETATM   43  N   UNL     1      -9.571   4.250  72.533  1.00  0.00    -0.133 N  
HETATM   44  C   UNL     1      -9.141   3.622  73.841  1.00  0.00    -0.090 C  
HETATM   45  C   UNL     1      -8.599   5.386  72.181  1.00  0.00    -0.126 C  
HETATM   46  C   UNL     1      -9.523   3.223  71.412  1.00  0.00    -0.151 C  
ENDBRANCH  42  43
ENDBRANCH  41  42
ENDBRANCH  40  41
ENDBRANCH  37  40
ENDBRANCH  36  37
ENDBRANCH  35  36
ENDBRANCH  18  35
ENDBRANCH  17  18
ENDBRANCH  16  17
ENDBRANCH  14  16
ENDBRANCH  13  14
ENDBRANCH  12  13
ENDBRANCH  11  12
ENDBRANCH  10  11
ENDBRANCH   9  10
ENDBRANCH   8   9
ENDBRANCH   7   8
ENDBRANCH   6   7
ENDBRANCH   5   6
ENDBRANCH   4   5
ENDBRANCH   3   4
ENDBRANCH   2   3
TORSDOF 36
ENDMDL
MODEL        9
REMARK 921   NORMALIZED FREE ENERGY PREDICTED BY IDOCK:   -4.04 KCAL/MOL
REMARK 922        TOTAL FREE ENERGY PREDICTED BY IDOCK:  -18.03 KCAL/MOL
REMARK 923 INTER-LIGAND FREE ENERGY PREDICTED BY IDOCK:  -11.61 KCAL/MOL
REMARK 924 INTRA-LIGAND FREE ENERGY PREDICTED BY IDOCK:   -6.42 KCAL/MOL
REMARK 927      BINDING AFFINITY PREDICTED BY RF-SCORE:    0.00 PKD
ROOT
HETATM    1  C   UNL     1     -12.183  14.786  65.288  1.00  0.00    -0.158 C  
HETATM    2  C   UNL     1     -11.146  13.889  64.633  1.00  0.00    -0.389 C  
ENDROOT
BRANCH   2   3
HETATM    3  C   UNL     1     -11.742  12.533  64.260  1.00  0.00    -0.450 C  
BRANCH   3   4
HETATM    4  C   UNL     1     -10.655  11.542  63.849  1.00  0.00    -0.448 C  
BRANCH   4   5
HETATM    5  C   UNL     1     -10.191  10.712  65.045  1.00  0.00    -0.380 C  
BRANCH   5   6
HETATM    6  C   UNL     1      -8.742  11.027  65.408  1.00  0.00    -0.122 C  
BRANCH   6   7
HETATM    7  C   UNL     1      -8.671  12.047  66.544  1.00  0.00    -0.138 C  
BRANCH   7   8
HETATM    8  C   UNL     1      -8.001  11.446  67.780  1.00  0.00    -0.119 C  
BRANCH   8   9
HETATM    9  C   UNL     1      -7.229  10.176  67.427  1.00  0.00    -0.088 C  
BRANCH   9  10
HETATM   10  C   UNL     1      -7.713   8.997  68.268  1.00  0.00    -0.095 C  
BRANCH  10  11
HETATM   11  C   UNL     1      -7.782   7.714  67.441  1.00  0.00    -0.117 C  
BRANCH  11  12
HETATM   12  C   UNL     1      -9.012   7.716  66.530  1.00  0.00    -0.187 C  
BRANCH  12  13
HETATM   13  C   UNL     1     -10.323   7.745  67.313  1.00  0.00    -0.371 C  
BRANCH  13  14
HETATM   14  C   UNL     1     -10.854   6.360  67.580  1.00  0.00    -0.354 C  
HETATM   15  O   UNL     1     -10.762   5.426  66.794  1.00  0.00    -0.284 OA 
BRANCH  14  16
HETATM   16  O   UNL     1     -11.398   6.299  68.824  1.00  0.00    -0.356 OA 
BRANCH  16  17
HETATM   17  C   UNL     1     -10.755   7.115  69.814  1.00  0.00    -0.239 C  
BRANCH  17  18
HETATM   18  C   UNL     1     -11.775   7.736  70.768  1.00  0.00    -0.225 C  
BRANCH  18  19
HETATM   19  O   UNL     1     -11.261   8.981  71.290  1.00  0.00    -0.265 OA 
BRANCH  19  20
HETATM   20  C   UNL     1     -11.917  10.095  70.881  1.00  0.00    -0.365 C  
HETATM   21  O   UNL     1     -13.002  10.475  71.298  1.00  0.00    -0.381 OA 
BRANCH  20  22
HETATM   22  C   UNL     1     -11.097  10.812  69.837  1.00  0.00    -0.339 C  
BRANCH  22  23
HETATM   23  C   UNL     1     -12.004  11.275  68.700  1.00  0.00    -0.314 C  
BRANCH  23  24
HETATM   24  C   UNL     1     -11.600  12.646  68.164  1.00  0.00    -0.386 C  
BRANCH  24  25
HETATM   25  C   UNL     1     -12.277  13.756  68.969  1.00  0.00    -0.259 C  
BRANCH  25  26
HETATM   26  C   UNL     1     -11.261  14.766  69.495  1.00  0.00    -0.305 C  
BRANCH  26  27
HETATM   27  C   UNL     1      -9.911  14.600  68.800  1.00  0.00    -0.235 C  
BRANCH  27  28
HETATM   28  C   UNL     1      -8.877  15.568  69.372  1.00  0.00    -0.257 C  
BRANCH  28  29
HETATM   29  C   UNL     1      -8.106  16.278  68.261  1.00  0.00    -0.167 C  
BRANCH  29  30
HETATM   30  C   UNL     1      -8.875  16.223  66.941  1.00  0.00    -0.242 C  
BRANCH  30  31
HETATM   31  C   UNL     1      -9.468  17.586  66.585  1.00  0.00    -0.285 C  
BRANCH  31  32
HETATM   32  C   UNL     1     -10.517  18.011  67.612  1.00  0.00    -0.422 C  
BRANCH  32  33
HETATM   33  C   UNL     1     -10.295  19.453  68.068  1.00  0.00    -0.536 C  
HETATM   34  C   UNL     1      -9.830  20.329  66.916  1.00  0.00    -0.597 C  
ENDBRANCH  32  33
ENDBRANCH  31  32
ENDBRANCH  30  31
ENDBRANCH  29  30
ENDBRANCH  28  29
ENDBRANCH  27  28
ENDBRANCH  26  27
ENDBRANCH  25  26
ENDBRANCH  24  25
ENDBRANCH  23  24
ENDBRANCH  22  23
ENDBRANCH  20  22
ENDBRANCH  19  20
ENDBRANCH  18  19
BRANCH  18  35
HETATM   35  C   UNL     1     -11.971   6.812  71.959  1.00  0.00    -0.317 C  
BRANCH  35  36
HETATM   36  O   UNL     1     -10.862   6.919  72.862  1.00  0.00    -0.250 OA 
BRANCH  36  37
HETATM   37  P   UNL     1     -10.170   5.377  73.236  1.00  0.00    -0.227 P  
HETATM   38  O   UNL     1      -9.235   5.991  74.288  1.00  0.00    -0.127 OA 
HETATM   39  O   UNL     1     -11.531   4.789  73.609  1.00  0.00    -0.273 OA 
BRANCH  37  40
HETATM   40  O   UNL     1      -9.479   3.836  73.610  1.00  0.00    -0.100 OA 
BRANCH  40  41
HETATM   41  C   UNL     1      -8.686   3.372  72.533  1.00  0.00    -0.085 C  
BRANCH  41  42
HETATM   42  C   UNL     1      -8.912   4.256  71.319  1.00  0.00    -0.122 C  
BRANCH  42  43
HETATM   43  N   UNL     1      -7.635   4.610  70.519  1.00  0.00    -0.053 N  
HETATM   44  C   UNL     1      -7.949   4.445  69.048  1.00  0.00    -0.069 C  
HETATM   45  C   UNL     1      -6.481   3.666  70.893  1.00  0.00    -0.030 C  
HETATM   46  C   UNL     1      -7.190   6.035  70.808  1.00  0.00    -0.077 C  
ENDBRANCH  42  43
ENDBRANCH  41  42
ENDBRANCH  40  41
ENDBRANCH  37  40
ENDBRANCH  36  37
ENDBRANCH  35  36
ENDBRANCH  18  35
ENDBRANCH  17  18
ENDBRANCH  16  17
ENDBRANCH  14  16
ENDBRANCH  13  14
ENDBRANCH  12  13
ENDBRANCH  11  12
ENDBRANCH  10  11
ENDBRANCH   9  10
ENDBRANCH   8   9
ENDBRANCH   7   8
ENDBRANCH   6   7
ENDBRANCH   5   6
ENDBRANCH   4   5
ENDBRANCH   3   4
ENDBRANCH   2   3
TORSDOF 36
ENDMDL
MODEL       10
REMARK 921   NORMALIZED FREE ENERGY PREDICTED BY IDOCK:   -4.01 KCAL/MOL
REMARK 922        TOTAL FREE ENERGY PREDICTED BY IDOCK:  -17.95 KCAL/MOL
REMARK 923 INTER-LIGAND FREE ENERGY PREDICTED BY IDOCK:  -11.71 KCAL/MOL
REMARK 924 INTRA-LIGAND FREE ENERGY PREDICTED BY IDOCK:   -6.25 KCAL/MOL
REMARK 927      BINDING AFFINITY PREDICTED BY RF-SCORE:    0.00 PKD
ROOT
HETATM    1  C   UNL     1      -6.030  19.183  64.792  1.00  0.00    -0.317 C  
HETATM    2  C   UNL     1      -6.152  20.645  65.186  1.00  0.00    -0.294 C  
ENDROOT
BRANCH   2   3
HETATM    3  C   UNL     1      -6.426  20.796  66.681  1.00  0.00    -0.330 C  
BRANCH   3   4
HETATM    4  C   UNL     1      -7.433  19.756  67.169  1.00  0.00    -0.280 C  
BRANCH   4   5
HETATM    5  C   UNL     1      -8.789  20.400  67.455  1.00  0.00    -0.430 C  
BRANCH   5   6
HETATM    6  C   UNL     1      -9.819  20.017  66.394  1.00  0.00    -0.578 C  
BRANCH   6   7
HETATM    7  C   UNL     1     -10.302  18.580  66.595  1.00  0.00    -0.442 C  
BRANCH   7   8
HETATM    8  C   UNL     1     -10.886  18.389  67.995  1.00  0.00    -0.170 C  
BRANCH   8   9
HETATM    9  C   UNL     1     -10.433  17.064  68.606  1.00  0.00    -0.363 C  
BRANCH   9  10
HETATM   10  C   UNL     1     -11.618  16.119  68.790  1.00  0.00    -0.297 C  
BRANCH  10  11
HETATM   11  C   UNL     1     -11.275  14.974  69.741  1.00  0.00    -0.301 C  
BRANCH  11  12
HETATM   12  C   UNL     1     -12.102  13.727  69.416  1.00  0.00    -0.377 C  
BRANCH  12  13
HETATM   13  C   UNL     1     -11.537  12.463  70.060  1.00  0.00    -0.216 C  
BRANCH  13  14
HETATM   14  C   UNL     1     -11.475  11.312  69.089  1.00  0.00    -0.297 C  
HETATM   15  O   UNL     1     -12.210  11.191  68.118  1.00  0.00    -0.612 OA 
BRANCH  14  16
HETATM   16  O   UNL     1     -10.463  10.469  69.427  1.00  0.00    -0.218 OA 
BRANCH  16  17
HETATM   17  C   UNL     1      -9.154  10.887  69.013  1.00  0.00    -0.098 C  
BRANCH  17  18
HETATM   18  C   UNL     1      -8.630  10.017  67.871  1.00  0.00    -0.121 C  
BRANCH  18  19
HETATM   19  O   UNL     1      -9.292  10.376  66.639  1.00  0.00    -0.154 OA 
BRANCH  19  20
HETATM   20  C   UNL     1      -8.537  10.256  65.519  1.00  0.00    -0.164 C  
HETATM   21  O   UNL     1      -7.315  10.253  65.482  1.00  0.00    -0.140 OA 
BRANCH  20  22
HETATM   22  C   UNL     1      -9.434  10.108  64.314  1.00  0.00    -0.366 C  
BRANCH  22  23
HETATM   23  C   UNL     1      -9.668  11.475  63.677  1.00  0.00    -0.329 C  
BRANCH  23  24
HETATM   24  C   UNL     1     -11.141  11.716  63.358  1.00  0.00    -0.422 C  
BRANCH  24  25
HETATM   25  C   UNL     1     -11.975  11.702  64.640  1.00  0.00    -0.046 C  
BRANCH  25  26
HETATM   26  C   UNL     1     -12.870  12.934  64.739  1.00  0.00    -0.359 C  
BRANCH  26  27
HETATM   27  C   UNL     1     -12.357  13.900  65.807  1.00  0.00    -0.518 C  
BRANCH  27  28
HETATM   28  C   UNL     1     -11.588  15.059  65.174  1.00  0.00    -0.294 C  
BRANCH  28  29
HETATM   29  C   UNL     1     -10.079  14.847  65.281  1.00  0.00    -0.380 C  
BRANCH  29  30
HETATM   30  C   UNL     1      -9.732  13.992  66.499  1.00  0.00    -0.305 C  
BRANCH  30  31
HETATM   31  C   UNL     1      -8.327  14.302  67.014  1.00  0.00    -0.156 C  
BRANCH  31  32
HETATM   32  C   UNL     1      -7.888  15.705  66.594  1.00  0.00    -0.134 C  
BRANCH  32  33
HETATM   33  C   UNL     1      -6.752  16.219  67.478  1.00  0.00    -0.189 C  
HETATM   34  C   UNL     1      -5.901  15.073  68.004  1.00  0.00    -0.155 C  
ENDBRANCH  32  33
ENDBRANCH  31  32
ENDBRANCH  30  31
ENDBRANCH  29  30
ENDBRANCH  28  29
ENDBRANCH  27  28
ENDBRANCH  26  27
ENDBRANCH  25  26
ENDBRANCH  24  25
ENDBRANCH  23  24
ENDBRANCH  22  23
ENDBRANCH  20  22
ENDBRANCH  19  20
ENDBRANCH  18  19
BRANCH  18  35
HETATM   35  C   UNL     1      -8.982   8.565  68.147  1.00  0.00    -0.142 C  
BRANCH  35  36
HETATM   36  O   UNL     1      -7.833   7.727  67.960  1.00  0.00    -0.119 OA 
BRANCH  36  37
HETATM   37  P   UNL     1      -7.451   6.811  69.378  1.00  0.00    -0.097 P  
HETATM   38  O   UNL     1      -7.461   5.491  68.594  1.00  0.00    -0.074 OA 
HETATM   39  O   UNL     1      -6.164   7.600  69.616  1.00  0.00    -0.030 OA 
BRANCH  37  40
HETATM   40  O   UNL     1      -7.069   5.894  70.795  1.00  0.00    -0.066 OA 
BRANCH  40  41
HETATM   41  C   UNL     1      -8.018   6.140  71.816  1.00  0.00    -0.103 C  
BRANCH  41  42
HETATM   42  C   UNL     1      -9.208   6.884  71.236  1.00  0.00    -0.157 C  
BRANCH  42  43
HETATM   43  N   UNL     1     -10.550   6.114  71.285  1.00  0.00    -0.234 N  
HETATM   44  C   UNL     1     -11.097   6.046  69.875  1.00  0.00    -0.399 C  
HETATM   45  C   UNL     1     -11.563   6.845  72.179  1.00  0.00    -0.284 C  
HETATM   46  C   UNL     1     -10.353   4.713  71.844  1.00  0.00    -0.150 C  
ENDBRANCH  42  43
ENDBRANCH  41  42
ENDBRANCH  40  41
ENDBRANCH  37  40
ENDBRANCH  36  37
ENDBRANCH  35  36
ENDBRANCH  18  35
ENDBRANCH  17  18
ENDBRANCH  16  17
ENDBRANCH  14  16
ENDBRANCH  13  14
ENDBRANCH  12  13
ENDBRANCH  11  12
ENDBRANCH  10  11
ENDBRANCH   9  10
ENDBRANCH   8   9
ENDBRANCH   7   8
ENDBRANCH   6   7
ENDBRANCH   5   6
ENDBRANCH   4   5
ENDBRANCH   3   4
ENDBRANCH   2   3
TORSDOF 36
ENDMDL
MODEL       11
REMARK 921   NORMALIZED FREE ENERGY PREDICTED BY IDOCK:   -4.01 KCAL/MOL
REMARK 922        TOTAL FREE ENERGY PREDICTED BY IDOCK:  -17.94 KCAL/MOL
REMARK 923 INTER-LIGAND FREE ENERGY PREDICTED BY IDOCK:  -12.26 KCAL/MOL
REMARK 924 INTRA-LIGAND FREE ENERGY PREDICTED BY IDOCK:   -5.68 KCAL/MOL
REMARK 927      BINDING AFFINITY PREDICTED BY RF-SCORE:    0.00 PKD
ROOT
HETATM    1  C   UNL     1     -13.923  13.743  72.422  1.00  0.00    -0.651 C  
HETATM    2  C   UNL     1     -12.890  14.857  72.406  1.00  0.00    -0.430 C  
ENDROOT
BRANCH   2   3
HETATM    3  C   UNL     1     -12.932  15.633  71.091  1.00  0.00    -0.539 C  
BRANCH   3   4
HETATM    4  C   UNL     1     -11.525  15.930  70.575  1.00  0.00    -0.412 C  
BRANCH   4   5
HETATM    5  C   UNL     1     -11.548  16.264  69.084  1.00  0.00    -0.213 C  
BRANCH   5   6
HETATM    6  C   UNL     1     -10.499  17.317  68.736  1.00  0.00    -0.340 C  
BRANCH   6   7
HETATM    7  C   UNL     1      -9.244  16.668  68.153  1.00  0.00    -0.220 C  
BRANCH   7   8
HETATM    8  C   UNL     1      -7.986  17.423  68.583  1.00  0.00    -0.271 C  
BRANCH   8   9
HETATM    9  C   UNL     1      -6.995  16.493  69.281  1.00  0.00    -0.227 C  
BRANCH   9  10
HETATM   10  C   UNL     1      -7.567  15.083  69.399  1.00  0.00    -0.195 C  
BRANCH  10  11
HETATM   11  C   UNL     1      -6.709  14.068  68.644  1.00  0.00    -0.096 C  
BRANCH  11  12
HETATM   12  C   UNL     1      -6.057  13.077  69.611  1.00  0.00    -0.122 C  
BRANCH  12  13
HETATM   13  C   UNL     1      -5.933  11.675  69.020  1.00  0.00    -0.053 C  
BRANCH  13  14
HETATM   14  C   UNL     1      -6.361  10.608  69.994  1.00  0.00    -0.126 C  
HETATM   15  O   UNL     1      -6.159  10.659  71.201  1.00  0.00    -0.337 OA 
BRANCH  14  16
HETATM   16  O   UNL     1      -7.034   9.622  69.344  1.00  0.00    -0.051 OA 
BRANCH  16  17
HETATM   17  C   UNL     1      -8.290  10.014  68.772  1.00  0.00    -0.121 C  
BRANCH  17  18
HETATM   18  C   UNL     1      -9.443   9.194  69.352  1.00  0.00    -0.161 C  
BRANCH  18  19
HETATM   19  O   UNL     1      -9.726   9.633  70.698  1.00  0.00    -0.257 OA 
BRANCH  19  20
HETATM   20  C   UNL     1     -11.036   9.622  71.047  1.00  0.00    -0.361 C  
HETATM   21  O   UNL     1     -11.494   9.152  72.079  1.00  0.00    -0.362 OA 
BRANCH  20  22
HETATM   22  C   UNL     1     -11.854  10.296  69.972  1.00  0.00    -0.305 C  
BRANCH  22  23
HETATM   23  C   UNL     1     -11.931  11.795  70.248  1.00  0.00    -0.429 C  
BRANCH  23  24
HETATM   24  C   UNL     1     -11.998  12.613  68.961  1.00  0.00    -0.282 C  
BRANCH  24  25
HETATM   25  C   UNL     1     -10.600  12.789  68.365  1.00  0.00    -0.262 C  
BRANCH  25  26
HETATM   26  C   UNL     1     -10.662  13.353  66.949  1.00  0.00    -0.274 C  
BRANCH  26  27
HETATM   27  C   UNL     1     -12.099  13.693  66.555  1.00  0.00    -0.469 C  
BRANCH  27  28
HETATM   28  C   UNL     1     -12.387  13.274  65.115  1.00  0.00    -0.516 C  
BRANCH  28  29
HETATM   29  C   UNL     1     -11.094  13.044  64.334  1.00  0.00    -0.400 C  
BRANCH  29  30
HETATM   30  C   UNL     1     -11.134  11.708  63.593  1.00  0.00    -0.506 C  
BRANCH  30  31
HETATM   31  C   UNL     1      -9.735  11.113  63.443  1.00  0.00    -0.382 C  
BRANCH  31  32
HETATM   32  C   UNL     1      -9.107  10.841  64.810  1.00  0.00    -0.222 C  
BRANCH  32  33
HETATM   33  C   UNL     1      -9.858   9.741  65.558  1.00  0.00    -0.378 C  
HETATM   34  C   UNL     1      -9.012   8.484  65.684  1.00  0.00    -0.209 C  
ENDBRANCH  32  33
ENDBRANCH  31  32
ENDBRANCH  30  31
ENDBRANCH  29  30
ENDBRANCH  28  29
ENDBRANCH  27  28
ENDBRANCH  26  27
ENDBRANCH  25  26
ENDBRANCH  24  25
ENDBRANCH  23  24
ENDBRANCH  22  23
ENDBRANCH  20  22
ENDBRANCH  19  20
ENDBRANCH  18  19
BRANCH  18  35
HETATM   35  C   UNL     1      -9.020   7.737  69.448  1.00  0.00    -0.142 C  
BRANCH  35  36
HETATM   36  O   UNL     1     -10.170   6.880  69.426  1.00  0.00    -0.172 OA 
BRANCH  36  37
HETATM   37  P   UNL     1      -9.994   5.575  68.303  1.00  0.00    -0.162 P  
HETATM   38  O   UNL     1     -11.061   6.163  67.369  1.00  0.00    -0.331 OA 
HETATM   39  O   UNL     1      -8.505   5.861  68.111  1.00  0.00    -0.114 OA 
BRANCH  37  40
HETATM   40  O   UNL     1      -9.818   4.270  67.180  1.00  0.00    -0.204 OA 
BRANCH  40  41
HETATM   41  C   UNL     1     -10.293   4.648  65.901  1.00  0.00    -0.283 C  
BRANCH  41  42
HETATM   42  C   UNL     1      -9.166   4.539  64.888  1.00  0.00    -0.156 C  
BRANCH  42  43
HETATM   43  N   UNL     1      -9.339   3.419  63.833  1.00  0.00    -0.120 N  
HETATM   44  C   UNL     1     -10.804   3.356  63.460  1.00  0.00    -0.206 C  
HETATM   45  C   UNL     1      -8.911   2.060  64.410  1.00  0.00    -0.112 C  
HETATM   46  C   UNL     1      -8.490   3.697  62.602  1.00  0.00    -0.081 C  
ENDBRANCH  42  43
ENDBRANCH  41  42
ENDBRANCH  40  41
ENDBRANCH  37  40
ENDBRANCH  36  37
ENDBRANCH  35  36
ENDBRANCH  18  35
ENDBRANCH  17  18
ENDBRANCH  16  17
ENDBRANCH  14  16
ENDBRANCH  13  14
ENDBRANCH  12  13
ENDBRANCH  11  12
ENDBRANCH  10  11
ENDBRANCH   9  10
ENDBRANCH   8   9
ENDBRANCH   7   8
ENDBRANCH   6   7
ENDBRANCH   5   6
ENDBRANCH   4   5
ENDBRANCH   3   4
ENDBRANCH   2   3
TORSDOF 36
ENDMDL
MODEL       12
REMARK 921   NORMALIZED FREE ENERGY PREDICTED BY IDOCK:   -3.99 KCAL/MOL
REMARK 922        TOTAL FREE ENERGY PREDICTED BY IDOCK:  -17.88 KCAL/MOL
REMARK 923 INTER-LIGAND FREE ENERGY PREDICTED BY IDOCK:  -14.53 KCAL/MOL
REMARK 924 INTRA-LIGAND FREE ENERGY PREDICTED BY IDOCK:   -3.35 KCAL/MOL
REMARK 927      BINDING AFFINITY PREDICTED BY RF-SCORE:    0.00 PKD
ROOT
HETATM    1  C   UNL     1      -9.960   4.822  68.821  1.00  0.00    -0.182 C  
HETATM    2  C   UNL     1     -10.921   5.931  69.213  1.00  0.00    -0.397 C  
ENDROOT
BRANCH   2   3
HETATM    3  C   UNL     1     -10.633   7.214  68.436  1.00  0.00    -0.223 C  
BRANCH   3   4
HETATM    4  C   UNL     1     -10.329   6.920  66.968  1.00  0.00    -0.348 C  
BRANCH   4   5
HETATM    5  C   UNL     1      -9.108   7.707  66.493  1.00  0.00    -0.203 C  
BRANCH   5   6
HETATM    6  C   UNL     1      -8.251   6.877  65.540  1.00  0.00    -0.135 C  
BRANCH   6   7
HETATM    7  C   UNL     1      -7.420   7.778  64.627  1.00  0.00    -0.095 C  
BRANCH   7   8
HETATM    8  C   UNL     1      -8.074   9.152  64.469  1.00  0.00    -0.139 C  
BRANCH   8   9
HETATM    9  C   UNL     1      -8.748   9.289  63.104  1.00  0.00    -0.194 C  
BRANCH   9  10
HETATM   10  C   UNL     1      -9.417  10.654  62.966  1.00  0.00    -0.363 C  
BRANCH  10  11
HETATM   11  C   UNL     1     -10.233  11.003  64.210  1.00  0.00    -0.414 C  
BRANCH  11  12
HETATM   12  C   UNL     1     -11.016  12.303  64.003  1.00  0.00    -0.438 C  
BRANCH  12  13
HETATM   13  C   UNL     1     -12.091  12.516  65.066  1.00  0.00    -0.504 C  
BRANCH  13  14
HETATM   14  C   UNL     1     -11.517  12.528  66.459  1.00  0.00    -0.362 C  
HETATM   15  O   UNL     1     -11.972  11.884  67.395  1.00  0.00    -0.603 OA 
BRANCH  14  16
HETATM   16  O   UNL     1     -10.408  13.313  66.501  1.00  0.00    -0.275 OA 
BRANCH  16  17
HETATM   17  C   UNL     1      -9.828  13.483  67.803  1.00  0.00    -0.233 C  
BRANCH  17  18
HETATM   18  C   UNL     1     -10.172  14.853  68.388  1.00  0.00    -0.231 C  
BRANCH  18  19
HETATM   19  O   UNL     1     -11.595  14.947  68.609  1.00  0.00    -0.290 OA 
BRANCH  19  20
HETATM   20  C   UNL     1     -11.979  14.976  69.910  1.00  0.00    -0.334 C  
HETATM   21  O   UNL     1     -12.140  15.984  70.582  1.00  0.00    -0.361 OA 
BRANCH  20  22
HETATM   22  C   UNL     1     -12.195  13.567  70.407  1.00  0.00    -0.426 C  
BRANCH  22  23
HETATM   23  C   UNL     1     -12.976  13.599  71.718  1.00  0.00    -0.441 C  
BRANCH  23  24
HETATM   24  C   UNL     1     -13.535  12.228  72.088  1.00  0.00    -0.431 C  
BRANCH  24  25
HETATM   25  C   UNL     1     -12.804  11.127  71.320  1.00  0.00    -0.515 C  
BRANCH  25  26
HETATM   26  C   UNL     1     -13.252   9.739  71.768  1.00  0.00    -0.532 C  
BRANCH  26  27
HETATM   27  C   UNL     1     -12.254   8.670  71.325  1.00  0.00    -0.320 C  
BRANCH  27  28
HETATM   28  C   UNL     1     -10.935   8.803  72.084  1.00  0.00    -0.404 C  
BRANCH  28  29
HETATM   29  C   UNL     1     -10.681   7.587  72.974  1.00  0.00    -0.438 C  
BRANCH  29  30
HETATM   30  C   UNL     1      -9.672   6.639  72.327  1.00  0.00    -0.155 C  
BRANCH  30  31
HETATM   31  C   UNL     1      -9.396   5.429  73.218  1.00  0.00    -0.136 C  
BRANCH  31  32
HETATM   32  C   UNL     1     -10.058   4.171  72.654  1.00  0.00    -0.225 C  
BRANCH  32  33
HETATM   33  C   UNL     1     -11.212   3.707  73.541  1.00  0.00    -0.285 C  
HETATM   34  C   UNL     1     -11.084   2.231  73.884  1.00  0.00    -0.272 C  
ENDBRANCH  32  33
ENDBRANCH  31  32
ENDBRANCH  30  31
ENDBRANCH  29  30
ENDBRANCH  28  29
ENDBRANCH  27  28
ENDBRANCH  26  27
ENDBRANCH  25  26
ENDBRANCH  24  25
ENDBRANCH  23  24
ENDBRANCH  22  23
ENDBRANCH  20  22
ENDBRANCH  19  20
ENDBRANCH  18  19
BRANCH  18  35
HETATM   35  C   UNL     1      -9.815  15.931  67.378  1.00  0.00    -0.234 C  
BRANCH  35  36
HETATM   36  O   UNL     1     -10.639  17.089  67.571  1.00  0.00    -0.333 OA 
BRANCH  36  37
HETATM   37  P   UNL     1      -9.933  18.517  66.896  1.00  0.00    -0.397 P  
HETATM   38  O   UNL     1     -10.677  18.324  65.568  1.00  0.00    -0.596 OA 
HETATM   39  O   UNL     1     -10.489  19.396  68.016  1.00  0.00    -0.414 OA 
BRANCH  37  40
HETATM   40  O   UNL     1      -9.226  19.945  66.221  1.00  0.00    -0.371 OA 
BRANCH  40  41
HETATM   41  C   UNL     1      -7.814  19.850  66.224  1.00  0.00    -0.321 C  
BRANCH  41  42
HETATM   42  C   UNL     1      -7.402  18.414  66.500  1.00  0.00    -0.234 C  
BRANCH  42  43
HETATM   43  N   UNL     1      -6.140  18.252  67.382  1.00  0.00    -0.169 N  
HETATM   44  C   UNL     1      -6.595  18.058  68.812  1.00  0.00    -0.233 C  
HETATM   45  C   UNL     1      -5.259  19.508  67.304  1.00  0.00    -0.165 C  
HETATM   46  C   UNL     1      -5.307  17.063  66.926  1.00  0.00    -0.159 C  
ENDBRANCH  42  43
ENDBRANCH  41  42
ENDBRANCH  40  41
ENDBRANCH  37  40
ENDBRANCH  36  37
ENDBRANCH  35  36
ENDBRANCH  18  35
ENDBRANCH  17  18
ENDBRANCH  16  17
ENDBRANCH  14  16
ENDBRANCH  13  14
ENDBRANCH  12  13
ENDBRANCH  11  12
ENDBRANCH  10  11
ENDBRANCH   9  10
ENDBRANCH   8   9
ENDBRANCH   7   8
ENDBRANCH   6   7
ENDBRANCH   5   6
ENDBRANCH   4   5
ENDBRANCH   3   4
ENDBRANCH   2   3
TORSDOF 36
ENDMDL
MODEL       13
REMARK 921   NORMALIZED FREE ENERGY PREDICTED BY IDOCK:   -3.98 KCAL/MOL
REMARK 922        TOTAL FREE ENERGY PREDICTED BY IDOCK:  -17.86 KCAL/MOL
REMARK 923 INTER-LIGAND FREE ENERGY PREDICTED BY IDOCK:  -12.02 KCAL/MOL
REMARK 924 INTRA-LIGAND FREE ENERGY PREDICTED BY IDOCK:   -5.84 KCAL/MOL
REMARK 927      BINDING AFFINITY PREDICTED BY RF-SCORE:    0.00 PKD
ROOT
HETATM    1  C   UNL     1     -11.744  13.520  69.937  1.00  0.00    -0.341 C  
HETATM    2  C   UNL     1     -11.172  14.418  68.854  1.00  0.00    -0.284 C  
ENDROOT
BRANCH   2   3
HETATM    3  C   UNL     1     -10.089  13.699  68.053  1.00  0.00    -0.250 C  
BRANCH   3   4
HETATM    4  C   UNL     1      -8.698  14.229  68.398  1.00  0.00    -0.181 C  
BRANCH   4   5
HETATM    5  C   UNL     1      -7.741  14.065  67.218  1.00  0.00    -0.120 C  
BRANCH   5   6
HETATM    6  C   UNL     1      -6.596  13.115  67.560  1.00  0.00    -0.159 C  
BRANCH   6   7
HETATM    7  C   UNL     1      -6.695  12.639  69.009  1.00  0.00    -0.097 C  
BRANCH   7   8
HETATM    8  C   UNL     1      -6.328  11.159  69.126  1.00  0.00    -0.064 C  
BRANCH   8   9
HETATM    9  C   UNL     1      -6.991  10.337  68.023  1.00  0.00    -0.082 C  
BRANCH   9  10
HETATM   10  C   UNL     1      -7.705   9.121  68.609  1.00  0.00    -0.092 C  
BRANCH  10  11
HETATM   11  C   UNL     1      -8.432   9.473  69.906  1.00  0.00    -0.198 C  
BRANCH  11  12
HETATM   12  C   UNL     1      -9.758  10.180  69.615  1.00  0.00    -0.250 C  
BRANCH  12  13
HETATM   13  C   UNL     1     -10.666   9.370  68.692  1.00  0.00    -0.196 C  
BRANCH  13  14
HETATM   14  C   UNL     1     -11.114  10.167  67.495  1.00  0.00    -0.181 C  
HETATM   15  O   UNL     1     -12.017  10.994  67.519  1.00  0.00    -0.529 OA 
BRANCH  14  16
HETATM   16  O   UNL     1     -10.344   9.865  66.416  1.00  0.00    -0.227 OA 
BRANCH  16  17
HETATM   17  C   UNL     1      -9.861  10.994  65.674  1.00  0.00    -0.239 C  
BRANCH  17  18
HETATM   18  C   UNL     1     -10.103  10.816  64.175  1.00  0.00    -0.353 C  
BRANCH  18  19
HETATM   19  O   UNL     1      -8.839  10.769  63.478  1.00  0.00    -0.180 OA 
BRANCH  19  20
HETATM   20  C   UNL     1      -7.906   9.953  64.027  1.00  0.00    -0.145 C  
HETATM   21  O   UNL     1      -6.873  10.317  64.570  1.00  0.00    -0.127 OA 
BRANCH  20  22
HETATM   22  C   UNL     1      -8.341   8.515  63.882  1.00  0.00    -0.093 C  
BRANCH  22  23
HETATM   23  C   UNL     1      -7.637   7.657  64.931  1.00  0.00    -0.099 C  
BRANCH  23  24
HETATM   24  C   UNL     1      -8.289   6.286  65.084  1.00  0.00    -0.119 C  
BRANCH  24  25
HETATM   25  C   UNL     1      -8.762   6.076  66.523  1.00  0.00    -0.128 C  
BRANCH  25  26
HETATM   26  C   UNL     1     -10.234   5.676  66.577  1.00  0.00    -0.259 C  
BRANCH  26  27
HETATM   27  C   UNL     1     -10.833   5.970  67.951  1.00  0.00    -0.378 C  
BRANCH  27  28
HETATM   28  C   UNL     1      -9.825   5.683  69.062  1.00  0.00    -0.210 C  
BRANCH  28  29
HETATM   29  C   UNL     1     -10.502   5.649  70.431  1.00  0.00    -0.355 C  
BRANCH  29  30
HETATM   30  C   UNL     1     -11.744   6.538  70.448  1.00  0.00    -0.439 C  
BRANCH  30  31
HETATM   31  C   UNL     1     -12.227   6.793  71.876  1.00  0.00    -0.377 C  
BRANCH  31  32
HETATM   32  C   UNL     1     -11.060   6.757  72.862  1.00  0.00    -0.277 C  
BRANCH  32  33
HETATM   33  C   UNL     1     -10.344   8.105  72.925  1.00  0.00    -0.333 C  
HETATM   34  C   UNL     1      -8.878   7.934  73.293  1.00  0.00    -0.311 C  
ENDBRANCH  32  33
ENDBRANCH  31  32
ENDBRANCH  30  31
ENDBRANCH  29  30
ENDBRANCH  28  29
ENDBRANCH  27  28
ENDBRANCH  26  27
ENDBRANCH  25  26
ENDBRANCH  24  25
ENDBRANCH  23  24
ENDBRANCH  22  23
ENDBRANCH  20  22
ENDBRANCH  19  20
ENDBRANCH  18  19
BRANCH  18  35
HETATM   35  C   UNL     1     -10.849  12.029  63.643  1.00  0.00    -0.446 C  
BRANCH  35  36
HETATM   36  O   UNL     1     -11.706  12.573  64.657  1.00  0.00    -0.329 OA 
BRANCH  36  37
HETATM   37  P   UNL     1     -11.580  14.295  64.768  1.00  0.00    -0.417 P  
HETATM   38  O   UNL     1     -10.056  14.251  64.587  1.00  0.00    -0.318 OA 
HETATM   39  O   UNL     1     -12.530  14.502  63.589  1.00  0.00    -0.782 OA 
BRANCH  37  40
HETATM   40  O   UNL     1     -11.454  16.017  64.879  1.00  0.00    -0.241 OA 
BRANCH  40  41
HETATM   41  C   UNL     1     -10.267  16.387  65.556  1.00  0.00    -0.269 C  
BRANCH  41  42
HETATM   42  C   UNL     1     -10.601  17.360  66.674  1.00  0.00    -0.182 C  
BRANCH  42  43
HETATM   43  N   UNL     1      -9.540  18.458  66.926  1.00  0.00    -0.292 N  
HETATM   44  C   UNL     1      -9.533  18.765  68.408  1.00  0.00    -0.349 C  
HETATM   45  C   UNL     1      -9.892  19.739  66.153  1.00  0.00    -0.448 C  
HETATM   46  C   UNL     1      -8.163  17.998  66.474  1.00  0.00    -0.271 C  
ENDBRANCH  42  43
ENDBRANCH  41  42
ENDBRANCH  40  41
ENDBRANCH  37  40
ENDBRANCH  36  37
ENDBRANCH  35  36
ENDBRANCH  18  35
ENDBRANCH  17  18
ENDBRANCH  16  17
ENDBRANCH  14  16
ENDBRANCH  13  14
ENDBRANCH  12  13
ENDBRANCH  11  12
ENDBRANCH  10  11
ENDBRANCH   9  10
ENDBRANCH   8   9
ENDBRANCH   7   8
ENDBRANCH   6   7
ENDBRANCH   5   6
ENDBRANCH   4   5
ENDBRANCH   3   4
ENDBRANCH   2   3
TORSDOF 36
ENDMDL
MODEL       14
REMARK 921   NORMALIZED FREE ENERGY PREDICTED BY IDOCK:   -3.86 KCAL/MOL
REMARK 922        TOTAL FREE ENERGY PREDICTED BY IDOCK:  -17.46 KCAL/MOL
REMARK 923 INTER-LIGAND FREE ENERGY PREDICTED BY IDOCK:  -12.17 KCAL/MOL
REMARK 924 INTRA-LIGAND FREE ENERGY PREDICTED BY IDOCK:   -5.30 KCAL/MOL
REMARK 927      BINDING AFFINITY PREDICTED BY RF-SCORE:    0.00 PKD
ROOT
HETATM    1  C   UNL     1      -9.670  20.486  67.171  1.00  0.00    -0.581 C  
HETATM    2  C   UNL     1     -10.454  19.208  66.920  1.00  0.00    -0.527 C  
ENDROOT
BRANCH   2   3
HETATM    3  C   UNL     1      -9.821  18.020  67.642  1.00  0.00    -0.305 C  
BRANCH   3   4
HETATM    4  C   UNL     1     -10.877  17.173  68.350  1.00  0.00    -0.309 C  
BRANCH   4   5
HETATM    5  C   UNL     1     -10.241  15.963  69.032  1.00  0.00    -0.227 C  
BRANCH   5   6
HETATM    6  C   UNL     1     -10.999  15.580  70.301  1.00  0.00    -0.352 C  
BRANCH   6   7
HETATM    7  C   UNL     1     -12.166  14.647  69.981  1.00  0.00    -0.385 C  
BRANCH   7   8
HETATM    8  C   UNL     1     -12.459  13.713  71.156  1.00  0.00    -0.442 C  
BRANCH   8   9
HETATM    9  C   UNL     1     -12.274  12.250  70.758  1.00  0.00    -0.354 C  
BRANCH   9  10
HETATM   10  C   UNL     1     -11.665  12.142  69.361  1.00  0.00    -0.391 C  
BRANCH  10  11
HETATM   11  C   UNL     1     -11.372  10.689  68.992  1.00  0.00    -0.340 C  
BRANCH  11  12
HETATM   12  C   UNL     1     -11.150   9.839  70.246  1.00  0.00    -0.349 C  
BRANCH  12  13
HETATM   13  C   UNL     1      -9.675   9.543  70.501  1.00  0.00    -0.325 C  
BRANCH  13  14
HETATM   14  C   UNL     1      -9.483   8.521  71.592  1.00  0.00    -0.246 C  
HETATM   15  O   UNL     1     -10.240   8.381  72.544  1.00  0.00    -0.306 OA 
BRANCH  14  16
HETATM   16  O   UNL     1      -8.384   7.763  71.336  1.00  0.00    -0.106 OA 
BRANCH  16  17
HETATM   17  C   UNL     1      -8.430   6.424  71.849  1.00  0.00    -0.123 C  
BRANCH  17  18
HETATM   18  C   UNL     1      -8.789   5.422  70.752  1.00  0.00    -0.133 C  
BRANCH  18  19
HETATM   19  O   UNL     1     -10.199   5.115  70.812  1.00  0.00    -0.223 OA 
BRANCH  19  20
HETATM   20  C   UNL     1     -10.980   5.814  69.951  1.00  0.00    -0.319 C  
HETATM   21  O   UNL     1     -11.951   6.490  70.260  1.00  0.00    -0.394 OA 
BRANCH  20  22
HETATM   22  C   UNL     1     -10.462   5.646  68.544  1.00  0.00    -0.273 C  
BRANCH  22  23
HETATM   23  C   UNL     1     -10.862   6.854  67.701  1.00  0.00    -0.333 C  
BRANCH  23  24
HETATM   24  C   UNL     1      -9.694   7.809  67.473  1.00  0.00    -0.201 C  
BRANCH  24  25
HETATM   25  C   UNL     1      -9.936   8.664  66.228  1.00  0.00    -0.287 C  
BRANCH  25  26
HETATM   26  C   UNL     1      -8.759   9.595  65.951  1.00  0.00    -0.163 C  
BRANCH  26  27
HETATM   27  C   UNL     1      -9.224  11.044  65.821  1.00  0.00    -0.226 C  
BRANCH  27  28
HETATM   28  C   UNL     1     -10.650  11.116  65.278  1.00  0.00    -0.303 C  
BRANCH  28  29
HETATM   29  C   UNL     1     -10.672  11.647  63.845  1.00  0.00    -0.459 C  
BRANCH  29  30
HETATM   30  C   UNL     1     -11.799  12.663  63.657  1.00  0.00    -0.606 C  
BRANCH  30  31
HETATM   31  C   UNL     1     -12.644  12.798  64.923  1.00  0.00    -0.541 C  
BRANCH  31  32
HETATM   32  C   UNL     1     -12.658  14.243  65.420  1.00  0.00    -0.422 C  
BRANCH  32  33
HETATM   33  C   UNL     1     -11.239  14.775  65.620  1.00  0.00    -0.343 C  
HETATM   34  C   UNL     1     -10.985  16.004  64.762  1.00  0.00    -0.373 C  
ENDBRANCH  32  33
ENDBRANCH  31  32
ENDBRANCH  30  31
ENDBRANCH  29  30
ENDBRANCH  28  29
ENDBRANCH  27  28
ENDBRANCH  26  27
ENDBRANCH  25  26
ENDBRANCH  24  25
ENDBRANCH  23  24
ENDBRANCH  22  23
ENDBRANCH  20  22
ENDBRANCH  19  20
ENDBRANCH  18  19
BRANCH  18  35
HETATM   35  C   UNL     1      -8.049   4.119  71.005  1.00  0.00    -0.071 C  
BRANCH  35  36
HETATM   36  O   UNL     1      -8.779   3.014  70.453  1.00  0.00    -0.060 OA 
BRANCH  36  37
HETATM   37  P   UNL     1      -8.210   2.572  68.880  1.00  0.00    -0.055 P  
HETATM   38  O   UNL     1      -7.258   1.516  69.461  1.00  0.00    -0.036 OA 
HETATM   39  O   UNL     1      -9.618   2.217  68.403  1.00  0.00    -0.201 OA 
BRANCH  37  40
HETATM   40  O   UNL     1      -7.641   2.129  67.307  1.00  0.00    -0.059 OA 
BRANCH  40  41
HETATM   41  C   UNL     1      -7.929   3.149  66.369  1.00  0.00    -0.084 C  
BRANCH  41  42
HETATM   42  C   UNL     1      -6.809   4.175  66.372  1.00  0.00    -0.055 C  
BRANCH  42  43
HETATM   43  N   UNL     1      -6.979   5.336  65.362  1.00  0.00    -0.063 N  
HETATM   44  C   UNL     1      -6.586   6.619  66.061  1.00  0.00    -0.044 C  
HETATM   45  C   UNL     1      -8.441   5.445  64.903  1.00  0.00    -0.148 C  
HETATM   46  C   UNL     1      -6.113   5.116  64.131  1.00  0.00    -0.022 C  
ENDBRANCH  42  43
ENDBRANCH  41  42
ENDBRANCH  40  41
ENDBRANCH  37  40
ENDBRANCH  36  37
ENDBRANCH  35  36
ENDBRANCH  18  35
ENDBRANCH  17  18
ENDBRANCH  16  17
ENDBRANCH  14  16
ENDBRANCH  13  14
ENDBRANCH  12  13
ENDBRANCH  11  12
ENDBRANCH  10  11
ENDBRANCH   9  10
ENDBRANCH   8   9
ENDBRANCH   7   8
ENDBRANCH   6   7
ENDBRANCH   5   6
ENDBRANCH   4   5
ENDBRANCH   3   4
ENDBRANCH   2   3
TORSDOF 36
ENDMDL
MODEL       15
REMARK 921   NORMALIZED FREE ENERGY PREDICTED BY IDOCK:   -3.83 KCAL/MOL
REMARK 922        TOTAL FREE ENERGY PREDICTED BY IDOCK:  -17.37 KCAL/MOL
REMARK 923 INTER-LIGAND FREE ENERGY PREDICTED BY IDOCK:  -12.15 KCAL/MOL
REMARK 924 INTRA-LIGAND FREE ENERGY PREDICTED BY IDOCK:   -5.22 KCAL/MOL
REMARK 927      BINDING AFFINITY PREDICTED BY RF-SCORE:    0.00 PKD
ROOT
HETATM    1  C   UNL     1      -8.402   3.475  65.733  1.00  0.00    -0.106 C  
HETATM    2  C   UNL     1      -9.828   3.646  65.237  1.00  0.00    -0.106 C  
ENDROOT
BRANCH   2   3
HETATM    3  C   UNL     1     -10.484   4.881  65.849  1.00  0.00    -0.282 C  
BRANCH   3   4
HETATM    4  C   UNL     1      -9.516   5.629  66.764  1.00  0.00    -0.150 C  
BRANCH   4   5
HETATM    5  C   UNL     1      -9.391   7.095  66.347  1.00  0.00    -0.190 C  
BRANCH   5   6
HETATM    6  C   UNL     1      -8.040   7.371  65.691  1.00  0.00    -0.129 C  
BRANCH   6   7
HETATM    7  C   UNL     1      -8.209   7.705  64.209  1.00  0.00    -0.009 C  
BRANCH   7   8
HETATM    8  C   UNL     1      -7.906   9.179  63.941  1.00  0.00    -0.129 C  
BRANCH   8   9
HETATM    9  C   UNL     1      -9.000   9.823  63.091  1.00  0.00    -0.270 C  
BRANCH   9  10
HETATM   10  C   UNL     1      -9.854  10.769  63.932  1.00  0.00    -0.389 C  
BRANCH  10  11
HETATM   11  C   UNL     1      -9.322  10.877  65.361  1.00  0.00    -0.240 C  
BRANCH  11  12
HETATM   12  C   UNL     1     -10.393  10.464  66.375  1.00  0.00    -0.278 C  
BRANCH  12  13
HETATM   13  C   UNL     1     -10.556  11.480  67.503  1.00  0.00    -0.243 C  
BRANCH  13  14
HETATM   14  C   UNL     1     -11.708  12.419  67.256  1.00  0.00    -0.349 C  
HETATM   15  O   UNL     1     -12.234  12.590  66.164  1.00  0.00    -0.609 OA 
BRANCH  14  16
HETATM   16  O   UNL     1     -12.094  13.002  68.422  1.00  0.00    -0.305 OA 
BRANCH  16  17
HETATM   17  C   UNL     1     -11.774  12.265  69.611  1.00  0.00    -0.316 C  
BRANCH  17  18
HETATM   18  C   UNL     1     -12.783  12.543  70.725  1.00  0.00    -0.125 C  
BRANCH  18  19
HETATM   19  O   UNL     1     -12.317  13.638  71.544  1.00  0.00    -0.288 OA 
BRANCH  19  20
HETATM   20  C   UNL     1     -12.871  14.844  71.267  1.00  0.00    -0.348 C  
HETATM   21  O   UNL     1     -14.043  15.040  70.981  1.00  0.00    -0.367 OA 
BRANCH  20  22
HETATM   22  C   UNL     1     -11.821  15.923  71.378  1.00  0.00    -0.524 C  
BRANCH  22  23
HETATM   23  C   UNL     1     -10.748  15.708  70.315  1.00  0.00    -0.354 C  
BRANCH  23  24
HETATM   24  C   UNL     1     -11.086  16.414  69.005  1.00  0.00    -0.315 C  
BRANCH  24  25
HETATM   25  C   UNL     1     -10.299  17.719  68.882  1.00  0.00    -0.300 C  
BRANCH  25  26
HETATM   26  C   UNL     1     -10.651  18.467  67.599  1.00  0.00    -0.437 C  
BRANCH  26  27
HETATM   27  C   UNL     1      -9.533  19.429  67.200  1.00  0.00    -0.398 C  
BRANCH  27  28
HETATM   28  C   UNL     1      -8.289  19.212  68.060  1.00  0.00    -0.340 C  
BRANCH  28  29
HETATM   29  C   UNL     1      -7.046  19.003  67.196  1.00  0.00    -0.213 C  
BRANCH  29  30
HETATM   30  C   UNL     1      -6.543  17.564  67.303  1.00  0.00    -0.184 C  
BRANCH  30  31
HETATM   31  C   UNL     1      -7.325  16.631  66.380  1.00  0.00    -0.216 C  
BRANCH  31  32
HETATM   32  C   UNL     1      -7.689  15.331  67.097  1.00  0.00    -0.238 C  
BRANCH  32  33
HETATM   33  C   UNL     1      -8.986  14.738  66.548  1.00  0.00    -0.267 C  
HETATM   34  C   UNL     1      -9.717  15.736  65.664  1.00  0.00    -0.332 C  
ENDBRANCH  32  33
ENDBRANCH  31  32
ENDBRANCH  30  31
ENDBRANCH  29  30
ENDBRANCH  28  29
ENDBRANCH  27  28
ENDBRANCH  26  27
ENDBRANCH  25  26
ENDBRANCH  24  25
ENDBRANCH  23  24
ENDBRANCH  22  23
ENDBRANCH  20  22
ENDBRANCH  19  20
ENDBRANCH  18  19
BRANCH  18  35
HETATM   35  C   UNL     1     -12.872  11.327  71.633  1.00  0.00    -0.405 C  
BRANCH  35  36
HETATM   36  O   UNL     1     -12.749  10.121  70.865  1.00  0.00    -0.335 OA 
BRANCH  36  37
HETATM   37  P   UNL     1     -12.075   8.822  71.788  1.00  0.00    -0.404 P  
HETATM   38  O   UNL     1     -12.991   9.123  72.983  1.00  0.00    -0.232 OA 
HETATM   39  O   UNL     1     -12.446   7.791  70.723  1.00  0.00    -0.127 OA 
BRANCH  37  40
HETATM   40  O   UNL     1     -11.400   7.523  72.711  1.00  0.00    -0.337 OA 
BRANCH  40  41
HETATM   41  C   UNL     1      -9.995   7.662  72.812  1.00  0.00    -0.241 C  
BRANCH  41  42
HETATM   42  C   UNL     1      -9.498   8.604  71.728  1.00  0.00    -0.284 C  
BRANCH  42  43
HETATM   43  N   UNL     1      -8.401   8.021  70.805  1.00  0.00    -0.112 N  
HETATM   44  C   UNL     1      -7.098   8.022  71.577  1.00  0.00    -0.069 C  
HETATM   45  C   UNL     1      -8.236   8.886  69.546  1.00  0.00    -0.107 C  
HETATM   46  C   UNL     1      -8.754   6.609  70.365  1.00  0.00    -0.151 C  
ENDBRANCH  42  43
ENDBRANCH  41  42
ENDBRANCH  40  41
ENDBRANCH  37  40
ENDBRANCH  36  37
ENDBRANCH  35  36
ENDBRANCH  18  35
ENDBRANCH  17  18
ENDBRANCH  16  17
ENDBRANCH  14  16
ENDBRANCH  13  14
ENDBRANCH  12  13
ENDBRANCH  11  12
ENDBRANCH  10  11
ENDBRANCH   9  10
ENDBRANCH   8   9
ENDBRANCH   7   8
ENDBRANCH   6   7
ENDBRANCH   5   6
ENDBRANCH   4   5
ENDBRANCH   3   4
ENDBRANCH   2   3
TORSDOF 36
ENDMDL
MODEL       16
REMARK 921   NORMALIZED FREE ENERGY PREDICTED BY IDOCK:   -3.82 KCAL/MOL
REMARK 922        TOTAL FREE ENERGY PREDICTED BY IDOCK:  -17.34 KCAL/MOL
REMARK 923 INTER-LIGAND FREE ENERGY PREDICTED BY IDOCK:  -11.85 KCAL/MOL
REMARK 924 INTRA-LIGAND FREE ENERGY PREDICTED BY IDOCK:   -5.48 KCAL/MOL
REMARK 927      BINDING AFFINITY PREDICTED BY RF-SCORE:    0.00 PKD
ROOT
HETATM    1  C   UNL     1     -10.214  19.839  68.286  1.00  0.00    -0.569 C  
HETATM    2  C   UNL     1     -10.608  18.516  67.652  1.00  0.00    -0.450 C  
ENDROOT
BRANCH   2   3
HETATM    3  C   UNL     1      -9.966  17.339  68.384  1.00  0.00    -0.322 C  
BRANCH   3   4
HETATM    4  C   UNL     1     -11.014  16.316  68.818  1.00  0.00    -0.343 C  
BRANCH   4   5
HETATM    5  C   UNL     1     -10.568  15.576  70.078  1.00  0.00    -0.337 C  
BRANCH   5   6
HETATM    6  C   UNL     1     -11.745  15.315  71.014  1.00  0.00    -0.394 C  
BRANCH   6   7
HETATM    7  C   UNL     1     -12.268  13.888  70.851  1.00  0.00    -0.436 C  
BRANCH   7   8
HETATM    8  C   UNL     1     -13.384  13.595  71.855  1.00  0.00    -0.510 C  
BRANCH   8   9
HETATM    9  C   UNL     1     -13.460  12.104  72.178  1.00  0.00    -0.383 C  
BRANCH   9  10
HETATM   10  C   UNL     1     -12.633  11.293  71.183  1.00  0.00    -0.501 C  
BRANCH  10  11
HETATM   11  C   UNL     1     -13.138   9.855  71.081  1.00  0.00    -0.453 C  
BRANCH  11  12
HETATM   12  C   UNL     1     -12.099   8.870  71.624  1.00  0.00    -0.415 C  
BRANCH  12  13
HETATM   13  C   UNL     1     -10.666   9.332  71.376  1.00  0.00    -0.432 C  
BRANCH  13  14
HETATM   14  C   UNL     1      -9.689   8.683  72.323  1.00  0.00    -0.286 C  
HETATM   15  O   UNL     1     -10.009   8.128  73.366  1.00  0.00    -0.224 OA 
BRANCH  14  16
HETATM   16  O   UNL     1      -8.427   8.769  71.825  1.00  0.00    -0.247 OA 
BRANCH  16  17
HETATM   17  C   UNL     1      -7.708   7.528  71.764  1.00  0.00    -0.085 C  
BRANCH  17  18
HETATM   18  C   UNL     1      -8.092   6.725  70.521  1.00  0.00    -0.116 C  
BRANCH  18  19
HETATM   19  O   UNL     1      -8.730   5.491  70.915  1.00  0.00    -0.131 OA 
BRANCH  19  20
HETATM   20  C   UNL     1     -10.058   5.416  70.652  1.00  0.00    -0.231 C  
HETATM   21  O   UNL     1     -10.952   5.455  71.485  1.00  0.00    -0.199 OA 
BRANCH  20  22
HETATM   22  C   UNL     1     -10.275   5.294  69.163  1.00  0.00    -0.281 C  
BRANCH  22  23
HETATM   23  C   UNL     1     -11.106   6.473  68.666  1.00  0.00    -0.348 C  
BRANCH  23  24
HETATM   24  C   UNL     1     -10.864   6.764  67.187  1.00  0.00    -0.462 C  
BRANCH  24  25
HETATM   25  C   UNL     1     -10.596   8.254  66.972  1.00  0.00    -0.328 C  
BRANCH  25  26
HETATM   26  C   UNL     1      -9.372   8.722  67.754  1.00  0.00    -0.157 C  
BRANCH  26  27
HETATM   27  C   UNL     1      -9.404  10.234  67.971  1.00  0.00    -0.145 C  
BRANCH  27  28
HETATM   28  C   UNL     1     -10.840  10.751  68.017  1.00  0.00    -0.302 C  
BRANCH  28  29
HETATM   29  C   UNL     1     -10.883  12.278  67.975  1.00  0.00    -0.253 C  
BRANCH  29  30
HETATM   30  C   UNL     1     -12.157  12.770  67.289  1.00  0.00    -0.228 C  
BRANCH  30  31
HETATM   31  C   UNL     1     -11.869  13.946  66.358  1.00  0.00    -0.436 C  
BRANCH  31  32
HETATM   32  C   UNL     1     -10.364  14.184  66.225  1.00  0.00    -0.294 C  
BRANCH  32  33
HETATM   33  C   UNL     1     -10.064  15.298  65.223  1.00  0.00    -0.362 C  
HETATM   34  C   UNL     1     -11.319  15.720  64.476  1.00  0.00    -0.324 C  
ENDBRANCH  32  33
ENDBRANCH  31  32
ENDBRANCH  30  31
ENDBRANCH  29  30
ENDBRANCH  28  29
ENDBRANCH  27  28
ENDBRANCH  26  27
ENDBRANCH  25  26
ENDBRANCH  24  25
ENDBRANCH  23  24
ENDBRANCH  22  23
ENDBRANCH  20  22
ENDBRANCH  19  20
ENDBRANCH  18  19
BRANCH  18  35
HETATM   35  C   UNL     1      -6.830   6.342  69.766  1.00  0.00    -0.065 C  
BRANCH  35  36
HETATM   36  O   UNL     1      -7.037   5.127  69.031  1.00  0.00    -0.054 OA 
BRANCH  36  37
HETATM   37  P   UNL     1      -6.638   5.299  67.356  1.00  0.00    -0.056 P  
HETATM   38  O   UNL     1      -5.205   4.802  67.589  1.00  0.00    -0.010 OA 
HETATM   39  O   UNL     1      -7.762   4.355  66.929  1.00  0.00    -0.091 OA 
BRANCH  37  40
HETATM   40  O   UNL     1      -6.240   5.470  65.681  1.00  0.00    -0.032 OA 
BRANCH  40  41
HETATM   41  C   UNL     1      -7.081   6.428  65.065  1.00  0.00    -0.060 C  
BRANCH  41  42
HETATM   42  C   UNL     1      -6.412   7.791  65.102  1.00  0.00    -0.041 C  
BRANCH  42  43
HETATM   43  N   UNL     1      -6.905   8.793  64.031  1.00  0.00    -0.082 N  
HETATM   44  C   UNL     1      -8.002   8.119  63.236  1.00  0.00    -0.149 C  
HETATM   45  C   UNL     1      -5.761   9.176  63.079  1.00  0.00    -0.084 C  
HETATM   46  C   UNL     1      -7.427  10.067  64.678  1.00  0.00    -0.143 C  
ENDBRANCH  42  43
ENDBRANCH  41  42
ENDBRANCH  40  41
ENDBRANCH  37  40
ENDBRANCH  36  37
ENDBRANCH  35  36
ENDBRANCH  18  35
ENDBRANCH  17  18
ENDBRANCH  16  17
ENDBRANCH  14  16
ENDBRANCH  13  14
ENDBRANCH  12  13
ENDBRANCH  11  12
ENDBRANCH  10  11
ENDBRANCH   9  10
ENDBRANCH   8   9
ENDBRANCH   7   8
ENDBRANCH   6   7
ENDBRANCH   5   6
ENDBRANCH   4   5
ENDBRANCH   3   4
ENDBRANCH   2   3
TORSDOF 36
ENDMDL
MODEL       17
REMARK 921   NORMALIZED FREE ENERGY PREDICTED BY IDOCK:   -3.76 KCAL/MOL
REMARK 922        TOTAL FREE ENERGY PREDICTED BY IDOCK:  -17.17 KCAL/MOL
REMARK 923 INTER-LIGAND FREE ENERGY PREDICTED BY IDOCK:  -11.81 KCAL/MOL
REMARK 924 INTRA-LIGAND FREE ENERGY PREDICTED BY IDOCK:   -5.35 KCAL/MOL
REMARK 927      BINDING AFFINITY PREDICTED BY RF-SCORE:    0.00 PKD
ROOT
HETATM    1  C   UNL     1     -13.685  13.976  72.439  1.00  0.00    -0.669 C  
HETATM    2  C   UNL     1     -12.412  14.699  72.033  1.00  0.00    -0.407 C  
ENDROOT
BRANCH   2   3
HETATM    3  C   UNL     1     -12.621  15.512  70.756  1.00  0.00    -0.505 C  
BRANCH   3   4
HETATM    4  C   UNL     1     -11.296  16.045  70.214  1.00  0.00    -0.391 C  
BRANCH   4   5
HETATM    5  C   UNL     1     -11.390  16.319  68.713  1.00  0.00    -0.329 C  
BRANCH   5   6
HETATM    6  C   UNL     1     -10.319  17.308  68.262  1.00  0.00    -0.361 C  
BRANCH   6   7
HETATM    7  C   UNL     1      -8.981  16.603  68.039  1.00  0.00    -0.211 C  
BRANCH   7   8
HETATM    8  C   UNL     1      -7.842  17.358  68.725  1.00  0.00    -0.250 C  
BRANCH   8   9
HETATM    9  C   UNL     1      -6.579  16.502  68.801  1.00  0.00    -0.161 C  
BRANCH   9  10
HETATM   10  C   UNL     1      -6.865  15.174  69.496  1.00  0.00    -0.179 C  
BRANCH  10  11
HETATM   11  C   UNL     1      -5.696  14.203  69.347  1.00  0.00    -0.086 C  
BRANCH  11  12
HETATM   12  C   UNL     1      -5.714  13.150  70.459  1.00  0.00    -0.176 C  
BRANCH  12  13
HETATM   13  C   UNL     1      -5.140  11.809  70.008  1.00  0.00    -0.075 C  
BRANCH  13  14
HETATM   14  C   UNL     1      -6.000  10.651  70.440  1.00  0.00    -0.119 C  
HETATM   15  O   UNL     1      -6.104  10.266  71.598  1.00  0.00    -0.304 OA 
BRANCH  14  16
HETATM   16  O   UNL     1      -6.667  10.139  69.372  1.00  0.00    -0.053 OA 
BRANCH  16  17
HETATM   17  C   UNL     1      -7.901  10.797  69.048  1.00  0.00    -0.138 C  
BRANCH  17  18
HETATM   18  C   UNL     1      -9.067   9.808  69.028  1.00  0.00    -0.157 C  
BRANCH  18  19
HETATM   19  O   UNL     1      -9.490   9.523  70.379  1.00  0.00    -0.242 OA 
BRANCH  19  20
HETATM   20  C   UNL     1     -10.812   9.702  70.622  1.00  0.00    -0.320 C  
HETATM   21  O   UNL     1     -11.400   9.367  71.640  1.00  0.00    -0.372 OA 
BRANCH  20  22
HETATM   22  C   UNL     1     -11.455  10.397  69.446  1.00  0.00    -0.292 C  
BRANCH  22  23
HETATM   23  C   UNL     1     -11.806  11.833  69.827  1.00  0.00    -0.420 C  
BRANCH  23  24
HETATM   24  C   UNL     1     -11.956  12.731  68.602  1.00  0.00    -0.272 C  
BRANCH  24  25
HETATM   25  C   UNL     1     -10.587  13.043  67.997  1.00  0.00    -0.246 C  
BRANCH  25  26
HETATM   26  C   UNL     1     -10.716  13.634  66.595  1.00  0.00    -0.280 C  
BRANCH  26  27
HETATM   27  C   UNL     1     -12.118  13.411  66.032  1.00  0.00    -0.487 C  
BRANCH  27  28
HETATM   28  C   UNL     1     -12.059  12.722  64.670  1.00  0.00    -0.483 C  
BRANCH  28  29
HETATM   29  C   UNL     1     -10.641  12.741  64.100  1.00  0.00    -0.441 C  
BRANCH  29  30
HETATM   30  C   UNL     1     -10.226  11.349  63.624  1.00  0.00    -0.448 C  
BRANCH  30  31
HETATM   31  C   UNL     1     -10.026  10.395  64.801  1.00  0.00    -0.409 C  
BRANCH  31  32
HETATM   32  C   UNL     1      -8.733  10.716  65.552  1.00  0.00    -0.199 C  
BRANCH  32  33
HETATM   33  C   UNL     1      -7.554   9.922  64.991  1.00  0.00    -0.134 C  
HETATM   34  C   UNL     1      -6.229  10.567  65.363  1.00  0.00    -0.110 C  
ENDBRANCH  32  33
ENDBRANCH  31  32
ENDBRANCH  30  31
ENDBRANCH  29  30
ENDBRANCH  28  29
ENDBRANCH  27  28
ENDBRANCH  26  27
ENDBRANCH  25  26
ENDBRANCH  24  25
ENDBRANCH  23  24
ENDBRANCH  22  23
ENDBRANCH  20  22
ENDBRANCH  19  20
ENDBRANCH  18  19
BRANCH  18  35
HETATM   35  C   UNL     1      -8.595   8.492  68.432  1.00  0.00    -0.139 C  
BRANCH  35  36
HETATM   36  O   UNL     1      -9.597   7.952  67.558  1.00  0.00    -0.144 OA 
BRANCH  36  37
HETATM   37  P   UNL     1      -9.738   6.234  67.705  1.00  0.00    -0.132 P  
HETATM   38  O   UNL     1     -11.070   6.223  66.942  1.00  0.00    -0.361 OA 
HETATM   39  O   UNL     1      -8.401   6.003  67.002  1.00  0.00    -0.106 OA 
BRANCH  37  40
HETATM   40  O   UNL     1      -9.879   4.515  67.852  1.00  0.00    -0.155 OA 
BRANCH  40  41
HETATM   41  C   UNL     1      -9.631   4.108  69.185  1.00  0.00    -0.172 C  
BRANCH  41  42
HETATM   42  C   UNL     1     -10.357   5.037  70.143  1.00  0.00    -0.236 C  
BRANCH  42  43
HETATM   43  N   UNL     1      -9.720   5.157  71.548  1.00  0.00    -0.159 N  
HETATM   44  C   UNL     1      -8.948   6.459  71.597  1.00  0.00    -0.144 C  
HETATM   45  C   UNL     1      -8.751   3.993  71.807  1.00  0.00    -0.107 C  
HETATM   46  C   UNL     1     -10.786   5.134  72.633  1.00  0.00    -0.237 C  
ENDBRANCH  42  43
ENDBRANCH  41  42
ENDBRANCH  40  41
ENDBRANCH  37  40
ENDBRANCH  36  37
ENDBRANCH  35  36
ENDBRANCH  18  35
ENDBRANCH  17  18
ENDBRANCH  16  17
ENDBRANCH  14  16
ENDBRANCH  13  14
ENDBRANCH  12  13
ENDBRANCH  11  12
ENDBRANCH  10  11
ENDBRANCH   9  10
ENDBRANCH   8   9
ENDBRANCH   7   8
ENDBRANCH   6   7
ENDBRANCH   5   6
ENDBRANCH   4   5
ENDBRANCH   3   4
ENDBRANCH   2   3
TORSDOF 36
ENDMDL
MODEL       18
REMARK 921   NORMALIZED FREE ENERGY PREDICTED BY IDOCK:   -3.75 KCAL/MOL
REMARK 922        TOTAL FREE ENERGY PREDICTED BY IDOCK:  -17.14 KCAL/MOL
REMARK 923 INTER-LIGAND FREE ENERGY PREDICTED BY IDOCK:  -12.46 KCAL/MOL
REMARK 924 INTRA-LIGAND FREE ENERGY PREDICTED BY IDOCK:   -4.68 KCAL/MOL
REMARK 927      BINDING AFFINITY PREDICTED BY RF-SCORE:    0.00 PKD
ROOT
HETATM    1  C   UNL     1      -9.142  16.340  66.166  1.00  0.00    -0.377 C  
HETATM    2  C   UNL     1      -9.971  15.311  65.418  1.00  0.00    -0.364 C  
ENDROOT
BRANCH   2   3
HETATM    3  C   UNL     1     -11.169  15.960  64.727  1.00  0.00    -0.364 C  
BRANCH   3   4
HETATM    4  C   UNL     1     -12.177  14.911  64.261  1.00  0.00    -0.365 C  
BRANCH   4   5
HETATM    5  C   UNL     1     -12.544  13.961  65.401  1.00  0.00    -0.538 C  
BRANCH   5   6
HETATM    6  C   UNL     1     -12.494  12.505  64.946  1.00  0.00    -0.524 C  
BRANCH   6   7
HETATM    7  C   UNL     1     -11.056  12.066  64.671  1.00  0.00    -0.375 C  
BRANCH   7   8
HETATM    8  C   UNL     1     -10.712  10.795  65.448  1.00  0.00    -0.149 C  
BRANCH   8   9
HETATM    9  C   UNL     1      -9.481  10.105  64.862  1.00  0.00    -0.349 C  
BRANCH   9  10
HETATM   10  C   UNL     1      -8.374   9.994  65.908  1.00  0.00    -0.129 C  
BRANCH  10  11
HETATM   11  C   UNL     1      -7.607   8.680  65.769  1.00  0.00    -0.089 C  
BRANCH  11  12
HETATM   12  C   UNL     1      -8.567   7.506  65.554  1.00  0.00    -0.102 C  
BRANCH  12  13
HETATM   13  C   UNL     1      -8.803   6.700  66.829  1.00  0.00    -0.132 C  
BRANCH  13  14
HETATM   14  C   UNL     1     -10.089   5.916  66.773  1.00  0.00    -0.192 C  
HETATM   15  O   UNL     1     -10.238   4.885  66.130  1.00  0.00    -0.230 OA 
BRANCH  14  16
HETATM   16  O   UNL     1     -11.025   6.496  67.570  1.00  0.00    -0.315 OA 
BRANCH  16  17
HETATM   17  C   UNL     1     -11.089   5.987  68.910  1.00  0.00    -0.279 C  
BRANCH  17  18
HETATM   18  C   UNL     1     -11.048   7.119  69.936  1.00  0.00    -0.235 C  
BRANCH  18  19
HETATM   19  O   UNL     1      -9.678   7.418  70.280  1.00  0.00    -0.172 OA 
BRANCH  19  20
HETATM   20  C   UNL     1      -9.327   8.724  70.176  1.00  0.00    -0.169 C  
HETATM   21  O   UNL     1      -8.481   9.290  70.854  1.00  0.00    -0.197 OA 
BRANCH  20  22
HETATM   22  C   UNL     1     -10.129   9.380  69.078  1.00  0.00    -0.202 C  
BRANCH  22  23
HETATM   23  C   UNL     1     -10.640  10.737  69.555  1.00  0.00    -0.235 C  
BRANCH  23  24
HETATM   24  C   UNL     1     -11.675  10.602  70.669  1.00  0.00    -0.454 C  
BRANCH  24  25
HETATM   25  C   UNL     1     -12.532  11.866  70.758  1.00  0.00    -0.384 C  
BRANCH  25  26
HETATM   26  C   UNL     1     -13.387  11.875  72.022  1.00  0.00    -0.425 C  
BRANCH  26  27
HETATM   27  C   UNL     1     -13.509  13.287  72.592  1.00  0.00    -0.490 C  
BRANCH  27  28
HETATM   28  C   UNL     1     -14.240  14.210  71.619  1.00  0.00    -0.405 C  
BRANCH  28  29
HETATM   29  C   UNL     1     -13.574  15.583  71.549  1.00  0.00    -0.571 C  
BRANCH  29  30
HETATM   30  C   UNL     1     -12.178  15.545  72.170  1.00  0.00    -0.488 C  
BRANCH  30  31
HETATM   31  C   UNL     1     -11.095  15.431  71.098  1.00  0.00    -0.362 C  
BRANCH  31  32
HETATM   32  C   UNL     1     -11.221  16.557  70.072  1.00  0.00    -0.159 C  
BRANCH  32  33
HETATM   33  C   UNL     1     -11.411  16.002  68.661  1.00  0.00    -0.377 C  
HETATM   34  C   UNL     1     -11.470  14.483  68.669  1.00  0.00    -0.321 C  
ENDBRANCH  32  33
ENDBRANCH  31  32
ENDBRANCH  30  31
ENDBRANCH  29  30
ENDBRANCH  28  29
ENDBRANCH  27  28
ENDBRANCH  26  27
ENDBRANCH  25  26
ENDBRANCH  24  25
ENDBRANCH  23  24
ENDBRANCH  22  23
ENDBRANCH  20  22
ENDBRANCH  19  20
ENDBRANCH  18  19
BRANCH  18  35
HETATM   35  C   UNL     1     -11.727   6.658  71.215  1.00  0.00    -0.334 C  
BRANCH  35  36
HETATM   36  O   UNL     1     -10.877   6.895  72.346  1.00  0.00    -0.219 OA 
BRANCH  36  37
HETATM   37  P   UNL     1     -10.549   5.448  73.235  1.00  0.00    -0.295 P  
HETATM   38  O   UNL     1     -10.277   6.236  74.524  1.00  0.00    -0.330 OA 
HETATM   39  O   UNL     1     -11.926   4.867  72.917  1.00  0.00    -0.153 OA 
BRANCH  37  40
HETATM   40  O   UNL     1     -10.220   4.000  74.124  1.00  0.00    -0.144 OA 
BRANCH  40  41
HETATM   41  C   UNL     1      -9.563   3.051  73.304  1.00  0.00    -0.094 C  
BRANCH  41  42
HETATM   42  C   UNL     1      -8.369   3.704  72.629  1.00  0.00    -0.086 C  
BRANCH  42  43
HETATM   43  N   UNL     1      -8.187   3.349  71.133  1.00  0.00    -0.065 N  
HETATM   44  C   UNL     1      -7.669   4.582  70.425  1.00  0.00    -0.053 C  
HETATM   45  C   UNL     1      -9.528   2.939  70.506  1.00  0.00    -0.140 C  
HETATM   46  C   UNL     1      -7.214   2.192  70.963  1.00  0.00    -0.033 C  
ENDBRANCH  42  43
ENDBRANCH  41  42
ENDBRANCH  40  41
ENDBRANCH  37  40
ENDBRANCH  36  37
ENDBRANCH  35  36
ENDBRANCH  18  35
ENDBRANCH  17  18
ENDBRANCH  16  17
ENDBRANCH  14  16
ENDBRANCH  13  14
ENDBRANCH  12  13
ENDBRANCH  11  12
ENDBRANCH  10  11
ENDBRANCH   9  10
ENDBRANCH   8   9
ENDBRANCH   7   8
ENDBRANCH   6   7
ENDBRANCH   5   6
ENDBRANCH   4   5
ENDBRANCH   3   4
ENDBRANCH   2   3
TORSDOF 36
ENDMDL
MODEL       19
REMARK 921   NORMALIZED FREE ENERGY PREDICTED BY IDOCK:   -3.74 KCAL/MOL
REMARK 922        TOTAL FREE ENERGY PREDICTED BY IDOCK:  -17.09 KCAL/MOL
REMARK 923 INTER-LIGAND FREE ENERGY PREDICTED BY IDOCK:  -12.79 KCAL/MOL
REMARK 924 INTRA-LIGAND FREE ENERGY PREDICTED BY IDOCK:   -4.30 KCAL/MOL
REMARK 927      BINDING AFFINITY PREDICTED BY RF-SCORE:    0.00 PKD
ROOT
HETATM    1  C   UNL     1      -9.427   7.811  73.504  1.00  0.00    -0.346 C  
HETATM    2  C   UNL     1      -9.400   6.325  73.815  1.00  0.00    -0.144 C  
ENDROOT
BRANCH   2   3
HETATM    3  C   UNL     1      -9.104   5.501  72.563  1.00  0.00    -0.140 C  
BRANCH   3   4
HETATM    4  C   UNL     1      -8.526   6.372  71.449  1.00  0.00    -0.126 C  
BRANCH   4   5
HETATM    5  C   UNL     1      -9.266   6.137  70.132  1.00  0.00    -0.164 C  
BRANCH   5   6
HETATM    6  C   UNL     1     -10.650   5.539  70.373  1.00  0.00    -0.350 C  
BRANCH   6   7
HETATM    7  C   UNL     1     -11.732   6.617  70.306  1.00  0.00    -0.432 C  
BRANCH   7   8
HETATM    8  C   UNL     1     -12.462   6.745  71.643  1.00  0.00    -0.398 C  
BRANCH   8   9
HETATM    9  C   UNL     1     -13.507   7.859  71.598  1.00  0.00    -0.386 C  
BRANCH   9  10
HETATM   10  C   UNL     1     -13.068   9.047  72.450  1.00  0.00    -0.487 C  
BRANCH  10  11
HETATM   11  C   UNL     1     -12.999  10.330  71.623  1.00  0.00    -0.570 C  
BRANCH  11  12
HETATM   12  C   UNL     1     -11.687  10.405  70.838  1.00  0.00    -0.455 C  
BRANCH  12  13
HETATM   13  C   UNL     1     -11.669  11.555  69.833  1.00  0.00    -0.420 C  
BRANCH  13  14
HETATM   14  C   UNL     1     -11.585  11.063  68.412  1.00  0.00    -0.302 C  
HETATM   15  O   UNL     1     -12.095  11.633  67.456  1.00  0.00    -0.611 OA 
BRANCH  14  16
HETATM   16  O   UNL     1     -10.829   9.934  68.351  1.00  0.00    -0.232 OA 
BRANCH  16  17
HETATM   17  C   UNL     1     -10.116   9.741  67.120  1.00  0.00    -0.211 C  
BRANCH  17  18
HETATM   18  C   UNL     1      -8.942  10.712  67.001  1.00  0.00    -0.137 C  
BRANCH  18  19
HETATM   19  O   UNL     1      -9.060  11.475  65.781  1.00  0.00    -0.209 OA 
BRANCH  19  20
HETATM   20  C   UNL     1      -9.397  10.758  64.681  1.00  0.00    -0.233 C  
HETATM   21  O   UNL     1      -8.697   9.915  64.139  1.00  0.00    -0.171 OA 
BRANCH  20  22
HETATM   22  C   UNL     1     -10.784  11.145  64.228  1.00  0.00    -0.403 C  
BRANCH  22  23
HETATM   23  C   UNL     1     -10.783  12.594  63.749  1.00  0.00    -0.454 C  
BRANCH  23  24
HETATM   24  C   UNL     1     -11.889  13.417  64.403  1.00  0.00    -0.452 C  
BRANCH  24  25
HETATM   25  C   UNL     1     -11.459  14.877  64.544  1.00  0.00    -0.328 C  
BRANCH  25  26
HETATM   26  C   UNL     1     -10.336  15.035  65.565  1.00  0.00    -0.397 C  
BRANCH  26  27
HETATM   27  C   UNL     1     -10.240  16.478  66.057  1.00  0.00    -0.372 C  
BRANCH  27  28
HETATM   28  C   UNL     1     -10.107  16.532  67.578  1.00  0.00    -0.267 C  
BRANCH  28  29
HETATM   29  C   UNL     1     -11.189  15.697  68.260  1.00  0.00    -0.353 C  
BRANCH  29  30
HETATM   30  C   UNL     1     -10.617  14.926  69.449  1.00  0.00    -0.255 C  
BRANCH  30  31
HETATM   31  C   UNL     1     -11.287  15.344  70.757  1.00  0.00    -0.376 C  
BRANCH  31  32
HETATM   32  C   UNL     1     -12.809  15.325  70.623  1.00  0.00    -0.462 C  
BRANCH  32  33
HETATM   33  C   UNL     1     -13.444  14.381  71.643  1.00  0.00    -0.451 C  
HETATM   34  C   UNL     1     -13.065  14.768  73.064  1.00  0.00    -0.614 C  
ENDBRANCH  32  33
ENDBRANCH  31  32
ENDBRANCH  30  31
ENDBRANCH  29  30
ENDBRANCH  28  29
ENDBRANCH  27  28
ENDBRANCH  26  27
ENDBRANCH  25  26
ENDBRANCH  24  25
ENDBRANCH  23  24
ENDBRANCH  22  23
ENDBRANCH  20  22
ENDBRANCH  19  20
ENDBRANCH  18  19
BRANCH  18  35
HETATM   35  C   UNL     1      -7.649   9.920  66.897  1.00  0.00    -0.095 C  
BRANCH  35  36
HETATM   36  O   UNL     1      -7.558   8.968  67.966  1.00  0.00    -0.091 OA 
BRANCH  36  37
HETATM   37  P   UNL     1      -6.678   7.550  67.508  1.00  0.00    -0.070 P  
HETATM   38  O   UNL     1      -6.076   8.252  66.283  1.00  0.00    -0.044 OA 
HETATM   39  O   UNL     1      -5.947   7.496  68.850  1.00  0.00    -0.028 OA 
BRANCH  37  40
HETATM   40  O   UNL     1      -5.797   6.132  67.051  1.00  0.00    -0.016 OA 
BRANCH  40  41
HETATM   41  C   UNL     1      -6.585   4.972  67.250  1.00  0.00    -0.053 C  
BRANCH  41  42
HETATM   42  C   UNL     1      -8.011   5.244  66.805  1.00  0.00    -0.104 C  
BRANCH  42  43
HETATM   43  N   UNL     1      -8.761   4.021  66.224  1.00  0.00    -0.114 N  
HETATM   44  C   UNL     1      -9.916   4.538  65.392  1.00  0.00    -0.192 C  
HETATM   45  C   UNL     1      -9.315   3.138  67.353  1.00  0.00    -0.191 C  
HETATM   46  C   UNL     1      -7.834   3.169  65.371  1.00  0.00    -0.082 C  
ENDBRANCH  42  43
ENDBRANCH  41  42
ENDBRANCH  40  41
ENDBRANCH  37  40
ENDBRANCH  36  37
ENDBRANCH  35  36
ENDBRANCH  18  35
ENDBRANCH  17  18
ENDBRANCH  16  17
ENDBRANCH  14  16
ENDBRANCH  13  14
ENDBRANCH  12  13
ENDBRANCH  11  12
ENDBRANCH  10  11
ENDBRANCH   9  10
ENDBRANCH   8   9
ENDBRANCH   7   8
ENDBRANCH   6   7
ENDBRANCH   5   6
ENDBRANCH   4   5
ENDBRANCH   3   4
ENDBRANCH   2   3
TORSDOF 36
ENDMDL
MODEL       20
REMARK 921   NORMALIZED FREE ENERGY PREDICTED BY IDOCK:   -3.68 KCAL/MOL
REMARK 922        TOTAL FREE ENERGY PREDICTED BY IDOCK:  -16.92 KCAL/MOL
REMARK 923 INTER-LIGAND FREE ENERGY PREDICTED BY IDOCK:  -12.33 KCAL/MOL
REMARK 924 INTRA-LIGAND FREE ENERGY PREDICTED BY IDOCK:   -4.59 KCAL/MOL
REMARK 927      BINDING AFFINITY PREDICTED BY RF-SCORE:    0.00 PKD
ROOT
HETATM    1  C   UNL     1     -14.026   7.527  71.619  1.00  0.00    -0.523 C  
HETATM    2  C   UNL     1     -14.145   8.786  72.461  1.00  0.00    -0.421 C  
ENDROOT
BRANCH   2   3
HETATM    3  C   UNL     1     -13.093   9.820  72.065  1.00  0.00    -0.546 C  
BRANCH   3   4
HETATM    4  C   UNL     1     -12.138   9.265  71.010  1.00  0.00    -0.349 C  
BRANCH   4   5
HETATM    5  C   UNL     1     -10.683   9.438  71.444  1.00  0.00    -0.407 C  
BRANCH   5   6
HETATM    6  C   UNL     1      -9.985   8.088  71.590  1.00  0.00    -0.237 C  
BRANCH   6   7
HETATM    7  C   UNL     1     -10.229   7.493  72.976  1.00  0.00    -0.360 C  
BRANCH   7   8
HETATM    8  C   UNL     1     -10.580   6.008  72.881  1.00  0.00    -0.262 C  
BRANCH   8   9
HETATM    9  C   UNL     1     -10.899   5.607  71.442  1.00  0.00    -0.290 C  
BRANCH   9  10
HETATM   10  C   UNL     1      -9.996   4.462  70.987  1.00  0.00    -0.242 C  
BRANCH  10  11
HETATM   11  C   UNL     1      -8.960   4.940  69.971  1.00  0.00    -0.143 C  
BRANCH  11  12
HETATM   12  C   UNL     1      -9.601   5.154  68.596  1.00  0.00    -0.194 C  
BRANCH  12  13
HETATM   13  C   UNL     1      -9.663   6.627  68.200  1.00  0.00    -0.130 C  
BRANCH  13  14
HETATM   14  C   UNL     1      -8.554   7.006  67.253  1.00  0.00    -0.121 C  
HETATM   15  O   UNL     1      -7.597   6.288  66.993  1.00  0.00    -0.092 OA 
BRANCH  14  16
HETATM   16  O   UNL     1      -8.802   8.226  66.706  1.00  0.00    -0.130 OA 
BRANCH  16  17
HETATM   17  C   UNL     1      -8.101   9.322  67.313  1.00  0.00    -0.113 C  
BRANCH  17  18
HETATM   18  C   UNL     1      -9.072  10.311  67.957  1.00  0.00    -0.132 C  
BRANCH  18  19
HETATM   19  O   UNL     1      -9.852  10.967  66.935  1.00  0.00    -0.185 OA 
BRANCH  19  20
HETATM   20  C   UNL     1     -11.104  11.332  67.307  1.00  0.00    -0.305 C  
HETATM   21  O   UNL     1     -11.884  10.644  67.949  1.00  0.00    -0.485 OA 
BRANCH  20  22
HETATM   22  C   UNL     1     -11.391  12.732  66.822  1.00  0.00    -0.362 C  
BRANCH  22  23
HETATM   23  C   UNL     1     -12.280  12.675  65.583  1.00  0.00    -0.474 C  
BRANCH  23  24
HETATM   24  C   UNL     1     -12.940  14.019  65.287  1.00  0.00    -0.315 C  
BRANCH  24  25
HETATM   25  C   UNL     1     -12.105  14.816  64.284  1.00  0.00    -0.415 C  
BRANCH  25  26
HETATM   26  C   UNL     1     -10.860  15.408  64.937  1.00  0.00    -0.445 C  
BRANCH  26  27
HETATM   27  C   UNL     1     -10.917  16.935  64.943  1.00  0.00    -0.011 C  
BRANCH  27  28
HETATM   28  C   UNL     1     -10.078  17.510  66.083  1.00  0.00    -0.317 C  
BRANCH  28  29
HETATM   29  C   UNL     1     -10.689  18.802  66.625  1.00  0.00    -0.353 C  
BRANCH  29  30
HETATM   30  C   UNL     1      -9.695  19.544  67.518  1.00  0.00    -0.456 C  
BRANCH  30  31
HETATM   31  C   UNL     1      -8.480  20.019  66.723  1.00  0.00    -0.380 C  
BRANCH  31  32
HETATM   32  C   UNL     1      -7.195  19.846  67.533  1.00  0.00    -0.304 C  
BRANCH  32  33
HETATM   33  C   UNL     1      -7.475  19.196  68.887  1.00  0.00    -0.378 C  
HETATM   34  C   UNL     1      -6.190  18.714  69.543  1.00  0.00    -0.278 C  
ENDBRANCH  32  33
ENDBRANCH  31  32
ENDBRANCH  30  31
ENDBRANCH  29  30
ENDBRANCH  28  29
ENDBRANCH  27  28
ENDBRANCH  26  27
ENDBRANCH  25  26
ENDBRANCH  24  25
ENDBRANCH  23  24
ENDBRANCH  22  23
ENDBRANCH  20  22
ENDBRANCH  19  20
ENDBRANCH  18  19
BRANCH  18  35
HETATM   35  C   UNL     1      -8.279  11.398  68.665  1.00  0.00    -0.142 C  
BRANCH  35  36
HETATM   36  O   UNL     1      -7.858  12.399  67.728  1.00  0.00    -0.130 OA 
BRANCH  36  37
HETATM   37  P   UNL     1      -8.016  14.001  68.363  1.00  0.00    -0.138 P  
HETATM   38  O   UNL     1      -6.790  13.822  69.269  1.00  0.00    -0.112 OA 
HETATM   39  O   UNL     1      -7.912  14.629  66.974  1.00  0.00    -0.189 OA 
BRANCH  37  40
HETATM   40  O   UNL     1      -8.175  15.603  68.999  1.00  0.00    -0.195 OA 
BRANCH  40  41
HETATM   41  C   UNL     1      -9.532  15.895  69.276  1.00  0.00    -0.260 C  
BRANCH  41  42
HETATM   42  C   UNL     1     -10.261  14.617  69.653  1.00  0.00     0.044 C  
BRANCH  42  43
HETATM   43  N   UNL     1     -11.643  14.822  70.319  1.00  0.00    -0.271 N  
HETATM   44  C   UNL     1     -12.517  15.585  69.346  1.00  0.00     0.005 C  
HETATM   45  C   UNL     1     -11.507  15.638  71.613  1.00  0.00    -0.429 C  
HETATM   46  C   UNL     1     -12.282  13.486  70.668  1.00  0.00    -0.358 C  
ENDBRANCH  42  43
ENDBRANCH  41  42
ENDBRANCH  40  41
ENDBRANCH  37  40
ENDBRANCH  36  37
ENDBRANCH  35  36
ENDBRANCH  18  35
ENDBRANCH  17  18
ENDBRANCH  16  17
ENDBRANCH  14  16
ENDBRANCH  13  14
ENDBRANCH  12  13
ENDBRANCH  11  12
ENDBRANCH  10  11
ENDBRANCH   9  10
ENDBRANCH   8   9
ENDBRANCH   7   8
ENDBRANCH   6   7
ENDBRANCH   5   6
ENDBRANCH   4   5
ENDBRANCH   3   4
ENDBRANCH   2   3
TORSDOF 36
ENDMDL
MODEL       21
REMARK 921   NORMALIZED FREE ENERGY PREDICTED BY IDOCK:   -3.67 KCAL/MOL
REMARK 922        TOTAL FREE ENERGY PREDICTED BY IDOCK:  -16.88 KCAL/MOL
REMARK 923 INTER-LIGAND FREE ENERGY PREDICTED BY IDOCK:  -12.39 KCAL/MOL
REMARK 924 INTRA-LIGAND FREE ENERGY PREDICTED BY IDOCK:   -4.49 KCAL/MOL
REMARK 927      BINDING AFFINITY PREDICTED BY RF-SCORE:    0.00 PKD
ROOT
HETATM    1  C   UNL     1      -8.594   2.459  65.559  1.00  0.00    -0.114 C  
HETATM    2  C   UNL     1      -9.566   2.826  64.450  1.00  0.00    -0.147 C  
ENDROOT
BRANCH   2   3
HETATM    3  C   UNL     1     -10.290   4.135  64.759  1.00  0.00    -0.206 C  
BRANCH   3   4
HETATM    4  C   UNL     1     -10.133   4.524  66.228  1.00  0.00    -0.280 C  
BRANCH   4   5
HETATM    5  C   UNL     1      -9.928   6.031  66.376  1.00  0.00    -0.145 C  
BRANCH   5   6
HETATM    6  C   UNL     1      -8.444   6.390  66.386  1.00  0.00    -0.123 C  
BRANCH   6   7
HETATM    7  C   UNL     1      -7.993   6.891  65.014  1.00  0.00    -0.125 C  
BRANCH   7   8
HETATM    8  C   UNL     1      -7.533   8.348  65.087  1.00  0.00    -0.084 C  
BRANCH   8   9
HETATM    9  C   UNL     1      -8.334   9.229  64.130  1.00  0.00    -0.178 C  
BRANCH   9  10
HETATM   10  C   UNL     1      -9.535   9.847  64.841  1.00  0.00    -0.355 C  
BRANCH  10  11
HETATM   11  C   UNL     1      -9.220  10.153  66.304  1.00  0.00    -0.191 C  
BRANCH  11  12
HETATM   12  C   UNL     1     -10.444   9.905  67.190  1.00  0.00    -0.305 C  
BRANCH  12  13
HETATM   13  C   UNL     1     -10.712  11.056  68.157  1.00  0.00    -0.246 C  
BRANCH  13  14
HETATM   14  C   UNL     1     -11.749  12.012  67.627  1.00  0.00    -0.294 C  
HETATM   15  O   UNL     1     -12.070  12.093  66.448  1.00  0.00    -0.630 OA 
BRANCH  14  16
HETATM   16  O   UNL     1     -12.296  12.723  68.648  1.00  0.00    -0.051 OA 
BRANCH  16  17
HETATM   17  C   UNL     1     -11.884  12.322  69.963  1.00  0.00    -0.296 C  
BRANCH  17  18
HETATM   18  C   UNL     1     -12.935  12.691  71.010  1.00  0.00    -0.071 C  
BRANCH  18  19
HETATM   19  O   UNL     1     -12.423  13.731  71.871  1.00  0.00    -0.237 OA 
BRANCH  19  20
HETATM   20  C   UNL     1     -12.846  14.986  71.577  1.00  0.00    -0.347 C  
HETATM   21  O   UNL     1     -14.006  15.318  71.383  1.00  0.00    -0.486 OA 
BRANCH  20  22
HETATM   22  C   UNL     1     -11.665  15.924  71.539  1.00  0.00    -0.545 C  
BRANCH  22  23
HETATM   23  C   UNL     1     -10.886  15.720  70.243  1.00  0.00    -0.363 C  
BRANCH  23  24
HETATM   24  C   UNL     1     -11.569  16.383  69.050  1.00  0.00    -0.143 C  
BRANCH  24  25
HETATM   25  C   UNL     1     -11.136  15.715  67.745  1.00  0.00    -0.311 C  
BRANCH  25  26
HETATM   26  C   UNL     1      -9.836  14.935  67.920  1.00  0.00    -0.214 C  
BRANCH  26  27
HETATM   27  C   UNL     1      -9.062  14.855  66.605  1.00  0.00    -0.309 C  
BRANCH  27  28
HETATM   28  C   UNL     1      -8.690  16.249  66.103  1.00  0.00    -0.353 C  
BRANCH  28  29
HETATM   29  C   UNL     1      -7.394  16.742  66.745  1.00  0.00    -0.275 C  
BRANCH  29  30
HETATM   30  C   UNL     1      -6.895  18.014  66.061  1.00  0.00    -0.332 C  
BRANCH  30  31
HETATM   31  C   UNL     1      -7.986  19.084  66.012  1.00  0.00    -0.213 C  
BRANCH  31  32
HETATM   32  C   UNL     1      -8.219  19.690  67.396  1.00  0.00    -0.333 C  
BRANCH  32  33
HETATM   33  C   UNL     1      -9.658  20.182  67.551  1.00  0.00    -0.547 C  
HETATM   34  C   UNL     1     -10.618  19.348  66.718  1.00  0.00    -0.574 C  
ENDBRANCH  32  33
ENDBRANCH  31  32
ENDBRANCH  30  31
ENDBRANCH  29  30
ENDBRANCH  28  29
ENDBRANCH  27  28
ENDBRANCH  26  27
ENDBRANCH  25  26
ENDBRANCH  24  25
ENDBRANCH  23  24
ENDBRANCH  22  23
ENDBRANCH  20  22
ENDBRANCH  19  20
ENDBRANCH  18  19
BRANCH  18  35
HETATM   35  C   UNL     1     -13.201  11.485  71.895  1.00  0.00    -0.374 C  
BRANCH  35  36
HETATM   36  O   UNL     1     -13.496  10.332  71.094  1.00  0.00    -0.316 OA 
BRANCH  36  37
HETATM   37  P   UNL     1     -12.866   8.875  71.783  1.00  0.00    -0.412 P  
HETATM   38  O   UNL     1     -14.127   8.085  71.403  1.00  0.00    -0.366 OA 
HETATM   39  O   UNL     1     -11.632   8.911  70.882  1.00  0.00    -0.279 OA 
BRANCH  37  40
HETATM   40  O   UNL     1     -12.236   7.418  72.471  1.00  0.00    -0.159 OA 
BRANCH  40  41
HETATM   41  C   UNL     1     -10.885   7.594  72.855  1.00  0.00    -0.389 C  
BRANCH  41  42
HETATM   42  C   UNL     1     -10.157   6.262  72.777  1.00  0.00    -0.180 C  
BRANCH  42  43
HETATM   43  N   UNL     1      -8.825   6.288  71.990  1.00  0.00    -0.138 N  
HETATM   44  C   UNL     1      -8.543   7.724  71.603  1.00  0.00    -0.118 C  
HETATM   45  C   UNL     1      -8.932   5.439  70.714  1.00  0.00    -0.137 C  
HETATM   46  C   UNL     1      -7.685   5.733  72.831  1.00  0.00    -0.097 C  
ENDBRANCH  42  43
ENDBRANCH  41  42
ENDBRANCH  40  41
ENDBRANCH  37  40
ENDBRANCH  36  37
ENDBRANCH  35  36
ENDBRANCH  18  35
ENDBRANCH  17  18
ENDBRANCH  16  17
ENDBRANCH  14  16
ENDBRANCH  13  14
ENDBRANCH  12  13
ENDBRANCH  11  12
ENDBRANCH  10  11
ENDBRANCH   9  10
ENDBRANCH   8   9
ENDBRANCH   7   8
ENDBRANCH   6   7
ENDBRANCH   5   6
ENDBRANCH   4   5
ENDBRANCH   3   4
ENDBRANCH   2   3
TORSDOF 36
ENDMDL
MODEL       22
REMARK 921   NORMALIZED FREE ENERGY PREDICTED BY IDOCK:   -3.65 KCAL/MOL
REMARK 922        TOTAL FREE ENERGY PREDICTED BY IDOCK:  -16.84 KCAL/MOL
REMARK 923 INTER-LIGAND FREE ENERGY PREDICTED BY IDOCK:  -12.73 KCAL/MOL
REMARK 924 INTRA-LIGAND FREE ENERGY PREDICTED BY IDOCK:   -4.11 KCAL/MOL
REMARK 927      BINDING AFFINITY PREDICTED BY RF-SCORE:    0.00 PKD
ROOT
HETATM    1  C   UNL     1     -14.308   7.391  71.509  1.00  0.00    -0.594 C  
HETATM    2  C   UNL     1     -12.819   7.691  71.546  1.00  0.00    -0.376 C  
ENDROOT
BRANCH   2   3
HETATM    3  C   UNL     1     -12.533   8.986  72.303  1.00  0.00    -0.427 C  
BRANCH   3   4
HETATM    4  C   UNL     1     -12.578  10.196  71.372  1.00  0.00    -0.526 C  
BRANCH   4   5
HETATM    5  C   UNL     1     -13.503  11.279  71.927  1.00  0.00    -0.278 C  
BRANCH   5   6
HETATM    6  C   UNL     1     -12.924  12.673  71.699  1.00  0.00    -0.400 C  
BRANCH   6   7
HETATM    7  C   UNL     1     -13.971  13.752  71.971  1.00  0.00    -0.560 C  
BRANCH   7   8
HETATM    8  C   UNL     1     -13.492  15.117  71.476  1.00  0.00    -0.549 C  
BRANCH   8   9
HETATM    9  C   UNL     1     -12.031  15.063  71.034  1.00  0.00    -0.376 C  
BRANCH   9  10
HETATM   10  C   UNL     1     -11.875  15.603  69.614  1.00  0.00    -0.377 C  
BRANCH  10  11
HETATM   11  C   UNL     1     -10.403  15.788  69.247  1.00  0.00    -0.245 C  
BRANCH  11  12
HETATM   12  C   UNL     1      -9.610  14.503  69.503  1.00  0.00     0.230 C  
BRANCH  12  13
HETATM   13  C   UNL     1      -9.315  13.730  68.220  1.00  0.00    -0.209 C  
BRANCH  13  14
HETATM   14  C   UNL     1     -10.092  12.442  68.143  1.00  0.00    -0.224 C  
HETATM   15  O   UNL     1     -10.971  12.121  68.933  1.00  0.00    -0.220 OA 
BRANCH  14  16
HETATM   16  O   UNL     1      -9.704  11.725  67.055  1.00  0.00    -0.183 OA 
BRANCH  16  17
HETATM   17  C   UNL     1      -8.560  10.882  67.253  1.00  0.00    -0.128 C  
BRANCH  17  18
HETATM   18  C   UNL     1      -8.671   9.596  66.432  1.00  0.00    -0.134 C  
BRANCH  18  19
HETATM   19  O   UNL     1      -9.439   9.845  65.235  1.00  0.00    -0.228 OA 
BRANCH  19  20
HETATM   20  C   UNL     1      -8.710   9.995  64.101  1.00  0.00    -0.205 C  
HETATM   21  O   UNL     1      -7.513   9.771  63.989  1.00  0.00    -0.120 OA 
BRANCH  20  22
HETATM   22  C   UNL     1      -9.604  10.470  62.982  1.00  0.00    -0.369 C  
BRANCH  22  23
HETATM   23  C   UNL     1     -10.083  11.890  63.273  1.00  0.00    -0.427 C  
BRANCH  23  24
HETATM   24  C   UNL     1     -11.483  11.911  63.880  1.00  0.00    -0.511 C  
BRANCH  24  25
HETATM   25  C   UNL     1     -12.165  13.252  63.604  1.00  0.00    -0.522 C  
BRANCH  25  26
HETATM   26  C   UNL     1     -12.648  13.910  64.894  1.00  0.00    -0.380 C  
BRANCH  26  27
HETATM   27  C   UNL     1     -11.486  14.546  65.654  1.00  0.00    -0.341 C  
BRANCH  27  28
HETATM   28  C   UNL     1     -10.840  15.662  64.836  1.00  0.00    -0.438 C  
BRANCH  28  29
HETATM   29  C   UNL     1     -10.354  16.799  65.733  1.00  0.00    -0.322 C  
BRANCH  29  30
HETATM   30  C   UNL     1      -8.889  16.602  66.119  1.00  0.00    -0.323 C  
BRANCH  30  31
HETATM   31  C   UNL     1      -8.341  17.820  66.861  1.00  0.00    -0.257 C  
BRANCH  31  32
HETATM   32  C   UNL     1      -9.441  18.852  67.108  1.00  0.00    -0.337 C  
BRANCH  32  33
HETATM   33  C   UNL     1      -8.887  20.275  67.072  1.00  0.00    -0.427 C  
HETATM   34  C   UNL     1      -7.438  20.314  67.533  1.00  0.00    -0.347 C  
ENDBRANCH  32  33
ENDBRANCH  31  32
ENDBRANCH  30  31
ENDBRANCH  29  30
ENDBRANCH  28  29
ENDBRANCH  27  28
ENDBRANCH  26  27
ENDBRANCH  25  26
ENDBRANCH  24  25
ENDBRANCH  23  24
ENDBRANCH  22  23
ENDBRANCH  20  22
ENDBRANCH  19  20
ENDBRANCH  18  19
BRANCH  18  35
HETATM   35  C   UNL     1      -9.438   8.558  67.234  1.00  0.00    -0.157 C  
BRANCH  35  36
HETATM   36  O   UNL     1      -9.695   7.397  66.432  1.00  0.00    -0.173 OA 
BRANCH  36  37
HETATM   37  P   UNL     1      -8.889   5.990  67.037  1.00  0.00    -0.116 P  
HETATM   38  O   UNL     1      -7.532   6.470  66.503  1.00  0.00    -0.082 OA 
HETATM   39  O   UNL     1      -9.340   6.272  68.469  1.00  0.00    -0.123 OA 
BRANCH  37  40
HETATM   40  O   UNL     1      -8.083   4.583  67.641  1.00  0.00    -0.098 OA 
BRANCH  40  41
HETATM   41  C   UNL     1      -8.012   3.583  66.643  1.00  0.00    -0.088 C  
BRANCH  41  42
HETATM   42  C   UNL     1      -9.362   3.451  65.959  1.00  0.00    -0.142 C  
BRANCH  42  43
HETATM   43  N   UNL     1      -9.302   3.163  64.439  1.00  0.00    -0.135 N  
HETATM   44  C   UNL     1     -10.585   3.673  63.820  1.00  0.00    -0.276 C  
HETATM   45  C   UNL     1      -9.186   1.654  64.177  1.00  0.00    -0.118 C  
HETATM   46  C   UNL     1      -8.100   3.845  63.804  1.00  0.00    -0.089 C  
ENDBRANCH  42  43
ENDBRANCH  41  42
ENDBRANCH  40  41
ENDBRANCH  37  40
ENDBRANCH  36  37
ENDBRANCH  35  36
ENDBRANCH  18  35
ENDBRANCH  17  18
ENDBRANCH  16  17
ENDBRANCH  14  16
ENDBRANCH  13  14
ENDBRANCH  12  13
ENDBRANCH  11  12
ENDBRANCH  10  11
ENDBRANCH   9  10
ENDBRANCH   8   9
ENDBRANCH   7   8
ENDBRANCH   6   7
ENDBRANCH   5   6
ENDBRANCH   4   5
ENDBRANCH   3   4
ENDBRANCH   2   3
TORSDOF 36
ENDMDL
MODEL       23
REMARK 921   NORMALIZED FREE ENERGY PREDICTED BY IDOCK:   -3.63 KCAL/MOL
REMARK 922        TOTAL FREE ENERGY PREDICTED BY IDOCK:  -16.77 KCAL/MOL
REMARK 923 INTER-LIGAND FREE ENERGY PREDICTED BY IDOCK:  -11.96 KCAL/MOL
REMARK 924 INTRA-LIGAND FREE ENERGY PREDICTED BY IDOCK:   -4.81 KCAL/MOL
REMARK 927      BINDING AFFINITY PREDICTED BY RF-SCORE:    0.00 PKD
ROOT
HETATM    1  C   UNL     1     -12.283  11.047  69.550  1.00  0.00    -0.352 C  
HETATM    2  C   UNL     1     -12.670  10.319  70.826  1.00  0.00    -0.434 C  
ENDROOT
BRANCH   2   3
HETATM    3  C   UNL     1     -13.185  11.292  71.885  1.00  0.00    -0.491 C  
BRANCH   3   4
HETATM    4  C   UNL     1     -12.977  12.743  71.454  1.00  0.00    -0.359 C  
BRANCH   4   5
HETATM    5  C   UNL     1     -13.690  13.703  72.406  1.00  0.00    -0.697 C  
BRANCH   5   6
HETATM    6  C   UNL     1     -13.565  15.149  71.931  1.00  0.00    -0.545 C  
BRANCH   6   7
HETATM    7  C   UNL     1     -12.798  15.227  70.611  1.00  0.00    -0.462 C  
BRANCH   7   8
HETATM    8  C   UNL     1     -11.489  15.997  70.783  1.00  0.00    -0.444 C  
BRANCH   8   9
HETATM    9  C   UNL     1     -10.876  16.353  69.430  1.00  0.00    -0.327 C  
BRANCH   9  10
HETATM   10  C   UNL     1      -9.727  15.406  69.090  1.00  0.00    -0.252 C  
BRANCH  10  11
HETATM   11  C   UNL     1      -8.454  16.175  68.744  1.00  0.00    -0.236 C  
BRANCH  11  12
HETATM   12  C   UNL     1      -7.222  15.494  69.346  1.00  0.00    -0.204 C  
BRANCH  12  13
HETATM   13  C   UNL     1      -7.112  14.023  68.950  1.00  0.00    -0.111 C  
BRANCH  13  14
HETATM   14  C   UNL     1      -6.089  13.289  69.777  1.00  0.00    -0.128 C  
HETATM   15  O   UNL     1      -5.138  13.826  70.329  1.00  0.00    -0.090 OA 
BRANCH  14  16
HETATM   16  O   UNL     1      -6.406  11.969  69.851  1.00  0.00    -0.141 OA 
BRANCH  16  17
HETATM   17  C   UNL     1      -7.217  11.474  68.776  1.00  0.00    -0.112 C  
BRANCH  17  18
HETATM   18  C   UNL     1      -8.257  10.473  69.281  1.00  0.00    -0.145 C  
BRANCH  18  19
HETATM   19  O   UNL     1      -7.608   9.236  69.647  1.00  0.00    -0.073 OA 
BRANCH  19  20
HETATM   20  C   UNL     1      -8.015   8.694  70.821  1.00  0.00    -0.118 C  
HETATM   21  O   UNL     1      -8.932   9.108  71.516  1.00  0.00    -0.319 OA 
BRANCH  20  22
HETATM   22  C   UNL     1      -7.173   7.483  71.141  1.00  0.00    -0.063 C  
BRANCH  22  23
HETATM   23  C   UNL     1      -7.156   6.538  69.943  1.00  0.00    -0.068 C  
BRANCH  23  24
HETATM   24  C   UNL     1      -7.470   5.098  70.341  1.00  0.00    -0.067 C  
BRANCH  24  25
HETATM   25  C   UNL     1      -8.431   5.070  71.530  1.00  0.00    -0.124 C  
BRANCH  25  26
HETATM   26  C   UNL     1      -9.865   4.797  71.085  1.00  0.00    -0.260 C  
BRANCH  26  27
HETATM   27  C   UNL     1     -10.759   6.010  71.339  1.00  0.00    -0.314 C  
BRANCH  27  28
HETATM   28  C   UNL     1     -11.585   6.352  70.100  1.00  0.00    -0.449 C  
BRANCH  28  29
HETATM   29  C   UNL     1     -10.737   7.062  69.046  1.00  0.00    -0.234 C  
BRANCH  29  30
HETATM   30  C   UNL     1     -10.987   6.474  67.657  1.00  0.00    -0.426 C  
BRANCH  30  31
HETATM   31  C   UNL     1     -10.289   5.125  67.490  1.00  0.00    -0.190 C  
BRANCH  31  32
HETATM   32  C   UNL     1     -10.200   4.735  66.014  1.00  0.00    -0.308 C  
BRANCH  32  33
HETATM   33  C   UNL     1      -8.747   4.561  65.573  1.00  0.00    -0.127 C  
HETATM   34  C   UNL     1      -7.784   5.050  66.643  1.00  0.00    -0.092 C  
ENDBRANCH  32  33
ENDBRANCH  31  32
ENDBRANCH  30  31
ENDBRANCH  29  30
ENDBRANCH  28  29
ENDBRANCH  27  28
ENDBRANCH  26  27
ENDBRANCH  25  26
ENDBRANCH  24  25
ENDBRANCH  23  24
ENDBRANCH  22  23
ENDBRANCH  20  22
ENDBRANCH  19  20
ENDBRANCH  18  19
BRANCH  18  35
HETATM   35  C   UNL     1      -9.221  10.143  68.153  1.00  0.00    -0.135 C  
BRANCH  35  36
HETATM   36  O   UNL     1      -8.508   9.613  67.026  1.00  0.00    -0.123 OA 
BRANCH  36  37
HETATM   37  P   UNL     1      -9.306   9.950  65.528  1.00  0.00    -0.263 P  
HETATM   38  O   UNL     1     -10.633  10.252  66.240  1.00  0.00    -0.176 OA 
HETATM   39  O   UNL     1      -8.309  11.052  65.174  1.00  0.00    -0.064 OA 
BRANCH  37  40
HETATM   40  O   UNL     1     -10.105  10.286  64.030  1.00  0.00    -0.263 OA 
BRANCH  40  41
HETATM   41  C   UNL     1     -10.129  11.680  63.782  1.00  0.00    -0.381 C  
BRANCH  41  42
HETATM   42  C   UNL     1     -11.494  12.237  64.146  1.00  0.00    -0.383 C  
BRANCH  42  43
HETATM   43  N   UNL     1     -11.469  13.511  65.024  1.00  0.00    -0.310 N  
HETATM   44  C   UNL     1     -12.284  13.232  66.269  1.00  0.00    -0.377 C  
HETATM   45  C   UNL     1     -12.093  14.699  64.276  1.00  0.00    -0.415 C  
HETATM   46  C   UNL     1     -10.043  13.886  65.398  1.00  0.00    -0.305 C  
ENDBRANCH  42  43
ENDBRANCH  41  42
ENDBRANCH  40  41
ENDBRANCH  37  40
ENDBRANCH  36  37
ENDBRANCH  35  36
ENDBRANCH  18  35
ENDBRANCH  17  18
ENDBRANCH  16  17
ENDBRANCH  14  16
ENDBRANCH  13  14
ENDBRANCH  12  13
ENDBRANCH  11  12
ENDBRANCH  10  11
ENDBRANCH   9  10
ENDBRANCH   8   9
ENDBRANCH   7   8
ENDBRANCH   6   7
ENDBRANCH   5   6
ENDBRANCH   4   5
ENDBRANCH   3   4
ENDBRANCH   2   3
TORSDOF 36
ENDMDL
MODEL       24
REMARK 921   NORMALIZED FREE ENERGY PREDICTED BY IDOCK:   -3.62 KCAL/MOL
REMARK 922        TOTAL FREE ENERGY PREDICTED BY IDOCK:  -16.72 KCAL/MOL
REMARK 923 INTER-LIGAND FREE ENERGY PREDICTED BY IDOCK:  -11.86 KCAL/MOL
REMARK 924 INTRA-LIGAND FREE ENERGY PREDICTED BY IDOCK:   -4.87 KCAL/MOL
REMARK 927      BINDING AFFINITY PREDICTED BY RF-SCORE:    0.00 PKD
ROOT
HETATM    1  C   UNL     1     -10.130  19.829  68.223  1.00  0.00    -0.575 C  
HETATM    2  C   UNL     1     -10.621  18.651  67.397  1.00  0.00    -0.490 C  
ENDROOT
BRANCH   2   3
HETATM    3  C   UNL     1     -10.005  17.340  67.881  1.00  0.00    -0.297 C  
BRANCH   3   4
HETATM    4  C   UNL     1     -11.061  16.421  68.490  1.00  0.00    -0.357 C  
BRANCH   4   5
HETATM    5  C   UNL     1     -10.562  15.803  69.796  1.00  0.00    -0.312 C  
BRANCH   5   6
HETATM    6  C   UNL     1     -11.717  15.532  70.757  1.00  0.00    -0.397 C  
BRANCH   6   7
HETATM    7  C   UNL     1     -12.182  14.079  70.658  1.00  0.00    -0.442 C  
BRANCH   7   8
HETATM    8  C   UNL     1     -13.454  13.854  71.476  1.00  0.00    -0.383 C  
BRANCH   8   9
HETATM    9  C   UNL     1     -13.451  12.475  72.133  1.00  0.00    -0.523 C  
BRANCH   9  10
HETATM   10  C   UNL     1     -12.606  11.492  71.325  1.00  0.00    -0.452 C  
BRANCH  10  11
HETATM   11  C   UNL     1     -13.237  10.101  71.303  1.00  0.00    -0.453 C  
BRANCH  11  12
HETATM   12  C   UNL     1     -12.244   9.042  71.789  1.00  0.00    -0.434 C  
BRANCH  12  13
HETATM   13  C   UNL     1     -10.798   9.392  71.445  1.00  0.00    -0.430 C  
BRANCH  13  14
HETATM   14  C   UNL     1      -9.814   8.516  72.177  1.00  0.00    -0.318 C  
HETATM   15  O   UNL     1     -10.029   8.005  73.269  1.00  0.00    -0.299 OA 
BRANCH  14  16
HETATM   16  O   UNL     1      -8.691   8.348  71.430  1.00  0.00    -0.141 OA 
BRANCH  16  17
HETATM   17  C   UNL     1      -7.924   7.174  71.734  1.00  0.00    -0.097 C  
BRANCH  17  18
HETATM   18  C   UNL     1      -8.240   6.038  70.761  1.00  0.00    -0.125 C  
BRANCH  18  19
HETATM   19  O   UNL     1      -9.252   5.177  71.326  1.00  0.00    -0.140 OA 
BRANCH  19  20
HETATM   20  C   UNL     1     -10.515   5.403  70.886  1.00  0.00    -0.237 C  
HETATM   21  O   UNL     1     -11.502   5.538  71.595  1.00  0.00    -0.097 OA 
BRANCH  20  22
HETATM   22  C   UNL     1     -10.522   5.479  69.378  1.00  0.00    -0.360 C  
BRANCH  22  23
HETATM   23  C   UNL     1     -10.925   6.883  68.936  1.00  0.00    -0.217 C  
BRANCH  23  24
HETATM   24  C   UNL     1     -10.643   7.123  67.456  1.00  0.00    -0.348 C  
BRANCH  24  25
HETATM   25  C   UNL     1     -10.650   8.620  67.145  1.00  0.00    -0.304 C  
BRANCH  25  26
HETATM   26  C   UNL     1      -9.415   9.315  67.712  1.00  0.00    -0.160 C  
BRANCH  26  27
HETATM   27  C   UNL     1      -9.782  10.657  68.345  1.00  0.00    -0.172 C  
BRANCH  27  28
HETATM   28  C   UNL     1     -11.169  11.113  67.897  1.00  0.00    -0.365 C  
BRANCH  28  29
HETATM   29  C   UNL     1     -11.277  12.637  67.891  1.00  0.00    -0.310 C  
BRANCH  29  30
HETATM   30  C   UNL     1     -11.913  13.135  66.593  1.00  0.00    -0.451 C  
BRANCH  30  31
HETATM   31  C   UNL     1     -10.902  13.151  65.448  1.00  0.00    -0.299 C  
BRANCH  31  32
HETATM   32  C   UNL     1     -11.373  12.274  64.289  1.00  0.00    -0.415 C  
BRANCH  32  33
HETATM   33  C   UNL     1     -10.200  11.560  63.619  1.00  0.00    -0.450 C  
HETATM   34  C   UNL     1      -9.081  11.288  64.613  1.00  0.00    -0.015 C  
ENDBRANCH  32  33
ENDBRANCH  31  32
ENDBRANCH  30  31
ENDBRANCH  29  30
ENDBRANCH  28  29
ENDBRANCH  27  28
ENDBRANCH  26  27
ENDBRANCH  25  26
ENDBRANCH  24  25
ENDBRANCH  23  24
ENDBRANCH  22  23
ENDBRANCH  20  22
ENDBRANCH  19  20
ENDBRANCH  18  19
BRANCH  18  35
HETATM   35  C   UNL     1      -6.997   5.183  70.572  1.00  0.00    -0.045 C  
BRANCH  35  36
HETATM   36  O   UNL     1      -7.305   3.799  70.786  1.00  0.00    -0.037 OA 
BRANCH  36  37
HETATM   37  P   UNL     1      -7.608   2.957  69.305  1.00  0.00    -0.046 P  
HETATM   38  O   UNL     1      -6.108   2.767  69.042  1.00  0.00    -0.024 OA 
HETATM   39  O   UNL     1      -8.447   1.892  70.011  1.00  0.00    -0.044 OA 
BRANCH  37  40
HETATM   40  O   UNL     1      -7.911   2.115  67.824  1.00  0.00    -0.059 OA 
BRANCH  40  41
HETATM   41  C   UNL     1      -8.929   2.763  67.083  1.00  0.00    -0.159 C  
BRANCH  41  42
HETATM   42  C   UNL     1      -8.307   3.532  65.931  1.00  0.00    -0.106 C  
BRANCH  42  43
HETATM   43  N   UNL     1      -9.236   3.753  64.712  1.00  0.00    -0.137 N  
HETATM   44  C   UNL     1      -9.267   2.467  63.915  1.00  0.00    -0.108 C  
HETATM   45  C   UNL     1      -8.700   4.882  63.819  1.00  0.00    -0.108 C  
HETATM   46  C   UNL     1     -10.639   4.132  65.160  1.00  0.00    -0.117 C  
ENDBRANCH  42  43
ENDBRANCH  41  42
ENDBRANCH  40  41
ENDBRANCH  37  40
ENDBRANCH  36  37
ENDBRANCH  35  36
ENDBRANCH  18  35
ENDBRANCH  17  18
ENDBRANCH  16  17
ENDBRANCH  14  16
ENDBRANCH  13  14
ENDBRANCH  12  13
ENDBRANCH  11  12
ENDBRANCH  10  11
ENDBRANCH   9  10
ENDBRANCH   8   9
ENDBRANCH   7   8
ENDBRANCH   6   7
ENDBRANCH   5   6
ENDBRANCH   4   5
ENDBRANCH   3   4
ENDBRANCH   2   3
TORSDOF 36
ENDMDL
MODEL       25
REMARK 921   NORMALIZED FREE ENERGY PREDICTED BY IDOCK:   -3.62 KCAL/MOL
REMARK 922        TOTAL FREE ENERGY PREDICTED BY IDOCK:  -16.72 KCAL/MOL
REMARK 923 INTER-LIGAND FREE ENERGY PREDICTED BY IDOCK:  -11.57 KCAL/MOL
REMARK 924 INTRA-LIGAND FREE ENERGY PREDICTED BY IDOCK:   -5.16 KCAL/MOL
REMARK 927      BINDING AFFINITY PREDICTED BY RF-SCORE:    0.00 PKD
ROOT
HETATM    1  C   UNL     1      -6.020  18.893  65.016  1.00  0.00    -0.313 C  
HETATM    2  C   UNL     1      -6.033  20.399  64.814  1.00  0.00    -0.295 C  
ENDROOT
BRANCH   2   3
HETATM    3  C   UNL     1      -6.329  21.131  66.122  1.00  0.00    -0.250 C  
BRANCH   3   4
HETATM    4  C   UNL     1      -7.107  20.243  67.092  1.00  0.00    -0.314 C  
BRANCH   4   5
HETATM    5  C   UNL     1      -8.568  20.684  67.184  1.00  0.00    -0.299 C  
BRANCH   5   6
HETATM    6  C   UNL     1      -9.433  19.950  66.163  1.00  0.00    -0.466 C  
BRANCH   6   7
HETATM    7  C   UNL     1      -9.813  18.558  66.667  1.00  0.00    -0.370 C  
BRANCH   7   8
HETATM    8  C   UNL     1     -10.471  18.635  68.046  1.00  0.00    -0.395 C  
BRANCH   8   9
HETATM    9  C   UNL     1     -10.117  17.416  68.896  1.00  0.00    -0.330 C  
BRANCH   9  10
HETATM   10  C   UNL     1     -11.372  16.626  69.260  1.00  0.00    -0.025 C  
BRANCH  10  11
HETATM   11  C   UNL     1     -11.045  15.451  70.179  1.00  0.00    -0.324 C  
BRANCH  11  12
HETATM   12  C   UNL     1     -12.278  14.573  70.404  1.00  0.00    -0.394 C  
BRANCH  12  13
HETATM   13  C   UNL     1     -12.023  13.105  70.072  1.00  0.00    -0.391 C  
BRANCH  13  14
HETATM   14  C   UNL     1     -12.087  12.840  68.590  1.00  0.00    -0.113 C  
HETATM   15  O   UNL     1     -12.392  13.681  67.754  1.00  0.00    -0.246 OA 
BRANCH  14  16
HETATM   16  O   UNL     1     -11.715  11.559  68.327  1.00  0.00    -0.385 OA 
BRANCH  16  17
HETATM   17  C   UNL     1     -10.521  11.120  68.991  1.00  0.00    -0.206 C  
BRANCH  17  18
HETATM   18  C   UNL     1     -10.126   9.711  68.546  1.00  0.00    -0.175 C  
BRANCH  18  19
HETATM   19  O   UNL     1     -10.498   9.512  67.165  1.00  0.00    -0.254 OA 
BRANCH  19  20
HETATM   20  C   UNL     1      -9.471   9.525  66.281  1.00  0.00    -0.210 C  
HETATM   21  O   UNL     1      -8.333   9.138  66.506  1.00  0.00    -0.116 OA 
BRANCH  20  22
HETATM   22  C   UNL     1      -9.945  10.076  64.958  1.00  0.00    -0.320 C  
BRANCH  22  23
HETATM   23  C   UNL     1     -10.326  11.545  65.120  1.00  0.00    -0.329 C  
BRANCH  23  24
HETATM   24  C   UNL     1     -11.693  11.854  64.515  1.00  0.00    -0.326 C  
BRANCH  24  25
HETATM   25  C   UNL     1     -11.936  13.364  64.486  1.00  0.00    -0.452 C  
BRANCH  25  26
HETATM   26  C   UNL     1     -10.625  14.141  64.407  1.00  0.00    -0.120 C  
BRANCH  26  27
HETATM   27  C   UNL     1     -10.552  15.208  65.498  1.00  0.00    -0.383 C  
BRANCH  27  28
HETATM   28  C   UNL     1      -9.181  15.212  66.171  1.00  0.00    -0.318 C  
BRANCH  28  29
HETATM   29  C   UNL     1      -9.129  14.219  67.331  1.00  0.00    -0.199 C  
BRANCH  29  30
HETATM   30  C   UNL     1      -8.025  14.592  68.320  1.00  0.00    -0.133 C  
BRANCH  30  31
HETATM   31  C   UNL     1      -6.720  14.923  67.598  1.00  0.00    -0.200 C  
BRANCH  31  32
HETATM   32  C   UNL     1      -6.289  16.362  67.877  1.00  0.00    -0.149 C  
BRANCH  32  33
HETATM   33  C   UNL     1      -6.166  16.624  69.378  1.00  0.00    -0.205 C  
HETATM   34  C   UNL     1      -6.353  18.099  69.697  1.00  0.00    -0.182 C  
ENDBRANCH  32  33
ENDBRANCH  31  32
ENDBRANCH  30  31
ENDBRANCH  29  30
ENDBRANCH  28  29
ENDBRANCH  27  28
ENDBRANCH  26  27
ENDBRANCH  25  26
ENDBRANCH  24  25
ENDBRANCH  23  24
ENDBRANCH  22  23
ENDBRANCH  20  22
ENDBRANCH  19  20
ENDBRANCH  18  19
BRANCH  18  35
HETATM   35  C   UNL     1     -10.907   8.694  69.360  1.00  0.00    -0.095 C  
BRANCH  35  36
HETATM   36  O   UNL     1     -11.391   9.288  70.572  1.00  0.00    -0.252 OA 
BRANCH  36  37
HETATM   37  P   UNL     1     -11.211   8.238  71.935  1.00  0.00    -0.353 P  
HETATM   38  O   UNL     1     -12.384   8.901  72.671  1.00  0.00    -0.315 OA 
HETATM   39  O   UNL     1     -11.397   6.989  71.075  1.00  0.00    -0.261 OA 
BRANCH  37  40
HETATM   40  O   UNL     1     -11.031   7.187  73.298  1.00  0.00    -0.322 OA 
BRANCH  40  41
HETATM   41  C   UNL     1      -9.733   7.308  73.851  1.00  0.00    -0.277 C  
BRANCH  41  42
HETATM   42  C   UNL     1      -8.728   7.551  72.739  1.00  0.00    -0.133 C  
BRANCH  42  43
HETATM   43  N   UNL     1      -7.689   6.421  72.536  1.00  0.00    -0.100 N  
HETATM   44  C   UNL     1      -8.116   5.242  73.383  1.00  0.00    -0.111 C  
HETATM   45  C   UNL     1      -6.294   6.880  72.986  1.00  0.00    -0.061 C  
HETATM   46  C   UNL     1      -7.603   6.018  71.072  1.00  0.00    -0.097 C  
ENDBRANCH  42  43
ENDBRANCH  41  42
ENDBRANCH  40  41
ENDBRANCH  37  40
ENDBRANCH  36  37
ENDBRANCH  35  36
ENDBRANCH  18  35
ENDBRANCH  17  18
ENDBRANCH  16  17
ENDBRANCH  14  16
ENDBRANCH  13  14
ENDBRANCH  12  13
ENDBRANCH  11  12
ENDBRANCH  10  11
ENDBRANCH   9  10
ENDBRANCH   8   9
ENDBRANCH   7   8
ENDBRANCH   6   7
ENDBRANCH   5   6
ENDBRANCH   4   5
ENDBRANCH   3   4
ENDBRANCH   2   3
TORSDOF 36
ENDMDL
MODEL       26
REMARK 921   NORMALIZED FREE ENERGY PREDICTED BY IDOCK:   -3.60 KCAL/MOL
REMARK 922        TOTAL FREE ENERGY PREDICTED BY IDOCK:  -16.68 KCAL/MOL
REMARK 923 INTER-LIGAND FREE ENERGY PREDICTED BY IDOCK:  -10.62 KCAL/MOL
REMARK 924 INTRA-LIGAND FREE ENERGY PREDICTED BY IDOCK:   -6.06 KCAL/MOL
REMARK 927      BINDING AFFINITY PREDICTED BY RF-SCORE:    0.00 PKD
ROOT
HETATM    1  C   UNL     1     -12.166  14.666  64.470  1.00  0.00    -0.473 C  
HETATM    2  C   UNL     1     -10.734  14.597  64.974  1.00  0.00    -0.448 C  
ENDROOT
BRANCH   2   3
HETATM    3  C   UNL     1     -10.467  13.285  65.709  1.00  0.00    -0.289 C  
BRANCH   3   4
HETATM    4  C   UNL     1     -11.735  12.752  66.373  1.00  0.00    -0.464 C  
BRANCH   4   5
HETATM    5  C   UNL     1     -11.654  12.885  67.893  1.00  0.00    -0.391 C  
BRANCH   5   6
HETATM    6  C   UNL     1     -12.093  14.273  68.352  1.00  0.00    -0.297 C  
BRANCH   6   7
HETATM    7  C   UNL     1     -11.480  14.620  69.709  1.00  0.00    -0.325 C  
BRANCH   7   8
HETATM    8  C   UNL     1     -10.850  16.013  69.685  1.00  0.00    -0.329 C  
BRANCH   8   9
HETATM    9  C   UNL     1     -10.904  16.620  68.284  1.00  0.00    -0.356 C  
BRANCH   9  10
HETATM   10  C   UNL     1      -9.496  16.871  67.749  1.00  0.00    -0.237 C  
BRANCH  10  11
HETATM   11  C   UNL     1      -8.454  16.061  68.518  1.00  0.00    -0.189 C  
BRANCH  11  12
HETATM   12  C   UNL     1      -7.787  15.025  67.609  1.00  0.00    -0.186 C  
BRANCH  12  13
HETATM   13  C   UNL     1      -7.774  13.627  68.223  1.00  0.00    -0.140 C  
BRANCH  13  14
HETATM   14  C   UNL     1      -6.833  12.700  67.499  1.00  0.00    -0.151 C  
HETATM   15  O   UNL     1      -5.721  13.022  67.100  1.00  0.00    -0.349 OA 
BRANCH  14  16
HETATM   16  O   UNL     1      -7.382  11.460  67.400  1.00  0.00    -0.104 OA 
BRANCH  16  17
HETATM   17  C   UNL     1      -8.455  11.191  68.314  1.00  0.00    -0.145 C  
BRANCH  17  18
HETATM   18  C   UNL     1      -8.786   9.699  68.358  1.00  0.00    -0.120 C  
BRANCH  18  19
HETATM   19  O   UNL     1     -10.012   9.449  67.637  1.00  0.00    -0.169 OA 
BRANCH  19  20
HETATM   20  C   UNL     1      -9.857   9.091  66.338  1.00  0.00    -0.286 C  
HETATM   21  O   UNL     1      -9.873   9.853  65.383  1.00  0.00    -0.293 OA 
BRANCH  20  22
HETATM   22  C   UNL     1      -9.643   7.599  66.245  1.00  0.00    -0.155 C  
BRANCH  22  23
HETATM   23  C   UNL     1     -10.723   6.874  67.042  1.00  0.00    -0.432 C  
BRANCH  23  24
HETATM   24  C   UNL     1     -10.711   5.369  66.789  1.00  0.00    -0.289 C  
BRANCH  24  25
HETATM   25  C   UNL     1     -10.017   4.639  67.939  1.00  0.00    -0.138 C  
BRANCH  25  26
HETATM   26  C   UNL     1      -9.578   3.236  67.529  1.00  0.00    -0.124 C  
BRANCH  26  27
HETATM   27  C   UNL     1      -8.056   3.144  67.428  1.00  0.00    -0.081 C  
BRANCH  27  28
HETATM   28  C   UNL     1      -7.400   4.472  67.799  1.00  0.00    -0.069 C  
BRANCH  28  29
HETATM   29  C   UNL     1      -6.739   5.123  66.585  1.00  0.00    -0.061 C  
BRANCH  29  30
HETATM   30  C   UNL     1      -6.844   4.220  65.356  1.00  0.00    -0.057 C  
BRANCH  30  31
HETATM   31  C   UNL     1      -7.118   5.031  64.091  1.00  0.00    -0.050 C  
BRANCH  31  32
HETATM   32  C   UNL     1      -8.609   5.034  63.755  1.00  0.00    -0.110 C  
BRANCH  32  33
HETATM   33  C   UNL     1      -9.219   3.644  63.927  1.00  0.00    -0.125 C  
HETATM   34  C   UNL     1     -10.617   3.578  63.331  1.00  0.00    -0.257 C  
ENDBRANCH  32  33
ENDBRANCH  31  32
ENDBRANCH  30  31
ENDBRANCH  29  30
ENDBRANCH  28  29
ENDBRANCH  27  28
ENDBRANCH  26  27
ENDBRANCH  25  26
ENDBRANCH  24  25
ENDBRANCH  23  24
ENDBRANCH  22  23
ENDBRANCH  20  22
ENDBRANCH  19  20
ENDBRANCH  18  19
BRANCH  18  35
HETATM   35  C   UNL     1      -9.035   9.286  69.799  1.00  0.00    -0.172 C  
BRANCH  35  36
HETATM   36  O   UNL     1     -10.214   8.474  69.889  1.00  0.00    -0.194 OA 
BRANCH  36  37
HETATM   37  P   UNL     1     -10.703   8.207  71.527  1.00  0.00    -0.262 P  
HETATM   38  O   UNL     1      -9.489   8.972  72.072  1.00  0.00    -0.339 OA 
HETATM   39  O   UNL     1     -12.053   8.886  71.300  1.00  0.00    -0.294 OA 
BRANCH  37  40
HETATM   40  O   UNL     1     -11.192   7.939  73.165  1.00  0.00    -0.382 OA 
BRANCH  40  41
HETATM   41  C   UNL     1     -10.610   6.752  73.670  1.00  0.00    -0.320 C  
BRANCH  41  42
HETATM   42  C   UNL     1     -11.064   5.568  72.835  1.00  0.00    -0.299 C  
BRANCH  42  43
HETATM   43  N   UNL     1     -10.150   4.321  72.912  1.00  0.00    -0.151 N  
HETATM   44  C   UNL     1     -10.917   3.228  73.624  1.00  0.00    -0.237 C  
HETATM   45  C   UNL     1      -8.872   4.633  73.706  1.00  0.00    -0.104 C  
HETATM   46  C   UNL     1      -9.740   3.860  71.521  1.00  0.00    -0.177 C  
ENDBRANCH  42  43
ENDBRANCH  41  42
ENDBRANCH  40  41
ENDBRANCH  37  40
ENDBRANCH  36  37
ENDBRANCH  35  36
ENDBRANCH  18  35
ENDBRANCH  17  18
ENDBRANCH  16  17
ENDBRANCH  14  16
ENDBRANCH  13  14
ENDBRANCH  12  13
ENDBRANCH  11  12
ENDBRANCH  10  11
ENDBRANCH   9  10
ENDBRANCH   8   9
ENDBRANCH   7   8
ENDBRANCH   6   7
ENDBRANCH   5   6
ENDBRANCH   4   5
ENDBRANCH   3   4
ENDBRANCH   2   3
TORSDOF 36
ENDMDL
MODEL       27
REMARK 921   NORMALIZED FREE ENERGY PREDICTED BY IDOCK:   -3.53 KCAL/MOL
REMARK 922        TOTAL FREE ENERGY PREDICTED BY IDOCK:  -16.44 KCAL/MOL
REMARK 923 INTER-LIGAND FREE ENERGY PREDICTED BY IDOCK:  -12.10 KCAL/MOL
REMARK 924 INTRA-LIGAND FREE ENERGY PREDICTED BY IDOCK:   -4.34 KCAL/MOL
REMARK 927      BINDING AFFINITY PREDICTED BY RF-SCORE:    0.00 PKD
ROOT
HETATM    1  C   UNL     1     -11.950  11.553  69.725  1.00  0.00    -0.415 C  
HETATM    2  C   UNL     1     -12.736  10.680  70.688  1.00  0.00    -0.445 C  
ENDROOT
BRANCH   2   3
HETATM    3  C   UNL     1     -13.314  11.504  71.837  1.00  0.00    -0.408 C  
BRANCH   3   4
HETATM    4  C   UNL     1     -12.851  12.957  71.767  1.00  0.00    -0.339 C  
BRANCH   4   5
HETATM    5  C   UNL     1     -13.894  13.894  72.375  1.00  0.00    -0.668 C  
BRANCH   5   6
HETATM    6  C   UNL     1     -13.756  15.311  71.823  1.00  0.00    -0.605 C  
BRANCH   6   7
HETATM    7  C   UNL     1     -12.827  15.337  70.609  1.00  0.00    -0.462 C  
BRANCH   7   8
HETATM    8  C   UNL     1     -11.647  16.281  70.841  1.00  0.00    -0.321 C  
BRANCH   8   9
HETATM    9  C   UNL     1     -10.745  16.350  69.611  1.00  0.00    -0.337 C  
BRANCH   9  10
HETATM   10  C   UNL     1      -9.640  15.299  69.690  1.00  0.00    -0.188 C  
BRANCH  10  11
HETATM   11  C   UNL     1      -8.517  15.595  68.697  1.00  0.00    -0.179 C  
BRANCH  11  12
HETATM   12  C   UNL     1      -7.158  15.185  69.271  1.00  0.00    -0.172 C  
BRANCH  12  13
HETATM   13  C   UNL     1      -7.003  13.670  69.389  1.00  0.00     0.021 C  
BRANCH  13  14
HETATM   14  C   UNL     1      -6.016  13.282  70.459  1.00  0.00    -0.110 C  
HETATM   15  O   UNL     1      -5.333  14.082  71.086  1.00  0.00    -0.132 OA 
BRANCH  14  16
HETATM   16  O   UNL     1      -6.036  11.936  70.649  1.00  0.00    -0.296 OA 
BRANCH  16  17
HETATM   17  C   UNL     1      -6.723  11.186  69.637  1.00  0.00    -0.134 C  
BRANCH  17  18
HETATM   18  C   UNL     1      -7.548  10.054  70.250  1.00  0.00    -0.106 C  
BRANCH  18  19
HETATM   19  O   UNL     1      -6.793   8.823  70.212  1.00  0.00    -0.038 OA 
BRANCH  19  20
HETATM   20  C   UNL     1      -6.319   8.399  71.410  1.00  0.00    -0.045 C  
HETATM   21  O   UNL     1      -6.380   9.022  72.460  1.00  0.00    -0.251 OA 
BRANCH  20  22
HETATM   22  C   UNL     1      -5.712   7.026  71.259  1.00  0.00    -0.035 C  
BRANCH  22  23
HETATM   23  C   UNL     1      -6.820   5.992  71.073  1.00  0.00    -0.066 C  
BRANCH  23  24
HETATM   24  C   UNL     1      -6.706   4.842  72.071  1.00  0.00    -0.047 C  
BRANCH  24  25
HETATM   25  C   UNL     1      -6.968   5.340  73.493  1.00  0.00    -0.081 C  
BRANCH  25  26
HETATM   26  C   UNL     1      -8.462   5.460  73.779  1.00  0.00    -0.110 C  
BRANCH  26  27
HETATM   27  C   UNL     1      -8.852   6.909  74.066  1.00  0.00    -0.198 C  
BRANCH  27  28
HETATM   28  C   UNL     1     -10.341   7.137  73.811  1.00  0.00    -0.390 C  
BRANCH  28  29
HETATM   29  C   UNL     1     -10.587   7.680  72.404  1.00  0.00    -0.313 C  
BRANCH  29  30
HETATM   30  C   UNL     1     -12.067   7.588  72.034  1.00  0.00    -0.326 C  
BRANCH  30  31
HETATM   31  C   UNL     1     -12.265   6.849  70.712  1.00  0.00    -0.364 C  
BRANCH  31  32
HETATM   32  C   UNL     1     -11.004   6.077  70.322  1.00  0.00    -0.412 C  
BRANCH  32  33
HETATM   33  C   UNL     1     -10.799   6.078  68.808  1.00  0.00    -0.391 C  
HETATM   34  C   UNL     1      -9.835   4.981  68.382  1.00  0.00    -0.209 C  
ENDBRANCH  32  33
ENDBRANCH  31  32
ENDBRANCH  30  31
ENDBRANCH  29  30
ENDBRANCH  28  29
ENDBRANCH  27  28
ENDBRANCH  26  27
ENDBRANCH  25  26
ENDBRANCH  24  25
ENDBRANCH  23  24
ENDBRANCH  22  23
ENDBRANCH  20  22
ENDBRANCH  19  20
ENDBRANCH  18  19
BRANCH  18  35
HETATM   35  C   UNL     1      -8.791   9.829  69.404  1.00  0.00    -0.182 C  
BRANCH  35  36
HETATM   36  O   UNL     1      -8.499   8.945  68.313  1.00  0.00    -0.127 OA 
BRANCH  36  37
HETATM   37  P   UNL     1      -9.319   9.404  66.860  1.00  0.00    -0.164 P  
HETATM   38  O   UNL     1     -10.685   9.388  67.560  1.00  0.00    -0.280 OA 
HETATM   39  O   UNL     1      -8.493  10.684  66.726  1.00  0.00    -0.129 OA 
BRANCH  37  40
HETATM   40  O   UNL     1     -10.139   9.864  65.407  1.00  0.00    -0.313 OA 
BRANCH  40  41
HETATM   41  C   UNL     1     -10.013  11.256  65.184  1.00  0.00    -0.264 C  
BRANCH  41  42
HETATM   42  C   UNL     1     -11.250  11.968  65.703  1.00  0.00    -0.327 C  
BRANCH  42  43
HETATM   43  N   UNL     1     -11.677  13.216  64.893  1.00  0.00    -0.326 N  
HETATM   44  C   UNL     1     -11.997  12.767  63.484  1.00  0.00    -0.555 C  
HETATM   45  C   UNL     1     -10.537  14.246  64.842  1.00  0.00    -0.431 C  
HETATM   46  C   UNL     1     -12.889  13.885  65.523  1.00  0.00    -0.431 C  
ENDBRANCH  42  43
ENDBRANCH  41  42
ENDBRANCH  40  41
ENDBRANCH  37  40
ENDBRANCH  36  37
ENDBRANCH  35  36
ENDBRANCH  18  35
ENDBRANCH  17  18
ENDBRANCH  16  17
ENDBRANCH  14  16
ENDBRANCH  13  14
ENDBRANCH  12  13
ENDBRANCH  11  12
ENDBRANCH  10  11
ENDBRANCH   9  10
ENDBRANCH   8   9
ENDBRANCH   7   8
ENDBRANCH   6   7
ENDBRANCH   5   6
ENDBRANCH   4   5
ENDBRANCH   3   4
ENDBRANCH   2   3
TORSDOF 36
ENDMDL
MODEL       28
REMARK 921   NORMALIZED FREE ENERGY PREDICTED BY IDOCK:   -3.50 KCAL/MOL
REMARK 922        TOTAL FREE ENERGY PREDICTED BY IDOCK:  -16.34 KCAL/MOL
REMARK 923 INTER-LIGAND FREE ENERGY PREDICTED BY IDOCK:  -12.15 KCAL/MOL
REMARK 924 INTRA-LIGAND FREE ENERGY PREDICTED BY IDOCK:   -4.20 KCAL/MOL
REMARK 927      BINDING AFFINITY PREDICTED BY RF-SCORE:    0.00 PKD
ROOT
HETATM    1  C   UNL     1     -13.222   7.266  71.468  1.00  0.00    -0.434 C  
HETATM    2  C   UNL     1     -12.802   8.388  72.403  1.00  0.00    -0.323 C  
ENDROOT
BRANCH   2   3
HETATM    3  C   UNL     1     -11.445   8.964  72.002  1.00  0.00    -0.431 C  
BRANCH   3   4
HETATM    4  C   UNL     1     -10.355   7.895  72.033  1.00  0.00    -0.283 C  
BRANCH   4   5
HETATM    5  C   UNL     1      -9.853   7.667  73.459  1.00  0.00    -0.357 C  
BRANCH   5   6
HETATM    6  C   UNL     1     -10.264   6.291  73.978  1.00  0.00    -0.327 C  
BRANCH   6   7
HETATM    7  C   UNL     1      -9.046   5.498  74.450  1.00  0.00    -0.122 C  
BRANCH   7   8
HETATM    8  C   UNL     1      -9.151   4.031  74.032  1.00  0.00    -0.096 C  
BRANCH   8   9
HETATM    9  C   UNL     1     -10.268   3.827  73.010  1.00  0.00    -0.229 C  
BRANCH   9  10
HETATM   10  C   UNL     1      -9.699   3.362  71.671  1.00  0.00    -0.234 C  
BRANCH  10  11
HETATM   11  C   UNL     1      -9.217   4.543  70.830  1.00  0.00    -0.201 C  
BRANCH  11  12
HETATM   12  C   UNL     1      -9.814   4.490  69.421  1.00  0.00    -0.260 C  
BRANCH  12  13
HETATM   13  C   UNL     1     -10.654   5.722  69.092  1.00  0.00    -0.365 C  
BRANCH  13  14
HETATM   14  C   UNL     1     -10.692   6.003  67.612  1.00  0.00    -0.296 C  
HETATM   15  O   UNL     1     -10.780   5.137  66.751  1.00  0.00    -0.256 OA 
BRANCH  14  16
HETATM   16  O   UNL     1     -10.662   7.343  67.388  1.00  0.00    -0.280 OA 
BRANCH  16  17
HETATM   17  C   UNL     1      -9.654   8.062  68.115  1.00  0.00    -0.153 C  
BRANCH  17  18
HETATM   18  C   UNL     1     -10.231   9.320  68.765  1.00  0.00    -0.205 C  
BRANCH  18  19
HETATM   19  O   UNL     1     -10.995  10.066  67.793  1.00  0.00    -0.283 OA 
BRANCH  19  20
HETATM   20  C   UNL     1     -11.739  11.081  68.298  1.00  0.00    -0.229 C  
HETATM   21  O   UNL     1     -12.444  11.018  69.295  1.00  0.00    -0.400 OA 
BRANCH  20  22
HETATM   22  C   UNL     1     -11.558  12.316  67.450  1.00  0.00    -0.425 C  
BRANCH  22  23
HETATM   23  C   UNL     1     -11.105  11.915  66.048  1.00  0.00    -0.369 C  
BRANCH  23  24
HETATM   24  C   UNL     1     -12.036  12.456  64.967  1.00  0.00    -0.458 C  
BRANCH  24  25
HETATM   25  C   UNL     1     -11.253  13.298  63.958  1.00  0.00    -0.374 C  
BRANCH  25  26
HETATM   26  C   UNL     1     -10.452  14.398  64.649  1.00  0.00    -0.286 C  
BRANCH  26  27
HETATM   27  C   UNL     1     -11.377  15.455  65.250  1.00  0.00    -0.243 C  
BRANCH  27  28
HETATM   28  C   UNL     1     -10.845  15.950  66.594  1.00  0.00    -0.213 C  
BRANCH  28  29
HETATM   29  C   UNL     1      -9.939  17.168  66.417  1.00  0.00    -0.315 C  
BRANCH  29  30
HETATM   30  C   UNL     1     -10.521  18.389  67.128  1.00  0.00    -0.434 C  
BRANCH  30  31
HETATM   31  C   UNL     1     -10.092  19.687  66.446  1.00  0.00    -0.573 C  
BRANCH  31  32
HETATM   32  C   UNL     1      -9.282  20.564  67.400  1.00  0.00    -0.481 C  
BRANCH  32  33
HETATM   33  C   UNL     1      -7.811  20.149  67.424  1.00  0.00    -0.348 C  
HETATM   34  C   UNL     1      -7.306  19.830  66.025  1.00  0.00    -0.319 C  
ENDBRANCH  32  33
ENDBRANCH  31  32
ENDBRANCH  30  31
ENDBRANCH  29  30
ENDBRANCH  28  29
ENDBRANCH  27  28
ENDBRANCH  26  27
ENDBRANCH  25  26
ENDBRANCH  24  25
ENDBRANCH  23  24
ENDBRANCH  22  23
ENDBRANCH  20  22
ENDBRANCH  19  20
ENDBRANCH  18  19
BRANCH  18  35
HETATM   35  C   UNL     1      -9.089  10.221  69.206  1.00  0.00    -0.194 C  
BRANCH  35  36
HETATM   36  O   UNL     1      -8.061  10.251  68.206  1.00  0.00    -0.103 OA 
BRANCH  36  37
HETATM   37  P   UNL     1      -6.815  11.393  68.580  1.00  0.00    -0.093 P  
HETATM   38  O   UNL     1      -5.714  10.421  68.132  1.00  0.00    -0.041 OA 
HETATM   39  O   UNL     1      -7.405  12.438  67.635  1.00  0.00    -0.109 OA 
BRANCH  37  40
HETATM   40  O   UNL     1      -5.570  12.534  68.954  1.00  0.00    -0.061 OA 
BRANCH  40  41
HETATM   41  C   UNL     1      -5.662  13.665  68.108  1.00  0.00    -0.116 C  
BRANCH  41  42
HETATM   42  C   UNL     1      -5.155  14.893  68.844  1.00  0.00    -0.092 C  
BRANCH  42  43
HETATM   43  N   UNL     1      -6.171  16.055  68.960  1.00  0.00    -0.129 N  
HETATM   44  C   UNL     1      -6.290  16.705  67.598  1.00  0.00    -0.153 C  
HETATM   45  C   UNL     1      -5.685  17.103  69.973  1.00  0.00    -0.232 C  
HETATM   46  C   UNL     1      -7.528  15.546  69.423  1.00  0.00    -0.219 C  
ENDBRANCH  42  43
ENDBRANCH  41  42
ENDBRANCH  40  41
ENDBRANCH  37  40
ENDBRANCH  36  37
ENDBRANCH  35  36
ENDBRANCH  18  35
ENDBRANCH  17  18
ENDBRANCH  16  17
ENDBRANCH  14  16
ENDBRANCH  13  14
ENDBRANCH  12  13
ENDBRANCH  11  12
ENDBRANCH  10  11
ENDBRANCH   9  10
ENDBRANCH   8   9
ENDBRANCH   7   8
ENDBRANCH   6   7
ENDBRANCH   5   6
ENDBRANCH   4   5
ENDBRANCH   3   4
ENDBRANCH   2   3
TORSDOF 36
ENDMDL
MODEL       29
REMARK 921   NORMALIZED FREE ENERGY PREDICTED BY IDOCK:   -3.41 KCAL/MOL
REMARK 922        TOTAL FREE ENERGY PREDICTED BY IDOCK:  -16.08 KCAL/MOL
REMARK 923 INTER-LIGAND FREE ENERGY PREDICTED BY IDOCK:   -9.42 KCAL/MOL
REMARK 924 INTRA-LIGAND FREE ENERGY PREDICTED BY IDOCK:   -6.66 KCAL/MOL
REMARK 927      BINDING AFFINITY PREDICTED BY RF-SCORE:    0.00 PKD
ROOT
HETATM    1  C   UNL     1     -12.249  14.243  66.658  1.00  0.00    -0.411 C  
HETATM    2  C   UNL     1     -12.009  13.978  65.181  1.00  0.00    -0.392 C  
ENDROOT
BRANCH   2   3
HETATM    3  C   UNL     1     -12.659  12.668  64.740  1.00  0.00    -0.530 C  
BRANCH   3   4
HETATM    4  C   UNL     1     -12.032  12.143  63.450  1.00  0.00    -0.578 C  
BRANCH   4   5
HETATM    5  C   UNL     1     -10.557  12.535  63.360  1.00  0.00    -0.294 C  
BRANCH   5   6
HETATM    6  C   UNL     1      -9.676  11.318  63.087  1.00  0.00    -0.408 C  
BRANCH   6   7
HETATM    7  C   UNL     1      -9.793  10.293  64.215  1.00  0.00    -0.357 C  
BRANCH   7   8
HETATM    8  C   UNL     1      -9.061  10.773  65.469  1.00  0.00    -0.220 C  
BRANCH   8   9
HETATM    9  C   UNL     1      -9.962  10.688  66.701  1.00  0.00    -0.259 C  
BRANCH   9  10
HETATM   10  C   UNL     1      -9.620  11.791  67.699  1.00  0.00    -0.184 C  
BRANCH  10  11
HETATM   11  C   UNL     1      -8.922  12.965  67.014  1.00  0.00    -0.225 C  
BRANCH  11  12
HETATM   12  C   UNL     1      -8.033  13.725  68.002  1.00  0.00    -0.156 C  
BRANCH  12  13
HETATM   13  C   UNL     1      -6.547  13.449  67.787  1.00  0.00    -0.168 C  
BRANCH  13  14
HETATM   14  C   UNL     1      -5.922  12.758  68.971  1.00  0.00    -0.084 C  
HETATM   15  O   UNL     1      -6.089  13.100  70.134  1.00  0.00    -0.144 OA 
BRANCH  14  16
HETATM   16  O   UNL     1      -5.195  11.686  68.557  1.00  0.00    -0.043 OA 
BRANCH  16  17
HETATM   17  C   UNL     1      -5.747  10.966  67.445  1.00  0.00    -0.046 C  
BRANCH  17  18
HETATM   18  C   UNL     1      -6.417   9.670  67.901  1.00  0.00    -0.061 C  
BRANCH  18  19
HETATM   19  O   UNL     1      -6.004   9.353  69.248  1.00  0.00    -0.037 OA 
BRANCH  19  20
HETATM   20  C   UNL     1      -6.979   9.438  70.187  1.00  0.00    -0.077 C  
HETATM   21  O   UNL     1      -6.821   9.790  71.347  1.00  0.00    -0.326 OA 
BRANCH  20  22
HETATM   22  C   UNL     1      -8.304   9.044  69.580  1.00  0.00    -0.125 C  
BRANCH  22  23
HETATM   23  C   UNL     1      -9.440   9.463  70.510  1.00  0.00    -0.327 C  
BRANCH  23  24
HETATM   24  C   UNL     1     -10.796   8.960  70.023  1.00  0.00    -0.239 C  
BRANCH  24  25
HETATM   25  C   UNL     1     -10.631   7.670  69.220  1.00  0.00    -0.206 C  
BRANCH  25  26
HETATM   26  C   UNL     1     -11.392   6.511  69.857  1.00  0.00    -0.469 C  
BRANCH  26  27
HETATM   27  C   UNL     1     -12.327   7.008  70.959  1.00  0.00    -0.402 C  
BRANCH  27  28
HETATM   28  C   UNL     1     -11.985   6.363  72.301  1.00  0.00    -0.289 C  
BRANCH  28  29
HETATM   29  C   UNL     1     -11.035   7.242  73.114  1.00  0.00    -0.384 C  
BRANCH  29  30
HETATM   30  C   UNL     1      -9.856   6.427  73.644  1.00  0.00    -0.213 C  
BRANCH  30  31
HETATM   31  C   UNL     1      -8.537   6.892  73.027  1.00  0.00    -0.134 C  
BRANCH  31  32
HETATM   32  C   UNL     1      -8.244   6.138  71.730  1.00  0.00    -0.114 C  
BRANCH  32  33
HETATM   33  C   UNL     1      -8.707   4.684  71.816  1.00  0.00    -0.134 C  
HETATM   34  C   UNL     1      -8.873   4.076  70.433  1.00  0.00    -0.137 C  
ENDBRANCH  32  33
ENDBRANCH  31  32
ENDBRANCH  30  31
ENDBRANCH  29  30
ENDBRANCH  28  29
ENDBRANCH  27  28
ENDBRANCH  26  27
ENDBRANCH  25  26
ENDBRANCH  24  25
ENDBRANCH  23  24
ENDBRANCH  22  23
ENDBRANCH  20  22
ENDBRANCH  19  20
ENDBRANCH  18  19
BRANCH  18  35
HETATM   35  C   UNL     1      -5.942   8.526  67.020  1.00  0.00    -0.053 C  
BRANCH  35  36
HETATM   36  O   UNL     1      -6.885   7.445  67.052  1.00  0.00    -0.069 OA 
BRANCH  36  37
HETATM   37  P   UNL     1      -6.968   6.601  65.544  1.00  0.00    -0.062 P  
HETATM   38  O   UNL     1      -8.335   7.217  65.212  1.00  0.00    -0.136 OA 
HETATM   39  O   UNL     1      -5.660   7.223  65.054  1.00  0.00    -0.032 OA 
BRANCH  37  40
HETATM   40  O   UNL     1      -7.051   5.758  64.035  1.00  0.00    -0.049 OA 
BRANCH  40  41
HETATM   41  C   UNL     1      -8.396   5.465  63.703  1.00  0.00    -0.097 C  
BRANCH  41  42
HETATM   42  C   UNL     1      -8.541   3.976  63.438  1.00  0.00    -0.100 C  
BRANCH  42  43
HETATM   43  N   UNL     1      -9.743   3.299  64.141  1.00  0.00    -0.149 N  
HETATM   44  C   UNL     1      -9.288   1.941  64.630  1.00  0.00    -0.118 C  
HETATM   45  C   UNL     1     -10.910   3.112  63.159  1.00  0.00    -0.196 C  
HETATM   46  C   UNL     1     -10.237   4.143  65.306  1.00  0.00    -0.191 C  
ENDBRANCH  42  43
ENDBRANCH  41  42
ENDBRANCH  40  41
ENDBRANCH  37  40
ENDBRANCH  36  37
ENDBRANCH  35  36
ENDBRANCH  18  35
ENDBRANCH  17  18
ENDBRANCH  16  17
ENDBRANCH  14  16
ENDBRANCH  13  14
ENDBRANCH  12  13
ENDBRANCH  11  12
ENDBRANCH  10  11
ENDBRANCH   9  10
ENDBRANCH   8   9
ENDBRANCH   7   8
ENDBRANCH   6   7
ENDBRANCH   5   6
ENDBRANCH   4   5
ENDBRANCH   3   4
ENDBRANCH   2   3
TORSDOF 36
ENDMDL
MODEL       30
REMARK 921   NORMALIZED FREE ENERGY PREDICTED BY IDOCK:   -3.41 KCAL/MOL
REMARK 922        TOTAL FREE ENERGY PREDICTED BY IDOCK:  -16.08 KCAL/MOL
REMARK 923 INTER-LIGAND FREE ENERGY PREDICTED BY IDOCK:  -11.81 KCAL/MOL
REMARK 924 INTRA-LIGAND FREE ENERGY PREDICTED BY IDOCK:   -4.27 KCAL/MOL
REMARK 927      BINDING AFFINITY PREDICTED BY RF-SCORE:    0.00 PKD
ROOT
HETATM    1  C   UNL     1     -12.088  11.097  69.685  1.00  0.00    -0.406 C  
HETATM    2  C   UNL     1     -12.681  10.331  70.855  1.00  0.00    -0.462 C  
ENDROOT
BRANCH   2   3
HETATM    3  C   UNL     1     -13.156  11.279  71.954  1.00  0.00    -0.510 C  
BRANCH   3   4
HETATM    4  C   UNL     1     -13.011  12.740  71.530  1.00  0.00    -0.388 C  
BRANCH   4   5
HETATM    5  C   UNL     1     -13.820  13.658  72.445  1.00  0.00    -0.691 C  
BRANCH   5   6
HETATM    6  C   UNL     1     -13.759  15.108  71.969  1.00  0.00    -0.576 C  
BRANCH   6   7
HETATM    7  C   UNL     1     -12.967  15.223  70.667  1.00  0.00    -0.442 C  
BRANCH   7   8
HETATM    8  C   UNL     1     -11.654  15.974  70.888  1.00  0.00    -0.453 C  
BRANCH   8   9
HETATM    9  C   UNL     1     -10.913  16.193  69.570  1.00  0.00    -0.341 C  
BRANCH   9  10
HETATM   10  C   UNL     1      -9.779  15.183  69.413  1.00  0.00    -0.206 C  
BRANCH  10  11
HETATM   11  C   UNL     1      -8.678  15.719  68.498  1.00  0.00    -0.184 C  
BRANCH  11  12
HETATM   12  C   UNL     1      -7.292  15.406  69.069  1.00  0.00    -0.159 C  
BRANCH  12  13
HETATM   13  C   UNL     1      -6.946  13.921  68.989  1.00  0.00    -0.109 C  
BRANCH  13  14
HETATM   14  C   UNL     1      -6.143  13.462  70.178  1.00  0.00    -0.112 C  
HETATM   15  O   UNL     1      -5.506  14.210  70.908  1.00  0.00    -0.128 OA 
BRANCH  14  16
HETATM   16  O   UNL     1      -6.272  12.118  70.339  1.00  0.00    -0.169 OA 
BRANCH  16  17
HETATM   17  C   UNL     1      -6.654  11.394  69.160  1.00  0.00    -0.095 C  
BRANCH  17  18
HETATM   18  C   UNL     1      -7.811  10.437  69.447  1.00  0.00    -0.161 C  
BRANCH  18  19
HETATM   19  O   UNL     1      -7.306   9.093  69.602  1.00  0.00    -0.060 OA 
BRANCH  19  20
HETATM   20  C   UNL     1      -7.674   8.466  70.747  1.00  0.00    -0.083 C  
HETATM   21  O   UNL     1      -8.046   9.017  71.773  1.00  0.00    -0.348 OA 
BRANCH  20  22
HETATM   22  C   UNL     1      -7.574   6.971  70.562  1.00  0.00    -0.090 C  
BRANCH  22  23
HETATM   23  C   UNL     1      -8.383   6.549  69.339  1.00  0.00    -0.123 C  
BRANCH  23  24
HETATM   24  C   UNL     1      -7.980   5.166  68.832  1.00  0.00    -0.085 C  
BRANCH  24  25
HETATM   25  C   UNL     1      -7.725   4.220  70.005  1.00  0.00    -0.052 C  
BRANCH  25  26
HETATM   26  C   UNL     1      -8.711   3.054  70.009  1.00  0.00    -0.129 C  
BRANCH  26  27
HETATM   27  C   UNL     1      -8.517   2.175  71.244  1.00  0.00    -0.085 C  
BRANCH  27  28
HETATM   28  C   UNL     1      -9.861   1.771  71.846  1.00  0.00    -0.208 C  
BRANCH  28  29
HETATM   29  C   UNL     1     -10.033   2.341  73.253  1.00  0.00    -0.172 C  
BRANCH  29  30
HETATM   30  C   UNL     1     -11.336   3.134  73.365  1.00  0.00    -0.206 C  
BRANCH  30  31
HETATM   31  C   UNL     1     -11.077   4.568  73.823  1.00  0.00    -0.330 C  
BRANCH  31  32
HETATM   32  C   UNL     1     -10.156   5.297  72.844  1.00  0.00    -0.203 C  
BRANCH  32  33
HETATM   33  C   UNL     1     -10.912   6.374  72.067  1.00  0.00    -0.289 C  
HETATM   34  C   UNL     1     -11.071   7.640  72.894  1.00  0.00    -0.448 C  
ENDBRANCH  32  33
ENDBRANCH  31  32
ENDBRANCH  30  31
ENDBRANCH  29  30
ENDBRANCH  28  29
ENDBRANCH  27  28
ENDBRANCH  26  27
ENDBRANCH  25  26
ENDBRANCH  24  25
ENDBRANCH  23  24
ENDBRANCH  22  23
ENDBRANCH  20  22
ENDBRANCH  19  20
ENDBRANCH  18  19
BRANCH  18  35
HETATM   35  C   UNL     1      -8.748  10.415  68.251  1.00  0.00    -0.128 C  
BRANCH  35  36
HETATM   36  O   UNL     1      -8.284   9.479  67.269  1.00  0.00    -0.113 OA 
BRANCH  36  37
HETATM   37  P   UNL     1      -8.479  10.070  65.655  1.00  0.00    -0.164 P  
HETATM   38  O   UNL     1      -9.877   9.447  65.537  1.00  0.00    -0.290 OA 
HETATM   39  O   UNL     1      -8.274  11.519  66.095  1.00  0.00    -0.107 OA 
BRANCH  37  40
HETATM   40  O   UNL     1      -8.675  10.662  64.040  1.00  0.00    -0.177 OA 
BRANCH  40  41
HETATM   41  C   UNL     1     -10.044  10.871  63.750  1.00  0.00    -0.353 C  
BRANCH  41  42
HETATM   42  C   UNL     1     -10.351  12.359  63.792  1.00  0.00    -0.425 C  
BRANCH  42  43
HETATM   43  N   UNL     1     -11.751  12.724  64.341  1.00  0.00    -0.345 N  
HETATM   44  C   UNL     1     -12.775  11.913  63.576  1.00  0.00    -0.405 C  
HETATM   45  C   UNL     1     -12.042  14.218  64.134  1.00  0.00    -0.393 C  
HETATM   46  C   UNL     1     -11.846  12.427  65.830  1.00  0.00    -0.406 C  
ENDBRANCH  42  43
ENDBRANCH  41  42
ENDBRANCH  40  41
ENDBRANCH  37  40
ENDBRANCH  36  37
ENDBRANCH  35  36
ENDBRANCH  18  35
ENDBRANCH  17  18
ENDBRANCH  16  17
ENDBRANCH  14  16
ENDBRANCH  13  14
ENDBRANCH  12  13
ENDBRANCH  11  12
ENDBRANCH  10  11
ENDBRANCH   9  10
ENDBRANCH   8   9
ENDBRANCH   7   8
ENDBRANCH   6   7
ENDBRANCH   5   6
ENDBRANCH   4   5
ENDBRANCH   3   4
ENDBRANCH   2   3
TORSDOF 36
ENDMDL
MODEL       31
REMARK 921   NORMALIZED FREE ENERGY PREDICTED BY IDOCK:   -3.39 KCAL/MOL
REMARK 922        TOTAL FREE ENERGY PREDICTED BY IDOCK:  -16.02 KCAL/MOL
REMARK 923 INTER-LIGAND FREE ENERGY PREDICTED BY IDOCK:  -12.45 KCAL/MOL
REMARK 924 INTRA-LIGAND FREE ENERGY PREDICTED BY IDOCK:   -3.56 KCAL/MOL
REMARK 927      BINDING AFFINITY PREDICTED BY RF-SCORE:    0.00 PKD
ROOT
HETATM    1  C   UNL     1      -8.707   8.334  72.273  1.00  0.00    -0.264 C  
HETATM    2  C   UNL     1      -8.044   7.298  73.165  1.00  0.00    -0.123 C  
ENDROOT
BRANCH   2   3
HETATM    3  C   UNL     1      -8.237   5.887  72.614  1.00  0.00    -0.112 C  
BRANCH   3   4
HETATM    4  C   UNL     1      -9.262   5.868  71.482  1.00  0.00    -0.157 C  
BRANCH   4   5
HETATM    5  C   UNL     1     -10.402   4.899  71.793  1.00  0.00    -0.249 C  
BRANCH   5   6
HETATM    6  C   UNL     1     -11.534   5.597  72.543  1.00  0.00    -0.335 C  
BRANCH   6   7
HETATM    7  C   UNL     1     -12.038   6.813  71.764  1.00  0.00    -0.393 C  
BRANCH   7   8
HETATM    8  C   UNL     1     -12.318   7.987  72.703  1.00  0.00    -0.165 C  
BRANCH   8   9
HETATM    9  C   UNL     1     -13.536   8.785  72.241  1.00  0.00    -0.478 C  
BRANCH   9  10
HETATM   10  C   UNL     1     -13.160  10.240  71.973  1.00  0.00    -0.529 C  
BRANCH  10  11
HETATM   11  C   UNL     1     -12.823  10.467  70.500  1.00  0.00    -0.326 C  
BRANCH  11  12
HETATM   12  C   UNL     1     -11.346  10.169  70.226  1.00  0.00    -0.387 C  
BRANCH  12  13
HETATM   13  C   UNL     1     -10.736  11.123  69.202  1.00  0.00    -0.262 C  
BRANCH  13  14
HETATM   14  C   UNL     1     -11.288  10.898  67.818  1.00  0.00    -0.292 C  
HETATM   15  O   UNL     1     -12.125  11.616  67.287  1.00  0.00    -0.595 OA 
BRANCH  14  16
HETATM   16  O   UNL     1     -10.688   9.821  67.244  1.00  0.00    -0.264 OA 
BRANCH  16  17
HETATM   17  C   UNL     1     -10.383   9.961  65.849  1.00  0.00    -0.113 C  
BRANCH  17  18
HETATM   18  C   UNL     1      -9.275  10.990  65.625  1.00  0.00    -0.210 C  
BRANCH  18  19
HETATM   19  O   UNL     1      -9.727  12.002  64.699  1.00  0.00    -0.196 OA 
BRANCH  19  20
HETATM   20  C   UNL     1     -10.500  11.550  63.681  1.00  0.00    -0.427 C  
HETATM   21  O   UNL     1     -10.107  10.901  62.723  1.00  0.00    -0.224 OA 
BRANCH  20  22
HETATM   22  C   UNL     1     -11.935  11.957  63.914  1.00  0.00    -0.503 C  
BRANCH  22  23
HETATM   23  C   UNL     1     -12.141  13.399  63.459  1.00  0.00    -0.497 C  
BRANCH  23  24
HETATM   24  C   UNL     1     -12.354  14.348  64.635  1.00  0.00    -0.435 C  
BRANCH  24  25
HETATM   25  C   UNL     1     -11.341  15.492  64.590  1.00  0.00    -0.363 C  
BRANCH  25  26
HETATM   26  C   UNL     1     -10.099  15.173  65.417  1.00  0.00    -0.384 C  
BRANCH  26  27
HETATM   27  C   UNL     1     -10.468  14.420  66.694  1.00  0.00    -0.274 C  
BRANCH  27  28
HETATM   28  C   UNL     1     -11.090  15.360  67.726  1.00  0.00    -0.320 C  
BRANCH  28  29
HETATM   29  C   UNL     1     -10.025  15.964  68.639  1.00  0.00    -0.214 C  
BRANCH  29  30
HETATM   30  C   UNL     1     -10.389  17.396  69.029  1.00  0.00    -0.319 C  
BRANCH  30  31
HETATM   31  C   UNL     1      -9.737  18.410  68.089  1.00  0.00    -0.352 C  
BRANCH  31  32
HETATM   32  C   UNL     1     -10.777  19.051  67.169  1.00  0.00    -0.541 C  
BRANCH  32  33
HETATM   33  C   UNL     1     -10.125  20.020  66.185  1.00  0.00    -0.588 C  
HETATM   34  C   UNL     1      -8.653  19.694  65.982  1.00  0.00    -0.274 C  
ENDBRANCH  32  33
ENDBRANCH  31  32
ENDBRANCH  30  31
ENDBRANCH  29  30
ENDBRANCH  28  29
ENDBRANCH  27  28
ENDBRANCH  26  27
ENDBRANCH  25  26
ENDBRANCH  24  25
ENDBRANCH  23  24
ENDBRANCH  22  23
ENDBRANCH  20  22
ENDBRANCH  19  20
ENDBRANCH  18  19
BRANCH  18  35
HETATM   35  C   UNL     1      -8.083  10.306  64.975  1.00  0.00    -0.146 C  
BRANCH  35  36
HETATM   36  O   UNL     1      -7.045  10.087  65.940  1.00  0.00    -0.101 OA 
BRANCH  36  37
HETATM   37  P   UNL     1      -6.767   8.405  66.236  1.00  0.00    -0.066 P  
HETATM   38  O   UNL     1      -7.493   8.466  67.587  1.00  0.00    -0.091 OA 
HETATM   39  O   UNL     1      -7.484   7.998  64.949  1.00  0.00    -0.079 OA 
BRANCH  37  40
HETATM   40  O   UNL     1      -6.489   6.723  66.532  1.00  0.00    -0.041 OA 
BRANCH  40  41
HETATM   41  C   UNL     1      -7.518   5.940  65.955  1.00  0.00    -0.085 C  
BRANCH  41  42
HETATM   42  C   UNL     1      -7.480   4.540  66.542  1.00  0.00    -0.082 C  
BRANCH  42  43
HETATM   43  N   UNL     1      -8.865   3.926  66.863  1.00  0.00    -0.119 N  
HETATM   44  C   UNL     1      -9.773   4.188  65.681  1.00  0.00    -0.204 C  
HETATM   45  C   UNL     1      -9.471   4.580  68.114  1.00  0.00    -0.149 C  
HETATM   46  C   UNL     1      -8.750   2.431  67.121  1.00  0.00    -0.123 C  
ENDBRANCH  42  43
ENDBRANCH  41  42
ENDBRANCH  40  41
ENDBRANCH  37  40
ENDBRANCH  36  37
ENDBRANCH  35  36
ENDBRANCH  18  35
ENDBRANCH  17  18
ENDBRANCH  16  17
ENDBRANCH  14  16
ENDBRANCH  13  14
ENDBRANCH  12  13
ENDBRANCH  11  12
ENDBRANCH  10  11
ENDBRANCH   9  10
ENDBRANCH   8   9
ENDBRANCH   7   8
ENDBRANCH   6   7
ENDBRANCH   5   6
ENDBRANCH   4   5
ENDBRANCH   3   4
ENDBRANCH   2   3
TORSDOF 36
ENDMDL
MODEL       32
REMARK 921   NORMALIZED FREE ENERGY PREDICTED BY IDOCK:   -3.35 KCAL/MOL
REMARK 922        TOTAL FREE ENERGY PREDICTED BY IDOCK:  -15.89 KCAL/MOL
REMARK 923 INTER-LIGAND FREE ENERGY PREDICTED BY IDOCK:  -11.31 KCAL/MOL
REMARK 924 INTRA-LIGAND FREE ENERGY PREDICTED BY IDOCK:   -4.58 KCAL/MOL
REMARK 927      BINDING AFFINITY PREDICTED BY RF-SCORE:    0.00 PKD
ROOT
HETATM    1  C   UNL     1      -9.371   3.800  66.497  1.00  0.00    -0.204 C  
HETATM    2  C   UNL     1     -10.343   4.811  65.910  1.00  0.00    -0.303 C  
ENDROOT
BRANCH   2   3
HETATM    3  C   UNL     1     -10.116   6.203  66.496  1.00  0.00    -0.179 C  
BRANCH   3   4
HETATM    4  C   UNL     1      -9.591   6.125  67.928  1.00  0.00    -0.118 C  
BRANCH   4   5
HETATM    5  C   UNL     1      -9.003   7.465  68.370  1.00  0.00    -0.134 C  
BRANCH   5   6
HETATM    6  C   UNL     1      -7.483   7.390  68.488  1.00  0.00    -0.105 C  
BRANCH   6   7
HETATM    7  C   UNL     1      -6.843   7.082  67.134  1.00  0.00    -0.065 C  
BRANCH   7   8
HETATM    8  C   UNL     1      -6.294   8.353  66.485  1.00  0.00    -0.055 C  
BRANCH   8   9
HETATM    9  C   UNL     1      -6.671   8.426  65.007  1.00  0.00    -0.063 C  
BRANCH   9  10
HETATM   10  C   UNL     1      -8.180   8.590  64.840  1.00  0.00    -0.166 C  
BRANCH  10  11
HETATM   11  C   UNL     1      -8.671   9.893  65.469  1.00  0.00    -0.170 C  
BRANCH  11  12
HETATM   12  C   UNL     1     -10.168   9.819  65.781  1.00  0.00    -0.222 C  
BRANCH  12  13
HETATM   13  C   UNL     1     -10.559  10.661  66.994  1.00  0.00    -0.317 C  
BRANCH  13  14
HETATM   14  C   UNL     1     -11.295  11.915  66.599  1.00  0.00    -0.337 C  
HETATM   15  O   UNL     1     -12.129  11.969  65.705  1.00  0.00    -0.536 OA 
BRANCH  14  16
HETATM   16  O   UNL     1     -10.929  12.946  67.406  1.00  0.00    -0.249 OA 
BRANCH  16  17
HETATM   17  C   UNL     1     -10.810  12.621  68.799  1.00  0.00    -0.231 C  
BRANCH  17  18
HETATM   18  C   UNL     1     -11.925  13.273  69.617  1.00  0.00    -0.314 C  
BRANCH  18  19
HETATM   19  O   UNL     1     -11.414  14.440  70.296  1.00  0.00    -0.258 OA 
BRANCH  19  20
HETATM   20  C   UNL     1     -11.178  15.514  69.502  1.00  0.00    -0.299 C  
HETATM   21  O   UNL     1     -11.998  16.054  68.774  1.00  0.00    -0.340 OA 
BRANCH  20  22
HETATM   22  C   UNL     1      -9.745  15.960  69.662  1.00  0.00    -0.210 C  
BRANCH  22  23
HETATM   23  C   UNL     1      -8.940  15.555  68.430  1.00  0.00    -0.189 C  
BRANCH  23  24
HETATM   24  C   UNL     1      -7.638  14.851  68.800  1.00  0.00    -0.135 C  
BRANCH  24  25
HETATM   25  C   UNL     1      -6.541  15.188  67.789  1.00  0.00    -0.186 C  
BRANCH  25  26
HETATM   26  C   UNL     1      -6.280  16.691  67.727  1.00  0.00    -0.159 C  
BRANCH  26  27
HETATM   27  C   UNL     1      -5.368  17.041  66.552  1.00  0.00    -0.116 C  
BRANCH  27  28
HETATM   28  C   UNL     1      -6.019  18.083  65.644  1.00  0.00    -0.226 C  
BRANCH  28  29
HETATM   29  C   UNL     1      -6.293  19.383  66.397  1.00  0.00    -0.193 C  
BRANCH  29  30
HETATM   30  C   UNL     1      -7.708  19.889  66.117  1.00  0.00    -0.339 C  
BRANCH  30  31
HETATM   31  C   UNL     1      -8.751  18.812  66.411  1.00  0.00    -0.294 C  
BRANCH  31  32
HETATM   32  C   UNL     1     -10.166  19.387  66.337  1.00  0.00    -0.556 C  
BRANCH  32  33
HETATM   33  C   UNL     1     -10.910  19.202  67.659  1.00  0.00    -0.467 C  
HETATM   34  C   UNL     1     -10.041  19.603  68.841  1.00  0.00    -0.491 C  
ENDBRANCH  32  33
ENDBRANCH  31  32
ENDBRANCH  30  31
ENDBRANCH  29  30
ENDBRANCH  28  29
ENDBRANCH  27  28
ENDBRANCH  26  27
ENDBRANCH  25  26
ENDBRANCH  24  25
ENDBRANCH  23  24
ENDBRANCH  22  23
ENDBRANCH  20  22
ENDBRANCH  19  20
ENDBRANCH  18  19
BRANCH  18  35
HETATM   35  C   UNL     1     -12.381  12.306  70.697  1.00  0.00    -0.286 C  
BRANCH  35  36
HETATM   36  O   UNL     1     -12.487  10.977  70.166  1.00  0.00    -0.306 OA 
BRANCH  36  37
HETATM   37  P   UNL     1     -12.346   9.766  71.395  1.00  0.00    -0.438 P  
HETATM   38  O   UNL     1     -13.866   9.727  71.607  1.00  0.00    -0.246 OA 
HETATM   39  O   UNL     1     -11.635   8.800  70.447  1.00  0.00    -0.213 OA 
BRANCH  37  40
HETATM   40  O   UNL     1     -12.206   8.556  72.623  1.00  0.00    -0.379 OA 
BRANCH  40  41
HETATM   41  C   UNL     1     -10.885   8.048  72.673  1.00  0.00    -0.368 C  
BRANCH  41  42
HETATM   42  C   UNL     1     -10.924   6.559  72.969  1.00  0.00    -0.239 C  
BRANCH  42  43
HETATM   43  N   UNL     1      -9.730   5.748  72.409  1.00  0.00    -0.159 N  
HETATM   44  C   UNL     1      -9.251   4.816  73.501  1.00  0.00    -0.119 C  
HETATM   45  C   UNL     1      -8.578   6.683  72.010  1.00  0.00    -0.123 C  
HETATM   46  C   UNL     1     -10.141   4.955  71.178  1.00  0.00    -0.207 C  
ENDBRANCH  42  43
ENDBRANCH  41  42
ENDBRANCH  40  41
ENDBRANCH  37  40
ENDBRANCH  36  37
ENDBRANCH  35  36
ENDBRANCH  18  35
ENDBRANCH  17  18
ENDBRANCH  16  17
ENDBRANCH  14  16
ENDBRANCH  13  14
ENDBRANCH  12  13
ENDBRANCH  11  12
ENDBRANCH  10  11
ENDBRANCH   9  10
ENDBRANCH   8   9
ENDBRANCH   7   8
ENDBRANCH   6   7
ENDBRANCH   5   6
ENDBRANCH   4   5
ENDBRANCH   3   4
ENDBRANCH   2   3
TORSDOF 36
ENDMDL
MODEL       33
REMARK 921   NORMALIZED FREE ENERGY PREDICTED BY IDOCK:   -3.31 KCAL/MOL
REMARK 922        TOTAL FREE ENERGY PREDICTED BY IDOCK:  -15.78 KCAL/MOL
REMARK 923 INTER-LIGAND FREE ENERGY PREDICTED BY IDOCK:   -9.77 KCAL/MOL
REMARK 924 INTRA-LIGAND FREE ENERGY PREDICTED BY IDOCK:   -6.01 KCAL/MOL
REMARK 927      BINDING AFFINITY PREDICTED BY RF-SCORE:    0.00 PKD
ROOT
HETATM    1  C   UNL     1     -12.133  14.484  64.472  1.00  0.00    -0.501 C  
HETATM    2  C   UNL     1     -10.651  14.265  64.726  1.00  0.00    -0.434 C  
ENDROOT
BRANCH   2   3
HETATM    3  C   UNL     1     -10.422  13.129  65.721  1.00  0.00    -0.291 C  
BRANCH   3   4
HETATM    4  C   UNL     1     -11.717  12.744  66.433  1.00  0.00    -0.464 C  
BRANCH   4   5
HETATM    5  C   UNL     1     -11.608  12.991  67.938  1.00  0.00    -0.385 C  
BRANCH   5   6
HETATM    6  C   UNL     1     -11.956  14.435  68.288  1.00  0.00    -0.323 C  
BRANCH   6   7
HETATM    7  C   UNL     1     -11.136  14.921  69.483  1.00  0.00    -0.301 C  
BRANCH   7   8
HETATM    8  C   UNL     1     -10.454  16.255  69.174  1.00  0.00    -0.280 C  
BRANCH   8   9
HETATM    9  C   UNL     1     -10.653  16.650  67.711  1.00  0.00    -0.342 C  
BRANCH   9  10
HETATM   10  C   UNL     1      -9.308  16.893  67.029  1.00  0.00    -0.245 C  
BRANCH  10  11
HETATM   11  C   UNL     1      -8.147  16.422  67.903  1.00  0.00    -0.164 C  
BRANCH  11  12
HETATM   12  C   UNL     1      -7.466  15.195  67.291  1.00  0.00    -0.228 C  
BRANCH  12  13
HETATM   13  C   UNL     1      -7.696  13.926  68.109  1.00  0.00    -0.142 C  
BRANCH  13  14
HETATM   14  C   UNL     1      -6.729  12.831  67.740  1.00  0.00    -0.134 C  
HETATM   15  O   UNL     1      -5.691  13.012  67.116  1.00  0.00    -0.349 OA 
BRANCH  14  16
HETATM   16  O   UNL     1      -7.158  11.641  68.237  1.00  0.00    -0.069 OA 
BRANCH  16  17
HETATM   17  C   UNL     1      -8.561  11.569  68.528  1.00  0.00    -0.140 C  
BRANCH  17  18
HETATM   18  C   UNL     1      -9.024  10.118  68.669  1.00  0.00    -0.136 C  
BRANCH  18  19
HETATM   19  O   UNL     1      -9.978   9.807  67.631  1.00  0.00    -0.159 OA 
BRANCH  19  20
HETATM   20  C   UNL     1      -9.443   9.351  66.471  1.00  0.00    -0.190 C  
HETATM   21  O   UNL     1      -9.625   9.837  65.364  1.00  0.00    -0.255 OA 
BRANCH  20  22
HETATM   22  C   UNL     1      -8.568   8.154  66.751  1.00  0.00    -0.136 C  
BRANCH  22  23
HETATM   23  C   UNL     1      -9.433   6.902  66.877  1.00  0.00    -0.194 C  
BRANCH  23  24
HETATM   24  C   UNL     1      -9.008   5.809  65.900  1.00  0.00    -0.158 C  
BRANCH  24  25
HETATM   25  C   UNL     1      -9.879   4.565  66.078  1.00  0.00    -0.240 C  
BRANCH  25  26
HETATM   26  C   UNL     1      -9.063   3.284  65.927  1.00  0.00    -0.152 C  
BRANCH  26  27
HETATM   27  C   UNL     1      -9.152   2.425  67.187  1.00  0.00    -0.164 C  
BRANCH  27  28
HETATM   28  C   UNL     1      -9.522   3.271  68.403  1.00  0.00    -0.209 C  
BRANCH  28  29
HETATM   29  C   UNL     1      -8.972   2.662  69.692  1.00  0.00    -0.168 C  
BRANCH  29  30
HETATM   30  C   UNL     1      -7.595   2.043  69.459  1.00  0.00    -0.043 C  
BRANCH  30  31
HETATM   31  C   UNL     1      -6.478   3.044  69.754  1.00  0.00    -0.033 C  
BRANCH  31  32
HETATM   32  C   UNL     1      -5.625   3.293  68.510  1.00  0.00    -0.018 C  
BRANCH  32  33
HETATM   33  C   UNL     1      -5.934   4.654  67.889  1.00  0.00    -0.027 C  
HETATM   34  C   UNL     1      -6.541   5.602  68.911  1.00  0.00    -0.048 C  
ENDBRANCH  32  33
ENDBRANCH  31  32
ENDBRANCH  30  31
ENDBRANCH  29  30
ENDBRANCH  28  29
ENDBRANCH  27  28
ENDBRANCH  26  27
ENDBRANCH  25  26
ENDBRANCH  24  25
ENDBRANCH  23  24
ENDBRANCH  22  23
ENDBRANCH  20  22
ENDBRANCH  19  20
ENDBRANCH  18  19
BRANCH  18  35
HETATM   35  C   UNL     1      -9.752   9.954  69.993  1.00  0.00    -0.227 C  
BRANCH  35  36
HETATM   36  O   UNL     1     -10.914   9.129  69.826  1.00  0.00    -0.233 OA 
BRANCH  36  37
HETATM   37  P   UNL     1     -11.376   8.342  71.296  1.00  0.00    -0.292 P  
HETATM   38  O   UNL     1     -12.427   9.417  71.606  1.00  0.00    -0.330 OA 
HETATM   39  O   UNL     1     -11.733   7.049  70.563  1.00  0.00    -0.324 OA 
BRANCH  37  40
HETATM   40  O   UNL     1     -11.839   7.555  72.766  1.00  0.00    -0.233 OA 
BRANCH  40  41
HETATM   41  C   UNL     1     -10.696   7.230  73.537  1.00  0.00    -0.321 C  
BRANCH  41  42
HETATM   42  C   UNL     1     -10.408   5.744  73.416  1.00  0.00    -0.225 C  
BRANCH  42  43
HETATM   43  N   UNL     1      -8.924   5.346  73.606  1.00  0.00    -0.125 N  
HETATM   44  C   UNL     1      -8.267   6.406  74.464  1.00  0.00    -0.129 C  
HETATM   45  C   UNL     1      -8.202   5.282  72.252  1.00  0.00    -0.118 C  
HETATM   46  C   UNL     1      -8.807   3.982  74.269  1.00  0.00    -0.094 C  
ENDBRANCH  42  43
ENDBRANCH  41  42
ENDBRANCH  40  41
ENDBRANCH  37  40
ENDBRANCH  36  37
ENDBRANCH  35  36
ENDBRANCH  18  35
ENDBRANCH  17  18
ENDBRANCH  16  17
ENDBRANCH  14  16
ENDBRANCH  13  14
ENDBRANCH  12  13
ENDBRANCH  11  12
ENDBRANCH  10  11
ENDBRANCH   9  10
ENDBRANCH   8   9
ENDBRANCH   7   8
ENDBRANCH   6   7
ENDBRANCH   5   6
ENDBRANCH   4   5
ENDBRANCH   3   4
ENDBRANCH   2   3
TORSDOF 36
ENDMDL
MODEL       34
REMARK 921   NORMALIZED FREE ENERGY PREDICTED BY IDOCK:   -3.30 KCAL/MOL
REMARK 922        TOTAL FREE ENERGY PREDICTED BY IDOCK:  -15.73 KCAL/MOL
REMARK 923 INTER-LIGAND FREE ENERGY PREDICTED BY IDOCK:  -11.56 KCAL/MOL
REMARK 924 INTRA-LIGAND FREE ENERGY PREDICTED BY IDOCK:   -4.17 KCAL/MOL
REMARK 927      BINDING AFFINITY PREDICTED BY RF-SCORE:    0.00 PKD
ROOT
HETATM    1  C   UNL     1     -10.940   6.184  67.344  1.00  0.00    -0.409 C  
HETATM    2  C   UNL     1     -10.111   6.282  68.613  1.00  0.00    -0.185 C  
ENDROOT
BRANCH   2   3
HETATM    3  C   UNL     1     -10.866   5.717  69.815  1.00  0.00    -0.370 C  
BRANCH   3   4
HETATM    4  C   UNL     1     -11.852   6.736  70.382  1.00  0.00    -0.395 C  
BRANCH   4   5
HETATM    5  C   UNL     1     -11.965   6.601  71.900  1.00  0.00    -0.386 C  
BRANCH   5   6
HETATM    6  C   UNL     1     -11.529   5.215  72.367  1.00  0.00    -0.072 C  
BRANCH   6   7
HETATM    7  C   UNL     1     -10.850   5.287  73.735  1.00  0.00    -0.315 C  
BRANCH   7   8
HETATM    8  C   UNL     1      -9.390   5.719  73.600  1.00  0.00    -0.137 C  
BRANCH   8   9
HETATM    9  C   UNL     1      -9.081   6.913  74.501  1.00  0.00    -0.223 C  
BRANCH   9  10
HETATM   10  C   UNL     1      -8.315   7.988  73.732  1.00  0.00    -0.311 C  
BRANCH  10  11
HETATM   11  C   UNL     1      -8.344   7.724  72.228  1.00  0.00    -0.154 C  
BRANCH  11  12
HETATM   12  C   UNL     1      -9.007   8.885  71.481  1.00  0.00    -0.275 C  
BRANCH  12  13
HETATM   13  C   UNL     1      -8.367   9.150  70.121  1.00  0.00    -0.174 C  
BRANCH  13  14
HETATM   14  C   UNL     1      -9.198  10.080  69.276  1.00  0.00    -0.203 C  
HETATM   15  O   UNL     1     -10.415  10.010  69.169  1.00  0.00    -0.195 OA 
BRANCH  14  16
HETATM   16  O   UNL     1      -8.405  11.022  68.698  1.00  0.00    -0.140 OA 
BRANCH  16  17
HETATM   17  C   UNL     1      -7.349  10.509  67.873  1.00  0.00    -0.089 C  
BRANCH  17  18
HETATM   18  C   UNL     1      -7.512  10.958  66.421  1.00  0.00    -0.145 C  
BRANCH  18  19
HETATM   19  O   UNL     1      -8.808  11.568  66.241  1.00  0.00    -0.194 OA 
BRANCH  19  20
HETATM   20  C   UNL     1      -9.697  10.838  65.522  1.00  0.00    -0.239 C  
HETATM   21  O   UNL     1     -10.255   9.820  65.905  1.00  0.00    -0.259 OA 
BRANCH  20  22
HETATM   22  C   UNL     1      -9.910  11.480  64.173  1.00  0.00    -0.288 C  
BRANCH  22  23
HETATM   23  C   UNL     1     -11.343  11.996  64.070  1.00  0.00    -0.478 C  
BRANCH  23  24
HETATM   24  C   UNL     1     -11.466  13.446  64.528  1.00  0.00    -0.402 C  
BRANCH  24  25
HETATM   25  C   UNL     1     -12.445  13.557  65.697  1.00  0.00    -0.528 C  
BRANCH  25  26
HETATM   26  C   UNL     1     -11.880  14.419  66.822  1.00  0.00    -0.431 C  
BRANCH  26  27
HETATM   27  C   UNL     1     -10.415  14.766  66.565  1.00  0.00    -0.291 C  
BRANCH  27  28
HETATM   28  C   UNL     1      -9.939  15.870  67.508  1.00  0.00    -0.238 C  
BRANCH  28  29
HETATM   29  C   UNL     1     -11.093  16.425  68.341  1.00  0.00    -0.351 C  
BRANCH  29  30
HETATM   30  C   UNL     1     -10.853  16.189  69.832  1.00  0.00    -0.355 C  
BRANCH  30  31
HETATM   31  C   UNL     1     -12.148  15.810  70.550  1.00  0.00    -0.407 C  
BRANCH  31  32
HETATM   32  C   UNL     1     -11.856  15.238  71.937  1.00  0.00    -0.493 C  
BRANCH  32  33
HETATM   33  C   UNL     1     -12.068  16.288  73.027  1.00  0.00    -0.629 C  
HETATM   34  C   UNL     1     -12.637  15.663  74.291  1.00  0.00    -0.732 C  
ENDBRANCH  32  33
ENDBRANCH  31  32
ENDBRANCH  30  31
ENDBRANCH  29  30
ENDBRANCH  28  29
ENDBRANCH  27  28
ENDBRANCH  26  27
ENDBRANCH  25  26
ENDBRANCH  24  25
ENDBRANCH  23  24
ENDBRANCH  22  23
ENDBRANCH  20  22
ENDBRANCH  19  20
ENDBRANCH  18  19
BRANCH  18  35
HETATM   35  C   UNL     1      -7.475   9.738  65.515  1.00  0.00    -0.115 C  
BRANCH  35  36
HETATM   36  O   UNL     1      -6.917   8.615  66.212  1.00  0.00    -0.075 OA 
BRANCH  36  37
HETATM   37  P   UNL     1      -7.561   7.109  65.653  1.00  0.00    -0.105 P  
HETATM   38  O   UNL     1      -8.161   7.768  64.403  1.00  0.00    -0.124 OA 
HETATM   39  O   UNL     1      -6.180   6.454  65.638  1.00  0.00    -0.035 OA 
BRANCH  37  40
HETATM   40  O   UNL     1      -8.205   5.604  65.093  1.00  0.00    -0.124 OA 
BRANCH  40  41
HETATM   41  C   UNL     1      -7.356   4.533  65.462  1.00  0.00    -0.080 C  
BRANCH  41  42
HETATM   42  C   UNL     1      -8.193   3.376  65.981  1.00  0.00    -0.094 C  
BRANCH  42  43
HETATM   43  N   UNL     1      -7.805   2.866  67.389  1.00  0.00    -0.072 N  
HETATM   44  C   UNL     1      -6.669   1.878  67.227  1.00  0.00    -0.038 C  
HETATM   45  C   UNL     1      -8.993   2.156  68.056  1.00  0.00    -0.148 C  
HETATM   46  C   UNL     1      -7.379   4.018  68.287  1.00  0.00    -0.059 C  
ENDBRANCH  42  43
ENDBRANCH  41  42
ENDBRANCH  40  41
ENDBRANCH  37  40
ENDBRANCH  36  37
ENDBRANCH  35  36
ENDBRANCH  18  35
ENDBRANCH  17  18
ENDBRANCH  16  17
ENDBRANCH  14  16
ENDBRANCH  13  14
ENDBRANCH  12  13
ENDBRANCH  11  12
ENDBRANCH  10  11
ENDBRANCH   9  10
ENDBRANCH   8   9
ENDBRANCH   7   8
ENDBRANCH   6   7
ENDBRANCH   5   6
ENDBRANCH   4   5
ENDBRANCH   3   4
ENDBRANCH   2   3
TORSDOF 36
ENDMDL
MODEL       35
REMARK 921   NORMALIZED FREE ENERGY PREDICTED BY IDOCK:   -3.30 KCAL/MOL
REMARK 922        TOTAL FREE ENERGY PREDICTED BY IDOCK:  -15.72 KCAL/MOL
REMARK 923 INTER-LIGAND FREE ENERGY PREDICTED BY IDOCK:  -11.59 KCAL/MOL
REMARK 924 INTRA-LIGAND FREE ENERGY PREDICTED BY IDOCK:   -4.14 KCAL/MOL
REMARK 927      BINDING AFFINITY PREDICTED BY RF-SCORE:    0.00 PKD
ROOT
HETATM    1  C   UNL     1     -14.406   7.295  71.584  1.00  0.00    -0.583 C  
HETATM    2  C   UNL     1     -13.114   8.092  71.658  1.00  0.00    -0.354 C  
ENDROOT
BRANCH   2   3
HETATM    3  C   UNL     1     -13.384   9.553  72.012  1.00  0.00    -0.535 C  
BRANCH   3   4
HETATM    4  C   UNL     1     -12.932  10.489  70.893  1.00  0.00    -0.455 C  
BRANCH   4   5
HETATM    5  C   UNL     1     -12.802  11.925  71.399  1.00  0.00    -0.411 C  
BRANCH   5   6
HETATM    6  C   UNL     1     -12.224  12.842  70.324  1.00  0.00    -0.351 C  
BRANCH   6   7
HETATM    7  C   UNL     1     -12.504  14.310  70.648  1.00  0.00    -0.428 C  
BRANCH   7   8
HETATM    8  C   UNL     1     -11.809  15.234  69.648  1.00  0.00    -0.363 C  
BRANCH   8   9
HETATM    9  C   UNL     1     -10.293  15.217  69.842  1.00  0.00    -0.207 C  
BRANCH   9  10
HETATM   10  C   UNL     1      -9.668  16.513  69.332  1.00  0.00    -0.128 C  
BRANCH  10  11
HETATM   11  C   UNL     1      -8.296  16.262  68.707  1.00  0.00    -0.235 C  
BRANCH  11  12
HETATM   12  C   UNL     1      -7.881  14.797  68.871  1.00  0.00    -0.152 C  
BRANCH  12  13
HETATM   13  C   UNL     1      -7.684  14.089  67.532  1.00  0.00    -0.197 C  
BRANCH  13  14
HETATM   14  C   UNL     1      -8.061  12.632  67.601  1.00  0.00    -0.173 C  
HETATM   15  O   UNL     1      -8.815  12.156  68.439  1.00  0.00    -0.181 OA 
BRANCH  14  16
HETATM   16  O   UNL     1      -7.480  11.950  66.578  1.00  0.00    -0.004 OA 
BRANCH  16  17
HETATM   17  C   UNL     1      -6.765  10.766  66.961  1.00  0.00    -0.090 C  
BRANCH  17  18
HETATM   18  C   UNL     1      -7.548   9.504  66.601  1.00  0.00    -0.097 C  
BRANCH  18  19
HETATM   19  O   UNL     1      -8.646   9.843  65.726  1.00  0.00    -0.132 OA 
BRANCH  19  20
HETATM   20  C   UNL     1      -8.404   9.673  64.402  1.00  0.00    -0.168 C  
HETATM   21  O   UNL     1      -7.378   9.217  63.919  1.00  0.00    -0.095 OA 
BRANCH  20  22
HETATM   22  C   UNL     1      -9.606  10.118  63.605  1.00  0.00    -0.268 C  
BRANCH  22  23
HETATM   23  C   UNL     1      -9.670  11.643  63.579  1.00  0.00    -0.342 C  
BRANCH  23  24
HETATM   24  C   UNL     1     -10.650  12.195  64.610  1.00  0.00    -0.340 C  
BRANCH  24  25
HETATM   25  C   UNL     1     -11.804  12.920  63.917  1.00  0.00    -0.541 C  
BRANCH  25  26
HETATM   26  C   UNL     1     -11.952  14.351  64.425  1.00  0.00    -0.471 C  
BRANCH  26  27
HETATM   27  C   UNL     1     -11.297  14.518  65.796  1.00  0.00    -0.336 C  
BRANCH  27  28
HETATM   28  C   UNL     1     -10.253  15.633  65.772  1.00  0.00    -0.391 C  
BRANCH  28  29
HETATM   29  C   UNL     1     -10.859  16.952  65.295  1.00  0.00    -0.113 C  
BRANCH  29  30
HETATM   30  C   UNL     1     -10.778  18.017  66.387  1.00  0.00    -0.139 C  
BRANCH  30  31
HETATM   31  C   UNL     1      -9.875  19.177  65.968  1.00  0.00    -0.308 C  
BRANCH  31  32
HETATM   32  C   UNL     1      -9.965  20.330  66.967  1.00  0.00    -0.601 C  
BRANCH  32  33
HETATM   33  C   UNL     1      -9.446  19.914  68.343  1.00  0.00    -0.368 C  
HETATM   34  C   UNL     1      -7.933  19.762  68.338  1.00  0.00    -0.315 C  
ENDBRANCH  32  33
ENDBRANCH  31  32
ENDBRANCH  30  31
ENDBRANCH  29  30
ENDBRANCH  28  29
ENDBRANCH  27  28
ENDBRANCH  26  27
ENDBRANCH  25  26
ENDBRANCH  24  25
ENDBRANCH  23  24
ENDBRANCH  22  23
ENDBRANCH  20  22
ENDBRANCH  19  20
ENDBRANCH  18  19
BRANCH  18  35
HETATM   35  C   UNL     1      -8.161   8.921  67.863  1.00  0.00    -0.110 C  
BRANCH  35  36
HETATM   36  O   UNL     1      -9.091   7.880  67.532  1.00  0.00    -0.132 OA 
BRANCH  36  37
HETATM   37  P   UNL     1      -9.775   7.139  68.939  1.00  0.00    -0.150 P  
HETATM   38  O   UNL     1      -8.393   6.961  69.584  1.00  0.00    -0.129 OA 
HETATM   39  O   UNL     1     -10.652   8.357  69.228  1.00  0.00    -0.223 OA 
BRANCH  37  40
HETATM   40  O   UNL     1     -10.459   6.399  70.345  1.00  0.00    -0.200 OA 
BRANCH  40  41
HETATM   41  C   UNL     1      -9.650   5.323  70.783  1.00  0.00    -0.176 C  
BRANCH  41  42
HETATM   42  C   UNL     1      -9.616   5.298  72.302  1.00  0.00    -0.152 C  
BRANCH  42  43
HETATM   43  N   UNL     1      -9.218   3.939  72.927  1.00  0.00    -0.106 N  
HETATM   44  C   UNL     1      -8.765   3.029  71.806  1.00  0.00    -0.074 C  
HETATM   45  C   UNL     1     -10.418   3.296  73.638  1.00  0.00    -0.170 C  
HETATM   46  C   UNL     1      -8.103   4.116  73.947  1.00  0.00    -0.092 C  
ENDBRANCH  42  43
ENDBRANCH  41  42
ENDBRANCH  40  41
ENDBRANCH  37  40
ENDBRANCH  36  37
ENDBRANCH  35  36
ENDBRANCH  18  35
ENDBRANCH  17  18
ENDBRANCH  16  17
ENDBRANCH  14  16
ENDBRANCH  13  14
ENDBRANCH  12  13
ENDBRANCH  11  12
ENDBRANCH  10  11
ENDBRANCH   9  10
ENDBRANCH   8   9
ENDBRANCH   7   8
ENDBRANCH   6   7
ENDBRANCH   5   6
ENDBRANCH   4   5
ENDBRANCH   3   4
ENDBRANCH   2   3
TORSDOF 36
ENDMDL
MODEL       36
REMARK 921   NORMALIZED FREE ENERGY PREDICTED BY IDOCK:   -3.21 KCAL/MOL
REMARK 922        TOTAL FREE ENERGY PREDICTED BY IDOCK:  -15.46 KCAL/MOL
REMARK 923 INTER-LIGAND FREE ENERGY PREDICTED BY IDOCK:   -9.96 KCAL/MOL
REMARK 924 INTRA-LIGAND FREE ENERGY PREDICTED BY IDOCK:   -5.50 KCAL/MOL
REMARK 927      BINDING AFFINITY PREDICTED BY RF-SCORE:    0.00 PKD
ROOT
HETATM    1  C   UNL     1     -10.355  20.141  68.179  1.00  0.00    -0.441 C  
HETATM    2  C   UNL     1     -10.392  19.485  66.810  1.00  0.00    -0.570 C  
ENDROOT
BRANCH   2   3
HETATM    3  C   UNL     1      -9.487  18.255  66.760  1.00  0.00    -0.300 C  
BRANCH   3   4
HETATM    4  C   UNL     1      -9.815  17.278  67.887  1.00  0.00    -0.283 C  
BRANCH   4   5
HETATM    5  C   UNL     1      -8.539  16.688  68.488  1.00  0.00    -0.234 C  
BRANCH   5   6
HETATM    6  C   UNL     1      -8.718  15.210  68.825  1.00  0.00    -0.194 C  
BRANCH   6   7
HETATM    7  C   UNL     1      -8.107  14.323  67.740  1.00  0.00    -0.176 C  
BRANCH   7   8
HETATM    8  C   UNL     1      -9.192  13.544  66.995  1.00  0.00    -0.248 C  
BRANCH   8   9
HETATM    9  C   UNL     1     -10.072  12.757  67.965  1.00  0.00    -0.230 C  
BRANCH   9  10
HETATM   10  C   UNL     1      -9.420  11.424  68.327  1.00  0.00    -0.187 C  
BRANCH  10  11
HETATM   11  C   UNL     1     -10.419  10.477  68.991  1.00  0.00    -0.238 C  
BRANCH  11  12
HETATM   12  C   UNL     1      -9.778   9.749  70.176  1.00  0.00    -0.299 C  
BRANCH  12  13
HETATM   13  C   UNL     1      -8.253   9.744  70.107  1.00  0.00    -0.202 C  
BRANCH  13  14
HETATM   14  C   UNL     1      -7.641   8.881  71.179  1.00  0.00    -0.119 C  
HETATM   15  O   UNL     1      -7.071   9.317  72.171  1.00  0.00    -0.309 OA 
BRANCH  14  16
HETATM   16  O   UNL     1      -7.857   7.567  70.903  1.00  0.00    -0.092 OA 
BRANCH  16  17
HETATM   17  C   UNL     1      -8.396   6.794  71.985  1.00  0.00    -0.111 C  
BRANCH  17  18
HETATM   18  C   UNL     1      -8.979   5.472  71.486  1.00  0.00    -0.136 C  
BRANCH  18  19
HETATM   19  O   UNL     1     -10.413   5.477  71.653  1.00  0.00    -0.218 OA 
BRANCH  19  20
HETATM   20  C   UNL     1     -11.102   6.185  70.724  1.00  0.00    -0.309 C  
HETATM   21  O   UNL     1     -11.803   7.161  70.949  1.00  0.00    -0.317 OA 
BRANCH  20  22
HETATM   22  C   UNL     1     -10.861   5.596  69.355  1.00  0.00    -0.334 C  
BRANCH  22  23
HETATM   23  C   UNL     1     -10.110   6.602  68.487  1.00  0.00    -0.166 C  
BRANCH  23  24
HETATM   24  C   UNL     1     -10.937   7.058  67.288  1.00  0.00    -0.372 C  
BRANCH  24  25
HETATM   25  C   UNL     1     -10.112   7.979  66.388  1.00  0.00    -0.174 C  
BRANCH  25  26
HETATM   26  C   UNL     1      -8.654   8.039  66.835  1.00  0.00    -0.130 C  
BRANCH  26  27
HETATM   27  C   UNL     1      -7.900   9.148  66.101  1.00  0.00    -0.103 C  
BRANCH  27  28
HETATM   28  C   UNL     1      -7.850   8.875  64.599  1.00  0.00    -0.124 C  
BRANCH  28  29
HETATM   29  C   UNL     1      -8.199  10.126  63.795  1.00  0.00    -0.163 C  
BRANCH  29  30
HETATM   30  C   UNL     1      -9.290  10.937  64.493  1.00  0.00    -0.256 C  
BRANCH  30  31
HETATM   31  C   UNL     1     -10.303  11.486  63.490  1.00  0.00    -0.484 C  
BRANCH  31  32
HETATM   32  C   UNL     1     -11.566  11.974  64.199  1.00  0.00    -0.460 C  
BRANCH  32  33
HETATM   33  C   UNL     1     -11.610  13.500  64.269  1.00  0.00    -0.433 C  
HETATM   34  C   UNL     1     -12.550  13.975  65.365  1.00  0.00    -0.529 C  
ENDBRANCH  32  33
ENDBRANCH  31  32
ENDBRANCH  30  31
ENDBRANCH  29  30
ENDBRANCH  28  29
ENDBRANCH  27  28
ENDBRANCH  26  27
ENDBRANCH  25  26
ENDBRANCH  24  25
ENDBRANCH  23  24
ENDBRANCH  22  23
ENDBRANCH  20  22
ENDBRANCH  19  20
ENDBRANCH  18  19
BRANCH  18  35
HETATM   35  C   UNL     1      -8.444   4.336  72.342  1.00  0.00    -0.105 C  
BRANCH  35  36
HETATM   36  O   UNL     1      -8.274   3.152  71.551  1.00  0.00    -0.059 OA 
BRANCH  36  37
HETATM   37  P   UNL     1      -7.718   3.505  69.951  1.00  0.00    -0.046 P  
HETATM   38  O   UNL     1      -6.352   2.859  70.223  1.00  0.00    -0.026 OA 
HETATM   39  O   UNL     1      -8.869   2.726  69.313  1.00  0.00    -0.075 OA 
BRANCH  37  40
HETATM   40  O   UNL     1      -7.162   3.858  68.350  1.00  0.00    -0.054 OA 
BRANCH  40  41
HETATM   41  C   UNL     1      -8.212   3.702  67.414  1.00  0.00    -0.090 C  
BRANCH  41  42
HETATM   42  C   UNL     1      -7.637   3.284  66.071  1.00  0.00    -0.077 C  
BRANCH  42  43
HETATM   43  N   UNL     1      -8.417   3.795  64.836  1.00  0.00    -0.104 N  
HETATM   44  C   UNL     1      -8.245   2.780  63.727  1.00  0.00    -0.082 C  
HETATM   45  C   UNL     1      -7.862   5.148  64.365  1.00  0.00    -0.097 C  
HETATM   46  C   UNL     1      -9.892   3.978  65.162  1.00  0.00    -0.201 C  
ENDBRANCH  42  43
ENDBRANCH  41  42
ENDBRANCH  40  41
ENDBRANCH  37  40
ENDBRANCH  36  37
ENDBRANCH  35  36
ENDBRANCH  18  35
ENDBRANCH  17  18
ENDBRANCH  16  17
ENDBRANCH  14  16
ENDBRANCH  13  14
ENDBRANCH  12  13
ENDBRANCH  11  12
ENDBRANCH  10  11
ENDBRANCH   9  10
ENDBRANCH   8   9
ENDBRANCH   7   8
ENDBRANCH   6   7
ENDBRANCH   5   6
ENDBRANCH   4   5
ENDBRANCH   3   4
ENDBRANCH   2   3
TORSDOF 36
ENDMDL
MODEL       37
REMARK 921   NORMALIZED FREE ENERGY PREDICTED BY IDOCK:   -3.21 KCAL/MOL
REMARK 922        TOTAL FREE ENERGY PREDICTED BY IDOCK:  -15.45 KCAL/MOL
REMARK 923 INTER-LIGAND FREE ENERGY PREDICTED BY IDOCK:   -9.53 KCAL/MOL
REMARK 924 INTRA-LIGAND FREE ENERGY PREDICTED BY IDOCK:   -5.92 KCAL/MOL
REMARK 927      BINDING AFFINITY PREDICTED BY RF-SCORE:    0.00 PKD
ROOT
HETATM    1  C   UNL     1     -12.215  14.391  64.503  1.00  0.00    -0.483 C  
HETATM    2  C   UNL     1     -10.732  14.178  64.757  1.00  0.00    -0.436 C  
ENDROOT
BRANCH   2   3
HETATM    3  C   UNL     1     -10.494  12.988  65.685  1.00  0.00    -0.291 C  
BRANCH   3   4
HETATM    4  C   UNL     1     -11.776  12.583  66.409  1.00  0.00    -0.458 C  
BRANCH   4   5
HETATM    5  C   UNL     1     -11.652  12.818  67.915  1.00  0.00    -0.400 C  
BRANCH   5   6
HETATM    6  C   UNL     1     -11.998  14.260  68.280  1.00  0.00    -0.346 C  
BRANCH   6   7
HETATM    7  C   UNL     1     -11.253  14.698  69.541  1.00  0.00    -0.300 C  
BRANCH   7   8
HETATM    8  C   UNL     1     -10.522  16.022  69.313  1.00  0.00    -0.257 C  
BRANCH   8   9
HETATM    9  C   UNL     1     -10.688  16.503  67.873  1.00  0.00    -0.337 C  
BRANCH   9  10
HETATM   10  C   UNL     1      -9.332  16.604  67.177  1.00  0.00    -0.236 C  
BRANCH  10  11
HETATM   11  C   UNL     1      -8.226  15.970  68.018  1.00  0.00    -0.151 C  
BRANCH  11  12
HETATM   12  C   UNL     1      -7.691  14.700  67.350  1.00  0.00    -0.226 C  
BRANCH  12  13
HETATM   13  C   UNL     1      -7.846  13.463  68.231  1.00  0.00    -0.143 C  
BRANCH  13  14
HETATM   14  C   UNL     1      -7.074  12.285  67.695  1.00  0.00    -0.126 C  
HETATM   15  O   UNL     1      -6.312  12.341  66.739  1.00  0.00    -0.143 OA 
BRANCH  14  16
HETATM   16  O   UNL     1      -7.314  11.183  68.454  1.00  0.00    -0.083 OA 
BRANCH  16  17
HETATM   17  C   UNL     1      -8.634  11.100  69.011  1.00  0.00    -0.024 C  
BRANCH  17  18
HETATM   18  C   UNL     1      -9.141   9.658  69.023  1.00  0.00    -0.148 C  
BRANCH  18  19
HETATM   19  O   UNL     1     -10.156   9.488  68.011  1.00  0.00    -0.170 OA 
BRANCH  19  20
HETATM   20  C   UNL     1      -9.697   9.130  66.786  1.00  0.00    -0.210 C  
HETATM   21  O   UNL     1     -10.083   9.588  65.720  1.00  0.00    -0.288 OA 
BRANCH  20  22
HETATM   22  C   UNL     1      -8.618   8.085  66.932  1.00  0.00    -0.130 C  
BRANCH  22  23
HETATM   23  C   UNL     1      -8.729   7.069  65.798  1.00  0.00    -0.116 C  
BRANCH  23  24
HETATM   24  C   UNL     1      -7.514   7.104  64.875  1.00  0.00    -0.095 C  
BRANCH  24  25
HETATM   25  C   UNL     1      -7.841   6.444  63.535  1.00  0.00    -0.110 C  
BRANCH  25  26
HETATM   26  C   UNL     1      -6.908   5.271  63.246  1.00  0.00    -0.037 C  
BRANCH  26  27
HETATM   27  C   UNL     1      -7.692   3.967  63.104  1.00  0.00    -0.066 C  
BRANCH  27  28
HETATM   28  C   UNL     1      -9.141   4.147  63.553  1.00  0.00    -0.132 C  
BRANCH  28  29
HETATM   29  C   UNL     1      -9.536   3.095  64.587  1.00  0.00    -0.148 C  
BRANCH  29  30
HETATM   30  C   UNL     1      -8.322   2.640  65.396  1.00  0.00    -0.096 C  
BRANCH  30  31
HETATM   31  C   UNL     1      -8.298   3.291  66.778  1.00  0.00    -0.101 C  
BRANCH  31  32
HETATM   32  C   UNL     1      -9.651   3.920  67.110  1.00  0.00    -0.226 C  
BRANCH  32  33
HETATM   33  C   UNL     1      -9.559   4.816  68.344  1.00  0.00    -0.210 C  
HETATM   34  C   UNL     1      -8.128   4.914  68.849  1.00  0.00    -0.083 C  
ENDBRANCH  32  33
ENDBRANCH  31  32
ENDBRANCH  30  31
ENDBRANCH  29  30
ENDBRANCH  28  29
ENDBRANCH  27  28
ENDBRANCH  26  27
ENDBRANCH  25  26
ENDBRANCH  24  25
ENDBRANCH  23  24
ENDBRANCH  22  23
ENDBRANCH  20  22
ENDBRANCH  19  20
ENDBRANCH  18  19
BRANCH  18  35
HETATM   35  C   UNL     1      -9.807   9.374  70.360  1.00  0.00    -0.259 C  
BRANCH  35  36
HETATM   36  O   UNL     1     -11.108   8.805  70.159  1.00  0.00    -0.251 OA 
BRANCH  36  37
HETATM   37  P   UNL     1     -11.408   7.467  71.215  1.00  0.00    -0.284 P  
HETATM   38  O   UNL     1     -12.285   8.322  72.139  1.00  0.00    -0.325 OA 
HETATM   39  O   UNL     1     -12.002   6.628  70.083  1.00  0.00    -0.367 OA 
BRANCH  37  40
HETATM   40  O   UNL     1     -11.708   6.128  72.270  1.00  0.00    -0.309 OA 
BRANCH  40  41
HETATM   41  C   UNL     1     -10.516   5.400  72.500  1.00  0.00    -0.214 C  
BRANCH  41  42
HETATM   42  C   UNL     1      -9.316   6.290  72.230  1.00  0.00    -0.145 C  
BRANCH  42  43
HETATM   43  N   UNL     1      -8.350   6.471  73.426  1.00  0.00    -0.119 N  
HETATM   44  C   UNL     1      -8.455   7.906  73.894  1.00  0.00    -0.259 C  
HETATM   45  C   UNL     1      -6.901   6.188  73.001  1.00  0.00    -0.078 C  
HETATM   46  C   UNL     1      -8.703   5.518  74.558  1.00  0.00    -0.113 C  
ENDBRANCH  42  43
ENDBRANCH  41  42
ENDBRANCH  40  41
ENDBRANCH  37  40
ENDBRANCH  36  37
ENDBRANCH  35  36
ENDBRANCH  18  35
ENDBRANCH  17  18
ENDBRANCH  16  17
ENDBRANCH  14  16
ENDBRANCH  13  14
ENDBRANCH  12  13
ENDBRANCH  11  12
ENDBRANCH  10  11
ENDBRANCH   9  10
ENDBRANCH   8   9
ENDBRANCH   7   8
ENDBRANCH   6   7
ENDBRANCH   5   6
ENDBRANCH   4   5
ENDBRANCH   3   4
ENDBRANCH   2   3
TORSDOF 36
ENDMDL
MODEL       38
REMARK 921   NORMALIZED FREE ENERGY PREDICTED BY IDOCK:   -3.13 KCAL/MOL
REMARK 922        TOTAL FREE ENERGY PREDICTED BY IDOCK:  -15.21 KCAL/MOL
REMARK 923 INTER-LIGAND FREE ENERGY PREDICTED BY IDOCK:  -10.69 KCAL/MOL
REMARK 924 INTRA-LIGAND FREE ENERGY PREDICTED BY IDOCK:   -4.52 KCAL/MOL
REMARK 927      BINDING AFFINITY PREDICTED BY RF-SCORE:    0.00 PKD
ROOT
HETATM    1  C   UNL     1     -12.085  11.091  69.807  1.00  0.00    -0.424 C  
HETATM    2  C   UNL     1     -12.849  11.721  70.958  1.00  0.00    -0.309 C  
ENDROOT
BRANCH   2   3
HETATM    3  C   UNL     1     -12.586  13.223  71.042  1.00  0.00    -0.408 C  
BRANCH   3   4
HETATM    4  C   UNL     1     -12.003  13.759  69.736  1.00  0.00    -0.406 C  
BRANCH   4   5
HETATM    5  C   UNL     1     -11.139  14.994  69.988  1.00  0.00    -0.290 C  
BRANCH   5   6
HETATM    6  C   UNL     1     -11.571  16.163  69.107  1.00  0.00    -0.285 C  
BRANCH   6   7
HETATM    7  C   UNL     1     -10.493  16.500  68.077  1.00  0.00    -0.313 C  
BRANCH   7   8
HETATM    8  C   UNL     1      -9.124  15.993  68.531  1.00  0.00    -0.203 C  
BRANCH   8   9
HETATM    9  C   UNL     1      -7.995  16.771  67.856  1.00  0.00    -0.182 C  
BRANCH   9  10
HETATM   10  C   UNL     1      -6.867  15.832  67.436  1.00  0.00    -0.235 C  
BRANCH  10  11
HETATM   11  C   UNL     1      -5.600  16.083  68.252  1.00  0.00    -0.110 C  
BRANCH  11  12
HETATM   12  C   UNL     1      -5.641  15.315  69.576  1.00  0.00    -0.098 C  
BRANCH  12  13
HETATM   13  C   UNL     1      -5.912  13.825  69.382  1.00  0.00    -0.101 C  
BRANCH  13  14
HETATM   14  C   UNL     1      -5.690  13.040  70.649  1.00  0.00    -0.165 C  
HETATM   15  O   UNL     1      -5.710  13.526  71.772  1.00  0.00    -0.382 OA 
BRANCH  14  16
HETATM   16  O   UNL     1      -5.513  11.723  70.358  1.00  0.00    -0.108 OA 
BRANCH  16  17
HETATM   17  C   UNL     1      -6.300  11.227  69.266  1.00  0.00    -0.081 C  
BRANCH  17  18
HETATM   18  C   UNL     1      -7.502  10.426  69.767  1.00  0.00    -0.149 C  
BRANCH  18  19
HETATM   19  O   UNL     1      -7.087   9.087  70.114  1.00  0.00    -0.043 OA 
BRANCH  19  20
HETATM   20  C   UNL     1      -7.682   8.565  71.215  1.00  0.00    -0.108 C  
HETATM   21  O   UNL     1      -8.360   9.186  72.020  1.00  0.00    -0.321 OA 
BRANCH  20  22
HETATM   22  C   UNL     1      -7.395   7.085  71.293  1.00  0.00    -0.080 C  
BRANCH  22  23
HETATM   23  C   UNL     1      -8.528   6.305  70.631  1.00  0.00    -0.134 C  
BRANCH  23  24
HETATM   24  C   UNL     1      -8.008   5.254  69.654  1.00  0.00    -0.084 C  
BRANCH  24  25
HETATM   25  C   UNL     1      -8.234   3.848  70.211  1.00  0.00    -0.071 C  
BRANCH  25  26
HETATM   26  C   UNL     1      -9.660   3.672  70.726  1.00  0.00    -0.249 C  
BRANCH  26  27
HETATM   27  C   UNL     1      -9.670   3.401  72.230  1.00  0.00    -0.221 C  
BRANCH  27  28
HETATM   28  C   UNL     1     -10.813   4.149  72.914  1.00  0.00    -0.207 C  
BRANCH  28  29
HETATM   29  C   UNL     1     -10.297   5.353  73.701  1.00  0.00    -0.263 C  
BRANCH  29  30
HETATM   30  C   UNL     1     -10.821   6.660  73.107  1.00  0.00    -0.298 C  
BRANCH  30  31
HETATM   31  C   UNL     1     -11.964   6.406  72.126  1.00  0.00    -0.346 C  
BRANCH  31  32
HETATM   32  C   UNL     1     -12.272   7.660  71.308  1.00  0.00    -0.339 C  
BRANCH  32  33
HETATM   33  C   UNL     1     -13.731   8.084  71.469  1.00  0.00    -0.365 C  
HETATM   34  C   UNL     1     -13.908   9.003  72.668  1.00  0.00    -0.414 C  
ENDBRANCH  32  33
ENDBRANCH  31  32
ENDBRANCH  30  31
ENDBRANCH  29  30
ENDBRANCH  28  29
ENDBRANCH  27  28
ENDBRANCH  26  27
ENDBRANCH  25  26
ENDBRANCH  24  25
ENDBRANCH  23  24
ENDBRANCH  22  23
ENDBRANCH  20  22
ENDBRANCH  19  20
ENDBRANCH  18  19
BRANCH  18  35
HETATM   35  C   UNL     1      -8.515  10.291  68.642  1.00  0.00    -0.127 C  
BRANCH  35  36
HETATM   36  O   UNL     1      -8.013   9.419  67.620  1.00  0.00    -0.099 OA 
BRANCH  36  37
HETATM   37  P   UNL     1      -8.565   9.871  66.043  1.00  0.00    -0.145 P  
HETATM   38  O   UNL     1     -10.007   9.456  66.370  1.00  0.00    -0.244 OA 
HETATM   39  O   UNL     1      -8.078  11.308  66.217  1.00  0.00    -0.165 OA 
BRANCH  37  40
HETATM   40  O   UNL     1      -9.118  10.322  64.467  1.00  0.00    -0.193 OA 
BRANCH  40  41
HETATM   41  C   UNL     1     -10.421  10.872  64.535  1.00  0.00    -0.323 C  
BRANCH  41  42
HETATM   42  C   UNL     1     -10.447  12.208  63.812  1.00  0.00    -0.437 C  
BRANCH  42  43
HETATM   43  N   UNL     1     -11.298  13.306  64.494  1.00  0.00    -0.347 N  
HETATM   44  C   UNL     1     -12.187  13.926  63.438  1.00  0.00     0.059 C  
HETATM   45  C   UNL     1     -10.398  14.397  65.093  1.00  0.00    -0.421 C  
HETATM   46  C   UNL     1     -12.141  12.721  65.618  1.00  0.00    -0.459 C  
ENDBRANCH  42  43
ENDBRANCH  41  42
ENDBRANCH  40  41
ENDBRANCH  37  40
ENDBRANCH  36  37
ENDBRANCH  35  36
ENDBRANCH  18  35
ENDBRANCH  17  18
ENDBRANCH  16  17
ENDBRANCH  14  16
ENDBRANCH  13  14
ENDBRANCH  12  13
ENDBRANCH  11  12
ENDBRANCH  10  11
ENDBRANCH   9  10
ENDBRANCH   8   9
ENDBRANCH   7   8
ENDBRANCH   6   7
ENDBRANCH   5   6
ENDBRANCH   4   5
ENDBRANCH   3   4
ENDBRANCH   2   3
TORSDOF 36
ENDMDL
MODEL       39
REMARK 921   NORMALIZED FREE ENERGY PREDICTED BY IDOCK:   -3.12 KCAL/MOL
REMARK 922        TOTAL FREE ENERGY PREDICTED BY IDOCK:  -15.18 KCAL/MOL
REMARK 923 INTER-LIGAND FREE ENERGY PREDICTED BY IDOCK:  -10.71 KCAL/MOL
REMARK 924 INTRA-LIGAND FREE ENERGY PREDICTED BY IDOCK:   -4.47 KCAL/MOL
REMARK 927      BINDING AFFINITY PREDICTED BY RF-SCORE:    0.00 PKD
ROOT
HETATM    1  C   UNL     1     -11.034   6.248  67.601  1.00  0.00    -0.438 C  
HETATM    2  C   UNL     1     -10.689   6.886  68.936  1.00  0.00    -0.254 C  
ENDROOT
BRANCH   2   3
HETATM    3  C   UNL     1     -11.752   6.579  69.988  1.00  0.00    -0.388 C  
BRANCH   3   4
HETATM    4  C   UNL     1     -11.904   7.732  70.979  1.00  0.00    -0.290 C  
BRANCH   4   5
HETATM    5  C   UNL     1     -11.408   7.328  72.367  1.00  0.00    -0.324 C  
BRANCH   5   6
HETATM    6  C   UNL     1     -11.363   5.810  72.520  1.00  0.00    -0.358 C  
BRANCH   6   7
HETATM    7  C   UNL     1     -10.535   5.407  73.740  1.00  0.00    -0.305 C  
BRANCH   7   8
HETATM    8  C   UNL     1      -9.039   5.569  73.464  1.00  0.00    -0.128 C  
BRANCH   8   9
HETATM    9  C   UNL     1      -8.450   6.723  74.275  1.00  0.00    -0.168 C  
BRANCH   9  10
HETATM   10  C   UNL     1      -7.535   7.582  73.407  1.00  0.00    -0.120 C  
BRANCH  10  11
HETATM   11  C   UNL     1      -8.025   7.633  71.961  1.00  0.00    -0.112 C  
BRANCH  11  12
HETATM   12  C   UNL     1      -8.034   9.072  71.437  1.00  0.00    -0.096 C  
BRANCH  12  13
HETATM   13  C   UNL     1      -8.258   9.147  69.928  1.00  0.00    -0.137 C  
BRANCH  13  14
HETATM   14  C   UNL     1      -9.146  10.301  69.544  1.00  0.00    -0.167 C  
HETATM   15  O   UNL     1     -10.292  10.451  69.948  1.00  0.00    -0.244 OA 
BRANCH  14  16
HETATM   16  O   UNL     1      -8.475  11.158  68.730  1.00  0.00    -0.156 OA 
BRANCH  16  17
HETATM   17  C   UNL     1      -7.346  10.594  68.045  1.00  0.00    -0.088 C  
BRANCH  17  18
HETATM   18  C   UNL     1      -7.470  10.772  66.532  1.00  0.00    -0.139 C  
BRANCH  18  19
HETATM   19  O   UNL     1      -8.789  11.260  66.203  1.00  0.00    -0.186 OA 
BRANCH  19  20
HETATM   20  C   UNL     1      -9.614  10.352  65.625  1.00  0.00    -0.226 C  
HETATM   21  O   UNL     1     -10.109   9.383  66.182  1.00  0.00    -0.292 OA 
BRANCH  20  22
HETATM   22  C   UNL     1      -9.848  10.726  64.181  1.00  0.00    -0.384 C  
BRANCH  22  23
HETATM   23  C   UNL     1     -11.218  11.384  64.036  1.00  0.00    -0.350 C  
BRANCH  23  24
HETATM   24  C   UNL     1     -11.183  12.869  64.388  1.00  0.00    -0.389 C  
BRANCH  24  25
HETATM   25  C   UNL     1     -12.489  13.289  65.063  1.00  0.00    -0.498 C  
BRANCH  25  26
HETATM   26  C   UNL     1     -12.229  14.038  66.367  1.00  0.00    -0.492 C  
BRANCH  26  27
HETATM   27  C   UNL     1     -11.425  13.180  67.343  1.00  0.00    -0.375 C  
BRANCH  27  28
HETATM   28  C   UNL     1     -10.710  14.048  68.376  1.00  0.00    -0.261 C  
BRANCH  28  29
HETATM   29  C   UNL     1     -11.030  15.529  68.175  1.00  0.00    -0.312 C  
BRANCH  29  30
HETATM   30  C   UNL     1     -10.069  16.409  68.974  1.00  0.00    -0.262 C  
BRANCH  30  31
HETATM   31  C   UNL     1      -9.371  17.429  68.075  1.00  0.00    -0.276 C  
BRANCH  31  32
HETATM   32  C   UNL     1      -9.746  18.856  68.473  1.00  0.00    -0.441 C  
BRANCH  32  33
HETATM   33  C   UNL     1     -10.768  19.452  67.506  1.00  0.00    -0.570 C  
HETATM   34  C   UNL     1     -10.457  19.065  66.068  1.00  0.00    -0.530 C  
ENDBRANCH  32  33
ENDBRANCH  31  32
ENDBRANCH  30  31
ENDBRANCH  29  30
ENDBRANCH  28  29
ENDBRANCH  27  28
ENDBRANCH  26  27
ENDBRANCH  25  26
ENDBRANCH  24  25
ENDBRANCH  23  24
ENDBRANCH  22  23
ENDBRANCH  20  22
ENDBRANCH  19  20
ENDBRANCH  18  19
BRANCH  18  35
HETATM   35  C   UNL     1      -7.326   9.417  65.858  1.00  0.00    -0.095 C  
BRANCH  35  36
HETATM   36  O   UNL     1      -6.672   8.489  66.734  1.00  0.00    -0.060 OA 
BRANCH  36  37
HETATM   37  P   UNL     1      -7.290   6.882  66.568  1.00  0.00    -0.075 P  
HETATM   38  O   UNL     1      -7.959   7.219  65.228  1.00  0.00    -0.114 OA 
HETATM   39  O   UNL     1      -5.891   6.271  66.642  1.00  0.00    -0.019 OA 
BRANCH  37  40
HETATM   40  O   UNL     1      -7.908   5.274  66.401  1.00  0.00    -0.101 OA 
BRANCH  40  41
HETATM   41  C   UNL     1      -7.198   4.379  67.237  1.00  0.00    -0.069 C  
BRANCH  41  42
HETATM   42  C   UNL     1      -8.179   3.481  67.970  1.00  0.00    -0.083 C  
BRANCH  42  43
HETATM   43  N   UNL     1      -8.073   3.516  69.514  1.00  0.00    -0.053 N  
HETATM   44  C   UNL     1      -7.167   4.668  69.890  1.00  0.00    -0.054 C  
HETATM   45  C   UNL     1      -7.465   2.209  70.045  1.00  0.00    -0.043 C  
HETATM   46  C   UNL     1      -9.444   3.692  70.149  1.00  0.00    -0.187 C  
ENDBRANCH  42  43
ENDBRANCH  41  42
ENDBRANCH  40  41
ENDBRANCH  37  40
ENDBRANCH  36  37
ENDBRANCH  35  36
ENDBRANCH  18  35
ENDBRANCH  17  18
ENDBRANCH  16  17
ENDBRANCH  14  16
ENDBRANCH  13  14
ENDBRANCH  12  13
ENDBRANCH  11  12
ENDBRANCH  10  11
ENDBRANCH   9  10
ENDBRANCH   8   9
ENDBRANCH   7   8
ENDBRANCH   6   7
ENDBRANCH   5   6
ENDBRANCH   4   5
ENDBRANCH   3   4
ENDBRANCH   2   3
TORSDOF 36
ENDMDL
MODEL       40
REMARK 921   NORMALIZED FREE ENERGY PREDICTED BY IDOCK:   -3.06 KCAL/MOL
REMARK 922        TOTAL FREE ENERGY PREDICTED BY IDOCK:  -15.00 KCAL/MOL
REMARK 923 INTER-LIGAND FREE ENERGY PREDICTED BY IDOCK:  -10.48 KCAL/MOL
REMARK 924 INTRA-LIGAND FREE ENERGY PREDICTED BY IDOCK:   -4.52 KCAL/MOL
REMARK 927      BINDING AFFINITY PREDICTED BY RF-SCORE:    0.00 PKD
ROOT
HETATM    1  C   UNL     1      -8.622   7.999  71.946  1.00  0.00    -0.180 C  
HETATM    2  C   UNL     1      -7.697   7.174  71.068  1.00  0.00    -0.090 C  
ENDROOT
BRANCH   2   3
HETATM    3  C   UNL     1      -8.397   5.918  70.553  1.00  0.00    -0.123 C  
BRANCH   3   4
HETATM    4  C   UNL     1      -9.908   6.000  70.756  1.00  0.00    -0.221 C  
BRANCH   4   5
HETATM    5  C   UNL     1     -10.374   4.995  71.809  1.00  0.00    -0.268 C  
BRANCH   5   6
HETATM    6  C   UNL     1     -11.640   5.476  72.514  1.00  0.00    -0.272 C  
BRANCH   6   7
HETATM    7  C   UNL     1     -12.247   6.676  71.788  1.00  0.00    -0.400 C  
BRANCH   7   8
HETATM    8  C   UNL     1     -12.123   7.947  72.630  1.00  0.00    -0.240 C  
BRANCH   8   9
HETATM    9  C   UNL     1     -13.211   8.957  72.269  1.00  0.00    -0.498 C  
BRANCH   9  10
HETATM   10  C   UNL     1     -12.603  10.196  71.616  1.00  0.00    -0.533 C  
BRANCH  10  11
HETATM   11  C   UNL     1     -11.987   9.865  70.257  1.00  0.00    -0.209 C  
BRANCH  11  12
HETATM   12  C   UNL     1     -10.561  10.413  70.155  1.00  0.00    -0.245 C  
BRANCH  12  13
HETATM   13  C   UNL     1     -10.419  11.484  69.076  1.00  0.00    -0.175 C  
BRANCH  13  14
HETATM   14  C   UNL     1     -11.242  11.168  67.853  1.00  0.00    -0.302 C  
HETATM   15  O   UNL     1     -12.135  11.885  67.422  1.00  0.00    -0.577 OA 
BRANCH  14  16
HETATM   16  O   UNL     1     -10.813  10.008  67.288  1.00  0.00    -0.270 OA 
BRANCH  16  17
HETATM   17  C   UNL     1     -10.433  10.104  65.908  1.00  0.00    -0.071 C  
BRANCH  17  18
HETATM   18  C   UNL     1      -9.403  11.213  65.693  1.00  0.00    -0.219 C  
BRANCH  18  19
HETATM   19  O   UNL     1      -9.881  12.137  64.691  1.00  0.00    -0.222 OA 
BRANCH  19  20
HETATM   20  C   UNL     1     -10.727  11.608  63.773  1.00  0.00    -0.419 C  
HETATM   21  O   UNL     1     -10.414  10.831  62.882  1.00  0.00    -0.048 OA 
BRANCH  20  22
HETATM   22  C   UNL     1     -12.128  12.111  64.023  1.00  0.00    -0.540 C  
BRANCH  22  23
HETATM   23  C   UNL     1     -12.261  13.541  63.507  1.00  0.00    -0.410 C  
BRANCH  23  24
HETATM   24  C   UNL     1     -12.358  14.556  64.643  1.00  0.00    -0.419 C  
BRANCH  24  25
HETATM   25  C   UNL     1     -11.348  15.685  64.439  1.00  0.00    -0.272 C  
BRANCH  25  26
HETATM   26  C   UNL     1     -10.606  16.014  65.732  1.00  0.00    -0.366 C  
BRANCH  26  27
HETATM   27  C   UNL     1     -10.901  14.976  66.813  1.00  0.00    -0.318 C  
BRANCH  27  28
HETATM   28  C   UNL     1      -9.897  15.078  67.960  1.00  0.00    -0.218 C  
BRANCH  28  29
HETATM   29  C   UNL     1      -8.482  15.320  67.439  1.00  0.00    -0.197 C  
BRANCH  29  30
HETATM   30  C   UNL     1      -7.677  14.021  67.419  1.00  0.00    -0.177 C  
BRANCH  30  31
HETATM   31  C   UNL     1      -6.263  14.233  67.958  1.00  0.00    -0.158 C  
BRANCH  31  32
HETATM   32  C   UNL     1      -5.917  13.185  69.015  1.00  0.00    -0.084 C  
BRANCH  32  33
HETATM   33  C   UNL     1      -6.939  12.049  69.026  1.00  0.00    -0.094 C  
HETATM   34  C   UNL     1      -6.516  10.936  69.972  1.00  0.00    -0.151 C  
ENDBRANCH  32  33
ENDBRANCH  31  32
ENDBRANCH  30  31
ENDBRANCH  29  30
ENDBRANCH  28  29
ENDBRANCH  27  28
ENDBRANCH  26  27
ENDBRANCH  25  26
ENDBRANCH  24  25
ENDBRANCH  23  24
ENDBRANCH  22  23
ENDBRANCH  20  22
ENDBRANCH  19  20
ENDBRANCH  18  19
BRANCH  18  35
HETATM   35  C   UNL     1      -8.121  10.605  65.148  1.00  0.00    -0.065 C  
BRANCH  35  36
HETATM   36  O   UNL     1      -7.237  10.257  66.222  1.00  0.00    -0.105 OA 
BRANCH  36  37
HETATM   37  P   UNL     1      -6.932   8.555  66.296  1.00  0.00    -0.079 P  
HETATM   38  O   UNL     1      -7.825   8.393  67.535  1.00  0.00    -0.097 OA 
HETATM   39  O   UNL     1      -7.465   8.336  64.881  1.00  0.00    -0.083 OA 
BRANCH  37  40
HETATM   40  O   UNL     1      -6.628   6.853  66.370  1.00  0.00    -0.049 OA 
BRANCH  40  41
HETATM   41  C   UNL     1      -7.731   6.175  66.940  1.00  0.00    -0.103 C  
BRANCH  41  42
HETATM   42  C   UNL     1      -8.340   5.239  65.910  1.00  0.00    -0.120 C  
BRANCH  42  43
HETATM   43  N   UNL     1      -9.761   4.726  66.249  1.00  0.00    -0.175 N  
HETATM   44  C   UNL     1      -9.623   3.636  67.291  1.00  0.00    -0.150 C  
HETATM   45  C   UNL     1     -10.439   4.140  65.001  1.00  0.00    -0.167 C  
HETATM   46  C   UNL     1     -10.635   5.854  66.776  1.00  0.00    -0.300 C  
ENDBRANCH  42  43
ENDBRANCH  41  42
ENDBRANCH  40  41
ENDBRANCH  37  40
ENDBRANCH  36  37
ENDBRANCH  35  36
ENDBRANCH  18  35
ENDBRANCH  17  18
ENDBRANCH  16  17
ENDBRANCH  14  16
ENDBRANCH  13  14
ENDBRANCH  12  13
ENDBRANCH  11  12
ENDBRANCH  10  11
ENDBRANCH   9  10
ENDBRANCH   8   9
ENDBRANCH   7   8
ENDBRANCH   6   7
ENDBRANCH   5   6
ENDBRANCH   4   5
ENDBRANCH   3   4
ENDBRANCH   2   3
TORSDOF 36
ENDMDL
MODEL       41
REMARK 921   NORMALIZED FREE ENERGY PREDICTED BY IDOCK:   -3.05 KCAL/MOL
REMARK 922        TOTAL FREE ENERGY PREDICTED BY IDOCK:  -14.97 KCAL/MOL
REMARK 923 INTER-LIGAND FREE ENERGY PREDICTED BY IDOCK:  -10.84 KCAL/MOL
REMARK 924 INTRA-LIGAND FREE ENERGY PREDICTED BY IDOCK:   -4.13 KCAL/MOL
REMARK 927      BINDING AFFINITY PREDICTED BY RF-SCORE:    0.00 PKD
ROOT
HETATM    1  C   UNL     1     -11.965  13.563  70.443  1.00  0.00    -0.367 C  
HETATM    2  C   UNL     1     -11.182  14.608  69.666  1.00  0.00    -0.307 C  
ENDROOT
BRANCH   2   3
HETATM    3  C   UNL     1     -10.017  13.977  68.907  1.00  0.00    -0.103 C  
BRANCH   3   4
HETATM    4  C   UNL     1      -8.843  14.948  68.784  1.00  0.00    -0.183 C  
BRANCH   4   5
HETATM    5  C   UNL     1      -8.106  14.749  67.459  1.00  0.00    -0.199 C  
BRANCH   5   6
HETATM    6  C   UNL     1      -6.637  14.404  67.689  1.00  0.00    -0.172 C  
BRANCH   6   7
HETATM    7  C   UNL     1      -6.498  13.177  68.590  1.00  0.00    -0.087 C  
BRANCH   7   8
HETATM    8  C   UNL     1      -6.050  11.955  67.786  1.00  0.00    -0.067 C  
BRANCH   8   9
HETATM    9  C   UNL     1      -7.212  11.360  66.992  1.00  0.00    -0.141 C  
BRANCH   9  10
HETATM   10  C   UNL     1      -7.490   9.925  67.433  1.00  0.00    -0.091 C  
BRANCH  10  11
HETATM   11  C   UNL     1      -7.851   9.858  68.917  1.00  0.00    -0.091 C  
BRANCH  11  12
HETATM   12  C   UNL     1      -9.296  10.308  69.149  1.00  0.00    -0.214 C  
BRANCH  12  13
HETATM   13  C   UNL     1     -10.279   9.644  68.188  1.00  0.00    -0.225 C  
BRANCH  13  14
HETATM   14  C   UNL     1     -11.102  10.654  67.432  1.00  0.00    -0.272 C  
HETATM   15  O   UNL     1     -12.060  11.253  67.904  1.00  0.00    -0.634 OA 
BRANCH  14  16
HETATM   16  O   UNL     1     -10.596  10.829  66.182  1.00  0.00    -0.239 OA 
BRANCH  16  17
HETATM   17  C   UNL     1     -10.879  12.100  65.580  1.00  0.00    -0.283 C  
BRANCH  17  18
HETATM   18  C   UNL     1     -11.759  11.942  64.340  1.00  0.00    -0.275 C  
BRANCH  18  19
HETATM   19  O   UNL     1     -11.169  10.978  63.441  1.00  0.00    -0.077 OA 
BRANCH  19  20
HETATM   20  C   UNL     1      -9.861  11.183  63.150  1.00  0.00    -0.372 C  
HETATM   21  O   UNL     1      -9.298  12.268  63.131  1.00  0.00    -0.102 OA 
BRANCH  20  22
HETATM   22  C   UNL     1      -9.191   9.861  62.864  1.00  0.00    -0.287 C  
BRANCH  22  23
HETATM   23  C   UNL     1      -8.252   9.502  64.013  1.00  0.00    -0.160 C  
BRANCH  23  24
HETATM   24  C   UNL     1      -8.470   8.076  64.509  1.00  0.00     0.025 C  
BRANCH  24  25
HETATM   25  C   UNL     1      -7.154   7.298  64.498  1.00  0.00    -0.058 C  
BRANCH  25  26
HETATM   26  C   UNL     1      -6.880   6.640  65.847  1.00  0.00    -0.053 C  
BRANCH  26  27
HETATM   27  C   UNL     1      -8.184   6.294  66.564  1.00  0.00    -0.112 C  
BRANCH  27  28
HETATM   28  C   UNL     1      -7.910   5.702  67.946  1.00  0.00    -0.097 C  
BRANCH  28  29
HETATM   29  C   UNL     1      -8.693   6.440  69.031  1.00  0.00    -0.123 C  
BRANCH  29  30
HETATM   30  C   UNL     1     -10.159   6.007  69.037  1.00  0.00    -0.223 C  
BRANCH  30  31
HETATM   31  C   UNL     1     -10.792   6.209  70.413  1.00  0.00    -0.374 C  
BRANCH  31  32
HETATM   32  C   UNL     1     -12.155   6.891  70.293  1.00  0.00    -0.182 C  
BRANCH  32  33
HETATM   33  C   UNL     1     -12.080   8.359  70.711  1.00  0.00    -0.064 C  
HETATM   34  C   UNL     1     -13.448   8.889  71.110  1.00  0.00    -0.111 C  
ENDBRANCH  32  33
ENDBRANCH  31  32
ENDBRANCH  30  31
ENDBRANCH  29  30
ENDBRANCH  28  29
ENDBRANCH  27  28
ENDBRANCH  26  27
ENDBRANCH  25  26
ENDBRANCH  24  25
ENDBRANCH  23  24
ENDBRANCH  22  23
ENDBRANCH  20  22
ENDBRANCH  19  20
ENDBRANCH  18  19
BRANCH  18  35
HETATM   35  C   UNL     1     -11.806  13.264  63.590  1.00  0.00    -0.458 C  
BRANCH  35  36
HETATM   36  O   UNL     1     -12.329  14.299  64.435  1.00  0.00    -0.570 OA 
BRANCH  36  37
HETATM   37  P   UNL     1     -11.138  15.494  64.821  1.00  0.00    -0.211 P  
HETATM   38  O   UNL     1     -11.771  16.512  63.861  1.00  0.00    -1.148 OA 
HETATM   39  O   UNL     1     -11.492  15.456  66.307  1.00  0.00    -0.170 OA 
BRANCH  37  40
HETATM   40  O   UNL     1      -9.948  16.690  65.206  1.00  0.00    -0.539 OA 
BRANCH  40  41
HETATM   41  C   UNL     1     -10.568  17.890  65.631  1.00  0.00    -0.109 C  
BRANCH  41  42
HETATM   42  C   UNL     1      -9.544  18.773  66.323  1.00  0.00    -0.297 C  
BRANCH  42  43
HETATM   43  N   UNL     1      -9.799  19.015  67.830  1.00  0.00    -0.321 N  
HETATM   44  C   UNL     1     -10.567  20.312  67.968  1.00  0.00    -0.068 C  
HETATM   45  C   UNL     1      -8.471  19.137  68.593  1.00  0.00    -0.362 C  
HETATM   46  C   UNL     1     -10.588  17.866  68.439  1.00  0.00    -0.265 C  
ENDBRANCH  42  43
ENDBRANCH  41  42
ENDBRANCH  40  41
ENDBRANCH  37  40
ENDBRANCH  36  37
ENDBRANCH  35  36
ENDBRANCH  18  35
ENDBRANCH  17  18
ENDBRANCH  16  17
ENDBRANCH  14  16
ENDBRANCH  13  14
ENDBRANCH  12  13
ENDBRANCH  11  12
ENDBRANCH  10  11
ENDBRANCH   9  10
ENDBRANCH   8   9
ENDBRANCH   7   8
ENDBRANCH   6   7
ENDBRANCH   5   6
ENDBRANCH   4   5
ENDBRANCH   3   4
ENDBRANCH   2   3
TORSDOF 36
ENDMDL
MODEL       42
REMARK 921   NORMALIZED FREE ENERGY PREDICTED BY IDOCK:   -3.01 KCAL/MOL
REMARK 922        TOTAL FREE ENERGY PREDICTED BY IDOCK:  -14.83 KCAL/MOL
REMARK 923 INTER-LIGAND FREE ENERGY PREDICTED BY IDOCK:   -9.32 KCAL/MOL
REMARK 924 INTRA-LIGAND FREE ENERGY PREDICTED BY IDOCK:   -5.51 KCAL/MOL
REMARK 927      BINDING AFFINITY PREDICTED BY RF-SCORE:    0.00 PKD
ROOT
HETATM    1  C   UNL     1     -12.639  12.411  64.273  1.00  0.00    -0.494 C  
HETATM    2  C   UNL     1     -11.780  13.631  64.555  1.00  0.00    -0.429 C  
ENDROOT
BRANCH   2   3
HETATM    3  C   UNL     1     -11.070  13.510  65.903  1.00  0.00    -0.292 C  
BRANCH   3   4
HETATM    4  C   UNL     1     -11.490  12.240  66.640  1.00  0.00    -0.431 C  
BRANCH   4   5
HETATM    5  C   UNL     1     -11.618  12.496  68.141  1.00  0.00    -0.390 C  
BRANCH   5   6
HETATM    6  C   UNL     1     -12.050  13.933  68.423  1.00  0.00    -0.327 C  
BRANCH   6   7
HETATM    7  C   UNL     1     -11.206  14.550  69.539  1.00  0.00    -0.300 C  
BRANCH   7   8
HETATM    8  C   UNL     1     -11.149  16.072  69.405  1.00  0.00    -0.331 C  
BRANCH   8   9
HETATM    9  C   UNL     1     -11.084  16.496  67.939  1.00  0.00    -0.229 C  
BRANCH   9  10
HETATM   10  C   UNL     1      -9.638  16.727  67.507  1.00  0.00    -0.240 C  
BRANCH  10  11
HETATM   11  C   UNL     1      -8.819  17.373  68.623  1.00  0.00    -0.258 C  
BRANCH  11  12
HETATM   12  C   UNL     1      -7.440  16.718  68.738  1.00  0.00    -0.231 C  
BRANCH  12  13
HETATM   13  C   UNL     1      -7.521  15.233  69.083  1.00  0.00    -0.179 C  
BRANCH  13  14
HETATM   14  C   UNL     1      -6.737  14.383  68.117  1.00  0.00    -0.127 C  
HETATM   15  O   UNL     1      -6.082  14.830  67.184  1.00  0.00    -0.228 OA 
BRANCH  14  16
HETATM   16  O   UNL     1      -6.830  13.072  68.465  1.00  0.00    -0.081 OA 
BRANCH  16  17
HETATM   17  C   UNL     1      -7.795  12.310  67.725  1.00  0.00    -0.151 C  
BRANCH  17  18
HETATM   18  C   UNL     1      -7.296  10.889  67.462  1.00  0.00    -0.096 C  
BRANCH  18  19
HETATM   19  O   UNL     1      -8.279  10.160  66.696  1.00  0.00    -0.121 OA 
BRANCH  19  20
HETATM   20  C   UNL     1      -8.215  10.339  65.353  1.00  0.00    -0.156 C  
HETATM   21  O   UNL     1      -9.100  10.813  64.656  1.00  0.00    -0.199 OA 
BRANCH  20  22
HETATM   22  C   UNL     1      -6.873   9.876  64.842  1.00  0.00    -0.127 C  
BRANCH  22  23
HETATM   23  C   UNL     1      -6.893   8.364  64.637  1.00  0.00    -0.069 C  
BRANCH  23  24
HETATM   24  C   UNL     1      -7.645   7.965  63.370  1.00  0.00    -0.130 C  
BRANCH  24  25
HETATM   25  C   UNL     1      -7.997   6.478  63.402  1.00  0.00    -0.077 C  
BRANCH  25  26
HETATM   26  C   UNL     1      -6.912   5.660  64.097  1.00  0.00    -0.051 C  
BRANCH  26  27
HETATM   27  C   UNL     1      -7.435   4.281  64.497  1.00  0.00    -0.072 C  
BRANCH  27  28
HETATM   28  C   UNL     1      -6.516   3.623  65.525  1.00  0.00    -0.033 C  
BRANCH  28  29
HETATM   29  C   UNL     1      -7.252   3.360  66.839  1.00  0.00    -0.063 C  
BRANCH  29  30
HETATM   30  C   UNL     1      -8.757   3.566  66.672  1.00  0.00    -0.126 C  
BRANCH  30  31
HETATM   31  C   UNL     1      -9.318   4.474  67.767  1.00  0.00    -0.180 C  
BRANCH  31  32
HETATM   32  C   UNL     1      -8.649   5.847  67.735  1.00  0.00    -0.105 C  
BRANCH  32  33
HETATM   33  C   UNL     1      -9.388   6.803  66.800  1.00  0.00    -0.189 C  
HETATM   34  C   UNL     1     -10.895   6.683  66.967  1.00  0.00    -0.467 C  
ENDBRANCH  32  33
ENDBRANCH  31  32
ENDBRANCH  30  31
ENDBRANCH  29  30
ENDBRANCH  28  29
ENDBRANCH  27  28
ENDBRANCH  26  27
ENDBRANCH  25  26
ENDBRANCH  24  25
ENDBRANCH  23  24
ENDBRANCH  22  23
ENDBRANCH  20  22
ENDBRANCH  19  20
ENDBRANCH  18  19
BRANCH  18  35
HETATM   35  C   UNL     1      -7.147  10.160  68.787  1.00  0.00    -0.075 C  
BRANCH  35  36
HETATM   36  O   UNL     1      -8.289  10.401  69.621  1.00  0.00    -0.152 OA 
BRANCH  36  37
HETATM   37  P   UNL     1      -9.157   8.948  69.980  1.00  0.00    -0.193 P  
HETATM   38  O   UNL     1      -9.104   9.224  71.490  1.00  0.00    -0.315 OA 
HETATM   39  O   UNL     1     -10.347   9.374  69.121  1.00  0.00    -0.198 OA 
BRANCH  37  40
HETATM   40  O   UNL     1     -10.025   7.495  70.340  1.00  0.00    -0.184 OA 
BRANCH  40  41
HETATM   41  C   UNL     1      -9.270   6.664  71.202  1.00  0.00    -0.159 C  
BRANCH  41  42
HETATM   42  C   UNL     1     -10.091   5.444  71.581  1.00  0.00    -0.203 C  
BRANCH  42  43
HETATM   43  N   UNL     1     -10.960   5.607  72.851  1.00  0.00    -0.263 N  
HETATM   44  C   UNL     1     -12.348   6.023  72.413  1.00  0.00     0.031 C  
HETATM   45  C   UNL     1     -10.380   6.694  73.769  1.00  0.00    -0.349 C  
HETATM   46  C   UNL     1     -11.021   4.308  73.639  1.00  0.00    -0.282 C  
ENDBRANCH  42  43
ENDBRANCH  41  42
ENDBRANCH  40  41
ENDBRANCH  37  40
ENDBRANCH  36  37
ENDBRANCH  35  36
ENDBRANCH  18  35
ENDBRANCH  17  18
ENDBRANCH  16  17
ENDBRANCH  14  16
ENDBRANCH  13  14
ENDBRANCH  12  13
ENDBRANCH  11  12
ENDBRANCH  10  11
ENDBRANCH   9  10
ENDBRANCH   8   9
ENDBRANCH   7   8
ENDBRANCH   6   7
ENDBRANCH   5   6
ENDBRANCH   4   5
ENDBRANCH   3   4
ENDBRANCH   2   3
TORSDOF 36
ENDMDL
MODEL       43
REMARK 921   NORMALIZED FREE ENERGY PREDICTED BY IDOCK:   -2.99 KCAL/MOL
REMARK 922        TOTAL FREE ENERGY PREDICTED BY IDOCK:  -14.77 KCAL/MOL
REMARK 923 INTER-LIGAND FREE ENERGY PREDICTED BY IDOCK:  -10.37 KCAL/MOL
REMARK 924 INTRA-LIGAND FREE ENERGY PREDICTED BY IDOCK:   -4.40 KCAL/MOL
REMARK 927      BINDING AFFINITY PREDICTED BY RF-SCORE:    0.00 PKD
ROOT
HETATM    1  C   UNL     1      -6.041  19.101  64.836  1.00  0.00    -0.312 C  
HETATM    2  C   UNL     1      -6.319  20.585  65.003  1.00  0.00    -0.325 C  
ENDROOT
BRANCH   2   3
HETATM    3  C   UNL     1      -6.601  20.935  66.463  1.00  0.00    -0.327 C  
BRANCH   3   4
HETATM    4  C   UNL     1      -7.562  19.933  67.099  1.00  0.00    -0.301 C  
BRANCH   4   5
HETATM    5  C   UNL     1      -8.964  20.528  67.233  1.00  0.00    -0.431 C  
BRANCH   5   6
HETATM    6  C   UNL     1      -9.865  20.088  66.081  1.00  0.00    -0.553 C  
BRANCH   6   7
HETATM    7  C   UNL     1     -10.434  18.692  66.334  1.00  0.00    -0.463 C  
BRANCH   7   8
HETATM    8  C   UNL     1     -10.697  18.469  67.824  1.00  0.00    -0.378 C  
BRANCH   8   9
HETATM    9  C   UNL     1     -10.187  17.101  68.276  1.00  0.00    -0.334 C  
BRANCH   9  10
HETATM   10  C   UNL     1     -11.352  16.151  68.543  1.00  0.00    -0.359 C  
BRANCH  10  11
HETATM   11  C   UNL     1     -10.891  14.694  68.551  1.00  0.00    -0.256 C  
BRANCH  11  12
HETATM   12  C   UNL     1     -12.070  13.750  68.803  1.00  0.00    -0.344 C  
BRANCH  12  13
HETATM   13  C   UNL     1     -11.694  12.281  68.625  1.00  0.00    -0.377 C  
BRANCH  13  14
HETATM   14  C   UNL     1     -11.474  11.923  67.178  1.00  0.00    -0.319 C  
HETATM   15  O   UNL     1     -12.131  12.377  66.250  1.00  0.00    -0.612 OA 
BRANCH  14  16
HETATM   16  O   UNL     1     -10.422  11.071  67.061  1.00  0.00    -0.217 OA 
BRANCH  16  17
HETATM   17  C   UNL     1      -9.473  11.119  68.137  1.00  0.00    -0.180 C  
BRANCH  17  18
HETATM   18  C   UNL     1      -9.097   9.714  68.608  1.00  0.00    -0.132 C  
BRANCH  18  19
HETATM   19  O   UNL     1      -8.811   8.876  67.467  1.00  0.00    -0.129 OA 
BRANCH  19  20
HETATM   20  C   UNL     1      -7.501   8.789  67.127  1.00  0.00    -0.088 C  
HETATM   21  O   UNL     1      -6.563   8.770  67.910  1.00  0.00    -0.059 OA 
BRANCH  20  22
HETATM   22  C   UNL     1      -7.371   8.701  65.626  1.00  0.00    -0.084 C  
BRANCH  22  23
HETATM   23  C   UNL     1      -7.673   7.278  65.166  1.00  0.00    -0.113 C  
BRANCH  23  24
HETATM   24  C   UNL     1      -6.475   6.631  64.474  1.00  0.00    -0.041 C  
BRANCH  24  25
HETATM   25  C   UNL     1      -6.880   5.301  63.837  1.00  0.00    -0.046 C  
BRANCH  25  26
HETATM   26  C   UNL     1      -8.397   5.164  63.741  1.00  0.00    -0.130 C  
BRANCH  26  27
HETATM   27  C   UNL     1      -8.836   3.726  64.009  1.00  0.00    -0.106 C  
BRANCH  27  28
HETATM   28  C   UNL     1      -9.641   3.630  65.304  1.00  0.00    -0.160 C  
BRANCH  28  29
HETATM   29  C   UNL     1      -9.137   2.490  66.188  1.00  0.00    -0.102 C  
BRANCH  29  30
HETATM   30  C   UNL     1      -7.630   2.601  66.416  1.00  0.00    -0.072 C  
BRANCH  30  31
HETATM   31  C   UNL     1      -7.318   3.216  67.780  1.00  0.00    -0.054 C  
BRANCH  31  32
HETATM   32  C   UNL     1      -7.049   4.716  67.655  1.00  0.00    -0.065 C  
BRANCH  32  33
HETATM   33  C   UNL     1      -7.800   5.506  68.726  1.00  0.00    -0.095 C  
HETATM   34  C   UNL     1      -9.289   5.564  68.426  1.00  0.00    -0.130 C  
ENDBRANCH  32  33
ENDBRANCH  31  32
ENDBRANCH  30  31
ENDBRANCH  29  30
ENDBRANCH  28  29
ENDBRANCH  27  28
ENDBRANCH  26  27
ENDBRANCH  25  26
ENDBRANCH  24  25
ENDBRANCH  23  24
ENDBRANCH  22  23
ENDBRANCH  20  22
ENDBRANCH  19  20
ENDBRANCH  18  19
BRANCH  18  35
HETATM   35  C   UNL     1     -10.287   9.091  69.319  1.00  0.00    -0.219 C  
BRANCH  35  36
HETATM   36  O   UNL     1     -10.559   9.788  70.543  1.00  0.00    -0.277 OA 
BRANCH  36  37
HETATM   37  P   UNL     1     -11.099   8.725  71.797  1.00  0.00    -0.377 P  
HETATM   38  O   UNL     1     -12.251   9.667  72.175  1.00  0.00    -0.309 OA 
HETATM   39  O   UNL     1     -11.290   7.567  70.817  1.00  0.00    -0.273 OA 
BRANCH  37  40
HETATM   40  O   UNL     1     -11.640   7.662  73.051  1.00  0.00    -0.298 OA 
BRANCH  40  41
HETATM   41  C   UNL     1     -10.536   7.106  73.742  1.00  0.00    -0.260 C  
BRANCH  41  42
HETATM   42  C   UNL     1      -9.266   7.837  73.341  1.00  0.00    -0.284 C  
BRANCH  42  43
HETATM   43  N   UNL     1      -8.071   6.922  72.977  1.00  0.00    -0.106 N  
HETATM   44  C   UNL     1      -7.260   7.623  71.908  1.00  0.00    -0.065 C  
HETATM   45  C   UNL     1      -8.566   5.576  72.426  1.00  0.00    -0.118 C  
HETATM   46  C   UNL     1      -7.208   6.644  74.198  1.00  0.00    -0.090 C  
ENDBRANCH  42  43
ENDBRANCH  41  42
ENDBRANCH  40  41
ENDBRANCH  37  40
ENDBRANCH  36  37
ENDBRANCH  35  36
ENDBRANCH  18  35
ENDBRANCH  17  18
ENDBRANCH  16  17
ENDBRANCH  14  16
ENDBRANCH  13  14
ENDBRANCH  12  13
ENDBRANCH  11  12
ENDBRANCH  10  11
ENDBRANCH   9  10
ENDBRANCH   8   9
ENDBRANCH   7   8
ENDBRANCH   6   7
ENDBRANCH   5   6
ENDBRANCH   4   5
ENDBRANCH   3   4
ENDBRANCH   2   3
TORSDOF 36
ENDMDL
MODEL       44
REMARK 921   NORMALIZED FREE ENERGY PREDICTED BY IDOCK:   -2.88 KCAL/MOL
REMARK 922        TOTAL FREE ENERGY PREDICTED BY IDOCK:  -14.45 KCAL/MOL
REMARK 923 INTER-LIGAND FREE ENERGY PREDICTED BY IDOCK:  -10.64 KCAL/MOL
REMARK 924 INTRA-LIGAND FREE ENERGY PREDICTED BY IDOCK:   -3.80 KCAL/MOL
REMARK 927      BINDING AFFINITY PREDICTED BY RF-SCORE:    0.00 PKD
ROOT
HETATM    1  C   UNL     1     -11.337  16.062  64.497  1.00  0.00    -0.303 C  
HETATM    2  C   UNL     1     -12.449  15.034  64.613  1.00  0.00    -0.129 C  
ENDROOT
BRANCH   2   3
HETATM    3  C   UNL     1     -11.922  13.618  64.391  1.00  0.00    -0.476 C  
BRANCH   3   4
HETATM    4  C   UNL     1     -10.562  13.421  65.058  1.00  0.00    -0.370 C  
BRANCH   4   5
HETATM    5  C   UNL     1      -9.654  12.541  64.200  1.00  0.00     0.190 C  
BRANCH   5   6
HETATM    6  C   UNL     1     -10.468  11.591  63.325  1.00  0.00    -0.421 C  
BRANCH   6   7
HETATM    7  C   UNL     1      -9.772  10.236  63.194  1.00  0.00    -0.220 C  
BRANCH   7   8
HETATM    8  C   UNL     1      -8.523  10.174  64.073  1.00  0.00    -0.185 C  
BRANCH   8   9
HETATM    9  C   UNL     1      -8.666   9.114  65.163  1.00  0.00    -0.228 C  
BRANCH   9  10
HETATM   10  C   UNL     1      -9.939   9.342  65.975  1.00  0.00    -0.325 C  
BRANCH  10  11
HETATM   11  C   UNL     1     -10.352   8.080  66.730  1.00  0.00    -0.360 C  
BRANCH  11  12
HETATM   12  C   UNL     1      -9.250   7.018  66.665  1.00  0.00    -0.189 C  
BRANCH  12  13
HETATM   13  C   UNL     1      -8.515   6.853  67.993  1.00  0.00    -0.124 C  
BRANCH  13  14
HETATM   14  C   UNL     1      -9.463   6.626  69.141  1.00  0.00    -0.136 C  
HETATM   15  O   UNL     1     -10.390   5.826  69.120  1.00  0.00    -0.199 OA 
BRANCH  14  16
HETATM   16  O   UNL     1      -9.108   7.400  70.202  1.00  0.00    -0.148 OA 
BRANCH  16  17
HETATM   17  C   UNL     1      -8.371   6.725  71.231  1.00  0.00    -0.120 C  
BRANCH  17  18
HETATM   18  C   UNL     1      -9.299   6.211  72.332  1.00  0.00    -0.145 C  
BRANCH  18  19
HETATM   19  O   UNL     1     -10.363   7.160  72.558  1.00  0.00    -0.193 OA 
BRANCH  19  20
HETATM   20  C   UNL     1     -11.614   6.693  72.324  1.00  0.00    -0.278 C  
HETATM   21  O   UNL     1     -12.053   5.615  72.699  1.00  0.00    -0.212 OA 
BRANCH  20  22
HETATM   22  C   UNL     1     -12.400   7.715  71.539  1.00  0.00    -0.356 C  
BRANCH  22  23
HETATM   23  C   UNL     1     -12.259   9.086  72.195  1.00  0.00    -0.427 C  
BRANCH  23  24
HETATM   24  C   UNL     1     -13.407  10.022  71.823  1.00  0.00    -0.492 C  
BRANCH  24  25
HETATM   25  C   UNL     1     -12.894  11.450  71.637  1.00  0.00    -0.497 C  
BRANCH  25  26
HETATM   26  C   UNL     1     -12.070  11.589  70.360  1.00  0.00    -0.471 C  
BRANCH  26  27
HETATM   27  C   UNL     1     -11.873  13.058  69.991  1.00  0.00    -0.355 C  
BRANCH  27  28
HETATM   28  C   UNL     1     -11.832  13.242  68.475  1.00  0.00    -0.384 C  
BRANCH  28  29
HETATM   29  C   UNL     1     -11.797  14.721  68.095  1.00  0.00    -0.318 C  
BRANCH  29  30
HETATM   30  C   UNL     1     -10.906  15.510  69.054  1.00  0.00    -0.249 C  
BRANCH  30  31
HETATM   31  C   UNL     1     -10.053  16.534  68.306  1.00  0.00    -0.259 C  
BRANCH  31  32
HETATM   32  C   UNL     1     -10.898  17.726  67.857  1.00  0.00    -0.229 C  
BRANCH  32  33
HETATM   33  C   UNL     1     -10.215  19.050  68.199  1.00  0.00    -0.472 C  
HETATM   34  C   UNL     1     -10.190  19.983  66.998  1.00  0.00    -0.587 C  
ENDBRANCH  32  33
ENDBRANCH  31  32
ENDBRANCH  30  31
ENDBRANCH  29  30
ENDBRANCH  28  29
ENDBRANCH  27  28
ENDBRANCH  26  27
ENDBRANCH  25  26
ENDBRANCH  24  25
ENDBRANCH  23  24
ENDBRANCH  22  23
ENDBRANCH  20  22
ENDBRANCH  19  20
ENDBRANCH  18  19
BRANCH  18  35
HETATM   35  C   UNL     1      -8.520   6.110  73.634  1.00  0.00    -0.121 C  
BRANCH  35  36
HETATM   36  O   UNL     1      -9.114   5.130  74.496  1.00  0.00    -0.113 OA 
BRANCH  36  37
HETATM   37  P   UNL     1      -9.335   3.607  73.704  1.00  0.00    -0.099 P  
HETATM   38  O   UNL     1      -8.011   3.064  74.259  1.00  0.00    -0.066 OA 
HETATM   39  O   UNL     1     -10.669   3.365  74.411  1.00  0.00    -0.194 OA 
BRANCH  37  40
HETATM   40  O   UNL     1      -9.556   2.085  72.913  1.00  0.00    -0.080 OA 
BRANCH  40  41
HETATM   41  C   UNL     1      -9.454   2.235  71.509  1.00  0.00    -0.134 C  
BRANCH  41  42
HETATM   42  C   UNL     1      -8.243   1.471  71.003  1.00  0.00    -0.046 C  
BRANCH  42  43
HETATM   43  N   UNL     1      -7.124   2.347  70.389  1.00  0.00    -0.033 N  
HETATM   44  C   UNL     1      -6.732   1.737  69.061  1.00  0.00    -0.029 C  
HETATM   45  C   UNL     1      -5.893   2.377  71.308  1.00  0.00    -0.013 C  
HETATM   46  C   UNL     1      -7.601   3.779  70.193  1.00  0.00    -0.048 C  
ENDBRANCH  42  43
ENDBRANCH  41  42
ENDBRANCH  40  41
ENDBRANCH  37  40
ENDBRANCH  36  37
ENDBRANCH  35  36
ENDBRANCH  18  35
ENDBRANCH  17  18
ENDBRANCH  16  17
ENDBRANCH  14  16
ENDBRANCH  13  14
ENDBRANCH  12  13
ENDBRANCH  11  12
ENDBRANCH  10  11
ENDBRANCH   9  10
ENDBRANCH   8   9
ENDBRANCH   7   8
ENDBRANCH   6   7
ENDBRANCH   5   6
ENDBRANCH   4   5
ENDBRANCH   3   4
ENDBRANCH   2   3
TORSDOF 36
ENDMDL
MODEL       45
REMARK 921   NORMALIZED FREE ENERGY PREDICTED BY IDOCK:   -2.85 KCAL/MOL
REMARK 922        TOTAL FREE ENERGY PREDICTED BY IDOCK:  -14.35 KCAL/MOL
REMARK 923 INTER-LIGAND FREE ENERGY PREDICTED BY IDOCK:   -9.05 KCAL/MOL
REMARK 924 INTRA-LIGAND FREE ENERGY PREDICTED BY IDOCK:   -5.30 KCAL/MOL
REMARK 927      BINDING AFFINITY PREDICTED BY RF-SCORE:    0.00 PKD
ROOT
HETATM    1  C   UNL     1      -5.455  15.698  67.619  1.00  0.00    -0.108 C  
HETATM    2  C   UNL     1      -6.781  16.315  68.033  1.00  0.00    -0.143 C  
ENDROOT
BRANCH   2   3
HETATM    3  C   UNL     1      -7.528  16.883  66.829  1.00  0.00    -0.276 C  
BRANCH   3   4
HETATM    4  C   UNL     1      -8.463  15.844  66.213  1.00  0.00    -0.302 C  
BRANCH   4   5
HETATM    5  C   UNL     1      -8.882  14.802  67.251  1.00  0.00    -0.218 C  
BRANCH   5   6
HETATM    6  C   UNL     1      -9.045  13.423  66.616  1.00  0.00    -0.180 C  
BRANCH   6   7
HETATM    7  C   UNL     1      -7.821  12.548  66.885  1.00  0.00     0.016 C  
BRANCH   7   8
HETATM    8  C   UNL     1      -7.925  11.217  66.140  1.00  0.00    -0.090 C  
BRANCH   8   9
HETATM    9  C   UNL     1      -6.573  10.506  66.089  1.00  0.00    -0.123 C  
BRANCH   9  10
HETATM   10  C   UNL     1      -6.318   9.734  67.381  1.00  0.00    -0.068 C  
BRANCH  10  11
HETATM   11  C   UNL     1      -5.761   8.340  67.097  1.00  0.00    -0.038 C  
BRANCH  11  12
HETATM   12  C   UNL     1      -6.846   7.426  66.520  1.00  0.00    -0.062 C  
BRANCH  12  13
HETATM   13  C   UNL     1      -8.104   7.389  67.383  1.00  0.00    -0.113 C  
BRANCH  13  14
HETATM   14  C   UNL     1      -9.250   6.702  66.686  1.00  0.00    -0.157 C  
HETATM   15  O   UNL     1      -9.121   5.957  65.723  1.00  0.00    -0.154 OA 
BRANCH  14  16
HETATM   16  O   UNL     1     -10.421   6.996  67.310  1.00  0.00    -0.224 OA 
BRANCH  16  17
HETATM   17  C   UNL     1     -10.914   5.980  68.196  1.00  0.00    -0.246 C  
BRANCH  17  18
HETATM   18  C   UNL     1     -11.132   6.531  69.605  1.00  0.00    -0.376 C  
BRANCH  18  19
HETATM   19  O   UNL     1     -10.004   7.347  69.990  1.00  0.00    -0.182 OA 
BRANCH  19  20
HETATM   20  C   UNL     1     -10.318   8.575  70.473  1.00  0.00    -0.200 C  
HETATM   21  O   UNL     1     -11.389   8.893  70.970  1.00  0.00    -0.264 OA 
BRANCH  20  22
HETATM   22  C   UNL     1      -9.133   9.498  70.320  1.00  0.00    -0.296 C  
BRANCH  22  23
HETATM   23  C   UNL     1      -9.460  10.590  69.305  1.00  0.00    -0.191 C  
BRANCH  23  24
HETATM   24  C   UNL     1     -10.668  10.232  68.445  1.00  0.00    -0.263 C  
BRANCH  24  25
HETATM   25  C   UNL     1     -11.644  11.408  68.378  1.00  0.00    -0.385 C  
BRANCH  25  26
HETATM   26  C   UNL     1     -12.003  11.917  69.771  1.00  0.00    -0.377 C  
BRANCH  26  27
HETATM   27  C   UNL     1     -11.626  13.390  69.931  1.00  0.00    -0.270 C  
BRANCH  27  28
HETATM   28  C   UNL     1     -12.029  14.196  68.698  1.00  0.00    -0.373 C  
BRANCH  28  29
HETATM   29  C   UNL     1     -12.093  15.691  69.008  1.00  0.00    -0.227 C  
BRANCH  29  30
HETATM   30  C   UNL     1     -10.863  16.138  69.796  1.00  0.00    -0.333 C  
BRANCH  30  31
HETATM   31  C   UNL     1     -10.138  17.285  69.093  1.00  0.00    -0.252 C  
BRANCH  31  32
HETATM   32  C   UNL     1     -10.982  17.844  67.948  1.00  0.00    -0.080 C  
BRANCH  32  33
HETATM   33  C   UNL     1     -10.596  19.287  67.626  1.00  0.00    -0.553 C  
HETATM   34  C   UNL     1     -10.271  19.455  66.150  1.00  0.00    -0.570 C  
ENDBRANCH  32  33
ENDBRANCH  31  32
ENDBRANCH  30  31
ENDBRANCH  29  30
ENDBRANCH  28  29
ENDBRANCH  27  28
ENDBRANCH  26  27
ENDBRANCH  25  26
ENDBRANCH  24  25
ENDBRANCH  23  24
ENDBRANCH  22  23
ENDBRANCH  20  22
ENDBRANCH  19  20
ENDBRANCH  18  19
BRANCH  18  35
HETATM   35  C   UNL     1     -11.188   5.374  70.590  1.00  0.00     0.268 C  
BRANCH  35  36
HETATM   36  O   UNL     1     -11.720   5.814  71.847  1.00  0.00    -0.204 OA 
BRANCH  36  37
HETATM   37  P   UNL     1     -10.671   5.438  73.171  1.00  0.00    -0.311 P  
HETATM   38  O   UNL     1     -10.777   6.864  73.731  1.00  0.00    -0.347 OA 
HETATM   39  O   UNL     1     -11.583   4.310  73.653  1.00  0.00    -0.204 OA 
BRANCH  37  40
HETATM   40  O   UNL     1      -9.622   5.062  74.495  1.00  0.00    -0.126 OA 
BRANCH  40  41
HETATM   41  C   UNL     1      -8.406   4.512  74.024  1.00  0.00    -0.103 C  
BRANCH  41  42
HETATM   42  C   UNL     1      -8.239   4.834  72.549  1.00  0.00    -0.115 C  
BRANCH  42  43
HETATM   43  N   UNL     1      -7.015   5.717  72.205  1.00  0.00    -0.079 N  
HETATM   44  C   UNL     1      -6.662   5.474  70.753  1.00  0.00    -0.044 C  
HETATM   45  C   UNL     1      -5.810   5.339  73.081  1.00  0.00    -0.023 C  
HETATM   46  C   UNL     1      -7.324   7.188  72.435  1.00  0.00    -0.079 C  
ENDBRANCH  42  43
ENDBRANCH  41  42
ENDBRANCH  40  41
ENDBRANCH  37  40
ENDBRANCH  36  37
ENDBRANCH  35  36
ENDBRANCH  18  35
ENDBRANCH  17  18
ENDBRANCH  16  17
ENDBRANCH  14  16
ENDBRANCH  13  14
ENDBRANCH  12  13
ENDBRANCH  11  12
ENDBRANCH  10  11
ENDBRANCH   9  10
ENDBRANCH   8   9
ENDBRANCH   7   8
ENDBRANCH   6   7
ENDBRANCH   5   6
ENDBRANCH   4   5
ENDBRANCH   3   4
ENDBRANCH   2   3
TORSDOF 36
ENDMDL
MODEL       46
REMARK 921   NORMALIZED FREE ENERGY PREDICTED BY IDOCK:   -2.75 KCAL/MOL
REMARK 922        TOTAL FREE ENERGY PREDICTED BY IDOCK:  -14.03 KCAL/MOL
REMARK 923 INTER-LIGAND FREE ENERGY PREDICTED BY IDOCK:   -9.42 KCAL/MOL
REMARK 924 INTRA-LIGAND FREE ENERGY PREDICTED BY IDOCK:   -4.60 KCAL/MOL
REMARK 927      BINDING AFFINITY PREDICTED BY RF-SCORE:    0.00 PKD
ROOT
HETATM    1  C   UNL     1     -12.924  10.801  71.480  1.00  0.00    -0.562 C  
HETATM    2  C   UNL     1     -13.583  12.071  71.989  1.00  0.00    -0.230 C  
ENDROOT
BRANCH   2   3
HETATM    3  C   UNL     1     -12.705  13.294  71.729  1.00  0.00    -0.292 C  
BRANCH   3   4
HETATM    4  C   UNL     1     -12.224  13.336  70.280  1.00  0.00    -0.391 C  
BRANCH   4   5
HETATM    5  C   UNL     1     -11.192  14.444  70.078  1.00  0.00    -0.193 C  
BRANCH   5   6
HETATM    6  C   UNL     1     -11.862  15.766  69.711  1.00  0.00    -0.352 C  
BRANCH   6   7
HETATM    7  C   UNL     1     -11.176  16.412  68.508  1.00  0.00    -0.334 C  
BRANCH   7   8
HETATM    8  C   UNL     1      -9.737  15.914  68.365  1.00  0.00    -0.214 C  
BRANCH   8   9
HETATM    9  C   UNL     1      -8.737  17.057  68.528  1.00  0.00    -0.253 C  
BRANCH   9  10
HETATM   10  C   UNL     1      -7.562  16.890  67.567  1.00  0.00    -0.184 C  
BRANCH  10  11
HETATM   11  C   UNL     1      -6.243  16.739  68.322  1.00  0.00    -0.132 C  
BRANCH  11  12
HETATM   12  C   UNL     1      -6.347  15.649  69.393  1.00  0.00    -0.150 C  
BRANCH  12  13
HETATM   13  C   UNL     1      -6.557  14.259  68.798  1.00  0.00    -0.092 C  
BRANCH  13  14
HETATM   14  C   UNL     1      -5.943  13.179  69.650  1.00  0.00    -0.116 C  
HETATM   15  O   UNL     1      -5.994  13.157  70.873  1.00  0.00    -0.205 OA 
BRANCH  14  16
HETATM   16  O   UNL     1      -5.375  12.227  68.863  1.00  0.00    -0.054 OA 
BRANCH  16  17
HETATM   17  C   UNL     1      -6.291  11.483  68.046  1.00  0.00    -0.050 C  
BRANCH  17  18
HETATM   18  C   UNL     1      -7.202  10.599  68.898  1.00  0.00    -0.090 C  
BRANCH  18  19
HETATM   19  O   UNL     1      -6.605   9.294  69.059  1.00  0.00    -0.046 OA 
BRANCH  19  20
HETATM   20  C   UNL     1      -6.501   8.860  70.340  1.00  0.00    -0.043 C  
HETATM   21  O   UNL     1      -6.928   9.442  71.326  1.00  0.00    -0.261 OA 
BRANCH  20  22
HETATM   22  C   UNL     1      -5.787   7.530  70.369  1.00  0.00    -0.027 C  
BRANCH  22  23
HETATM   23  C   UNL     1      -6.702   6.442  69.813  1.00  0.00    -0.053 C  
BRANCH  23  24
HETATM   24  C   UNL     1      -6.091   5.740  68.604  1.00  0.00    -0.025 C  
BRANCH  24  25
HETATM   25  C   UNL     1      -7.138   5.559  67.504  1.00  0.00    -0.074 C  
BRANCH  25  26
HETATM   26  C   UNL     1      -8.453   6.247  67.864  1.00  0.00    -0.117 C  
BRANCH  26  27
HETATM   27  C   UNL     1      -9.633   5.289  67.714  1.00  0.00    -0.157 C  
BRANCH  27  28
HETATM   28  C   UNL     1     -10.499   5.283  68.972  1.00  0.00    -0.206 C  
BRANCH  28  29
HETATM   29  C   UNL     1      -9.854   4.460  70.086  1.00  0.00    -0.288 C  
BRANCH  29  30
HETATM   30  C   UNL     1     -10.069   5.120  71.448  1.00  0.00    -0.265 C  
BRANCH  30  31
HETATM   31  C   UNL     1     -10.665   6.520  71.299  1.00  0.00    -0.280 C  
BRANCH  31  32
HETATM   32  C   UNL     1     -10.419   7.355  72.556  1.00  0.00    -0.280 C  
BRANCH  32  33
HETATM   33  C   UNL     1      -9.294   6.764  73.404  1.00  0.00    -0.171 C  
HETATM   34  C   UNL     1      -8.360   7.849  73.916  1.00  0.00    -0.300 C  
ENDBRANCH  32  33
ENDBRANCH  31  32
ENDBRANCH  30  31
ENDBRANCH  29  30
ENDBRANCH  28  29
ENDBRANCH  27  28
ENDBRANCH  26  27
ENDBRANCH  25  26
ENDBRANCH  24  25
ENDBRANCH  23  24
ENDBRANCH  22  23
ENDBRANCH  20  22
ENDBRANCH  19  20
ENDBRANCH  18  19
BRANCH  18  35
HETATM   35  C   UNL     1      -8.518  10.389  68.167  1.00  0.00    -0.121 C  
BRANCH  35  36
HETATM   36  O   UNL     1      -8.330   9.524  67.038  1.00  0.00    -0.122 OA 
BRANCH  36  37
HETATM   37  P   UNL     1      -9.339   9.961  65.702  1.00  0.00    -0.254 P  
HETATM   38  O   UNL     1     -10.438  10.489  66.634  1.00  0.00    -0.241 OA 
HETATM   39  O   UNL     1      -8.267  10.879  65.114  1.00  0.00    -0.089 OA 
BRANCH  37  40
HETATM   40  O   UNL     1     -10.348  10.399  64.366  1.00  0.00    -0.304 OA 
BRANCH  40  41
HETATM   41  C   UNL     1     -11.392  11.255  64.791  1.00  0.00     0.027 C  
BRANCH  41  42
HETATM   42  C   UNL     1     -11.284  12.586  64.066  1.00  0.00    -0.403 C  
BRANCH  42  43
HETATM   43  N   UNL     1     -11.454  13.837  64.961  1.00  0.00    -0.321 N  
HETATM   44  C   UNL     1     -10.074  14.328  65.339  1.00  0.00    -0.351 C  
HETATM   45  C   UNL     1     -12.227  13.486  66.242  1.00  0.00    -0.416 C  
HETATM   46  C   UNL     1     -12.223  14.928  64.231  1.00  0.00    -0.344 C  
ENDBRANCH  42  43
ENDBRANCH  41  42
ENDBRANCH  40  41
ENDBRANCH  37  40
ENDBRANCH  36  37
ENDBRANCH  35  36
ENDBRANCH  18  35
ENDBRANCH  17  18
ENDBRANCH  16  17
ENDBRANCH  14  16
ENDBRANCH  13  14
ENDBRANCH  12  13
ENDBRANCH  11  12
ENDBRANCH  10  11
ENDBRANCH   9  10
ENDBRANCH   8   9
ENDBRANCH   7   8
ENDBRANCH   6   7
ENDBRANCH   5   6
ENDBRANCH   4   5
ENDBRANCH   3   4
ENDBRANCH   2   3
TORSDOF 36
ENDMDL
MODEL       47
REMARK 921   NORMALIZED FREE ENERGY PREDICTED BY IDOCK:   -2.71 KCAL/MOL
REMARK 922        TOTAL FREE ENERGY PREDICTED BY IDOCK:  -13.92 KCAL/MOL
REMARK 923 INTER-LIGAND FREE ENERGY PREDICTED BY IDOCK:   -9.13 KCAL/MOL
REMARK 924 INTRA-LIGAND FREE ENERGY PREDICTED BY IDOCK:   -4.79 KCAL/MOL
REMARK 927      BINDING AFFINITY PREDICTED BY RF-SCORE:    0.00 PKD
ROOT
HETATM    1  C   UNL     1      -9.916   3.888  64.639  1.00  0.00    -0.206 C  
HETATM    2  C   UNL     1     -10.414   4.898  65.659  1.00  0.00    -0.161 C  
ENDROOT
BRANCH   2   3
HETATM    3  C   UNL     1      -9.430   5.045  66.819  1.00  0.00    -0.148 C  
BRANCH   3   4
HETATM    4  C   UNL     1      -8.282   4.044  66.704  1.00  0.00    -0.101 C  
BRANCH   4   5
HETATM    5  C   UNL     1      -6.936   4.726  66.948  1.00  0.00    -0.060 C  
BRANCH   5   6
HETATM    6  C   UNL     1      -6.013   4.578  65.741  1.00  0.00    -0.023 C  
BRANCH   6   7
HETATM    7  C   UNL     1      -6.279   5.676  64.711  1.00  0.00    -0.025 C  
BRANCH   7   8
HETATM    8  C   UNL     1      -5.381   6.888  64.958  1.00  0.00    -0.027 C  
BRANCH   8   9
HETATM    9  C   UNL     1      -5.978   8.153  64.343  1.00  0.00    -0.056 C  
BRANCH   9  10
HETATM   10  C   UNL     1      -7.504   8.109  64.392  1.00  0.00    -0.103 C  
BRANCH  10  11
HETATM   11  C   UNL     1      -8.047   8.916  65.570  1.00  0.00    -0.112 C  
BRANCH  11  12
HETATM   12  C   UNL     1      -9.523   8.593  65.819  1.00  0.00    -0.192 C  
BRANCH  12  13
HETATM   13  C   UNL     1     -10.069   9.270  67.074  1.00  0.00    -0.313 C  
BRANCH  13  14
HETATM   14  C   UNL     1     -10.471  10.699  66.816  1.00  0.00    -0.247 C  
HETATM   15  O   UNL     1     -11.401  11.032  66.093  1.00  0.00    -0.089 OA 
BRANCH  14  16
HETATM   16  O   UNL     1      -9.685  11.544  67.536  1.00  0.00    -0.177 OA 
BRANCH  16  17
HETATM   17  C   UNL     1      -9.860  11.480  68.959  1.00  0.00     0.007 C  
BRANCH  17  18
HETATM   18  C   UNL     1     -11.282  11.875  69.361  1.00  0.00    -0.211 C  
BRANCH  18  19
HETATM   19  O   UNL     1     -11.304  13.254  69.787  1.00  0.00    -0.183 OA 
BRANCH  19  20
HETATM   20  C   UNL     1     -11.465  14.164  68.794  1.00  0.00    -0.299 C  
HETATM   21  O   UNL     1     -12.191  14.032  67.819  1.00  0.00    -0.334 OA 
BRANCH  20  22
HETATM   22  C   UNL     1     -10.621  15.382  69.079  1.00  0.00    -0.247 C  
BRANCH  22  23
HETATM   23  C   UNL     1      -9.606  15.579  67.956  1.00  0.00    -0.203 C  
BRANCH  23  24
HETATM   24  C   UNL     1      -8.401  14.653  68.101  1.00  0.00    -0.144 C  
BRANCH  24  25
HETATM   25  C   UNL     1      -7.251  15.129  67.213  1.00  0.00    -0.197 C  
BRANCH  25  26
HETATM   26  C   UNL     1      -7.340  16.627  66.936  1.00  0.00    -0.260 C  
BRANCH  26  27
HETATM   27  C   UNL     1      -6.089  17.352  67.430  1.00  0.00    -0.162 C  
BRANCH  27  28
HETATM   28  C   UNL     1      -6.450  18.683  68.088  1.00  0.00    -0.220 C  
BRANCH  28  29
HETATM   29  C   UNL     1      -7.651  18.533  69.021  1.00  0.00    -0.204 C  
BRANCH  29  30
HETATM   30  C   UNL     1      -8.787  19.465  68.602  1.00  0.00    -0.417 C  
BRANCH  30  31
HETATM   31  C   UNL     1      -8.404  20.294  67.376  1.00  0.00    -0.396 C  
BRANCH  31  32
HETATM   32  C   UNL     1      -9.122  19.786  66.126  1.00  0.00    -0.403 C  
BRANCH  32  33
HETATM   33  C   UNL     1     -10.404  19.037  66.488  1.00  0.00    -0.512 C  
HETATM   34  C   UNL     1     -10.659  17.885  65.529  1.00  0.00    -0.016 C  
ENDBRANCH  32  33
ENDBRANCH  31  32
ENDBRANCH  30  31
ENDBRANCH  29  30
ENDBRANCH  28  29
ENDBRANCH  27  28
ENDBRANCH  26  27
ENDBRANCH  25  26
ENDBRANCH  24  25
ENDBRANCH  23  24
ENDBRANCH  22  23
ENDBRANCH  20  22
ENDBRANCH  19  20
ENDBRANCH  18  19
BRANCH  18  35
HETATM   35  C   UNL     1     -11.711  11.042  70.557  1.00  0.00    -0.318 C  
BRANCH  35  36
HETATM   36  O   UNL     1     -11.802   9.657  70.196  1.00  0.00    -0.169 OA 
BRANCH  36  37
HETATM   37  P   UNL     1     -11.530   8.607  71.545  1.00  0.00    -0.348 P  
HETATM   38  O   UNL     1     -11.994   7.378  70.751  1.00  0.00    -0.292 OA 
HETATM   39  O   UNL     1     -10.057   9.004  71.634  1.00  0.00    -0.316 OA 
BRANCH  37  40
HETATM   40  O   UNL     1     -11.258   7.558  72.893  1.00  0.00    -0.344 OA 
BRANCH  40  41
HETATM   41  C   UNL     1     -10.417   6.481  72.524  1.00  0.00    -0.205 C  
BRANCH  41  42
HETATM   42  C   UNL     1     -10.437   5.424  73.614  1.00  0.00    -0.257 C  
BRANCH  42  43
HETATM   43  N   UNL     1     -10.104   3.988  73.141  1.00  0.00    -0.137 N  
HETATM   44  C   UNL     1      -9.744   4.056  71.672  1.00  0.00    -0.172 C  
HETATM   45  C   UNL     1     -11.318   3.063  73.314  1.00  0.00    -0.039 C  
HETATM   46  C   UNL     1      -8.949   3.406  73.942  1.00  0.00    -0.087 C  
ENDBRANCH  42  43
ENDBRANCH  41  42
ENDBRANCH  40  41
ENDBRANCH  37  40
ENDBRANCH  36  37
ENDBRANCH  35  36
ENDBRANCH  18  35
ENDBRANCH  17  18
ENDBRANCH  16  17
ENDBRANCH  14  16
ENDBRANCH  13  14
ENDBRANCH  12  13
ENDBRANCH  11  12
ENDBRANCH  10  11
ENDBRANCH   9  10
ENDBRANCH   8   9
ENDBRANCH   7   8
ENDBRANCH   6   7
ENDBRANCH   5   6
ENDBRANCH   4   5
ENDBRANCH   3   4
ENDBRANCH   2   3
TORSDOF 36
ENDMDL
MODEL       48
REMARK 921   NORMALIZED FREE ENERGY PREDICTED BY IDOCK:   -2.69 KCAL/MOL
REMARK 922        TOTAL FREE ENERGY PREDICTED BY IDOCK:  -13.85 KCAL/MOL
REMARK 923 INTER-LIGAND FREE ENERGY PREDICTED BY IDOCK:  -10.13 KCAL/MOL
REMARK 924 INTRA-LIGAND FREE ENERGY PREDICTED BY IDOCK:   -3.71 KCAL/MOL
REMARK 927      BINDING AFFINITY PREDICTED BY RF-SCORE:    0.00 PKD
ROOT
HETATM    1  C   UNL     1      -9.514   4.842  69.377  1.00  0.00    -0.218 C  
HETATM    2  C   UNL     1     -10.763   5.692  69.219  1.00  0.00    -0.350 C  
ENDROOT
BRANCH   2   3
HETATM    3  C   UNL     1     -10.437   7.045  68.590  1.00  0.00    -0.224 C  
BRANCH   3   4
HETATM    4  C   UNL     1      -9.159   6.978  67.757  1.00  0.00    -0.126 C  
BRANCH   4   5
HETATM    5  C   UNL     1      -8.214   8.126  68.112  1.00  0.00    -0.129 C  
BRANCH   5   6
HETATM    6  C   UNL     1      -6.757   7.670  68.095  1.00  0.00    -0.059 C  
BRANCH   6   7
HETATM    7  C   UNL     1      -5.918   8.555  67.173  1.00  0.00    -0.054 C  
BRANCH   7   8
HETATM    8  C   UNL     1      -6.776   9.158  66.061  1.00  0.00    -0.076 C  
BRANCH   8   9
HETATM    9  C   UNL     1      -6.796   8.256  64.828  1.00  0.00    -0.067 C  
BRANCH   9  10
HETATM   10  C   UNL     1      -7.771   8.791  63.782  1.00  0.00    -0.133 C  
BRANCH  10  11
HETATM   11  C   UNL     1      -9.113   9.163  64.409  1.00  0.00    -0.023 C  
BRANCH  11  12
HETATM   12  C   UNL     1      -9.495  10.606  64.067  1.00  0.00    -0.329 C  
BRANCH  12  13
HETATM   13  C   UNL     1     -10.556  11.172  65.008  1.00  0.00    -0.340 C  
BRANCH  13  14
HETATM   14  C   UNL     1     -10.279  10.826  66.448  1.00  0.00    -0.240 C  
HETATM   15  O   UNL     1     -10.927  10.015  67.097  1.00  0.00    -0.226 OA 
BRANCH  14  16
HETATM   16  O   UNL     1      -9.188  11.506  66.891  1.00  0.00    -0.168 OA 
BRANCH  16  17
HETATM   17  C   UNL     1      -9.226  11.887  68.274  1.00  0.00    -0.187 C  
BRANCH  17  18
HETATM   18  C   UNL     1      -9.527  13.378  68.430  1.00  0.00    -0.176 C  
BRANCH  18  19
HETATM   19  O   UNL     1     -10.842  13.668  67.909  1.00  0.00    -0.243 OA 
BRANCH  19  20
HETATM   20  C   UNL     1     -11.742  14.109  68.822  1.00  0.00    -0.345 C  
HETATM   21  O   UNL     1     -12.113  15.266  68.954  1.00  0.00    -0.286 OA 
BRANCH  20  22
HETATM   22  C   UNL     1     -12.238  12.948  69.649  1.00  0.00    -0.203 C  
BRANCH  22  23
HETATM   23  C   UNL     1     -12.525  13.416  71.073  1.00  0.00    -0.437 C  
BRANCH  23  24
HETATM   24  C   UNL     1     -13.038  12.283  71.958  1.00  0.00    -0.461 C  
BRANCH  24  25
HETATM   25  C   UNL     1     -13.241  11.011  71.135  1.00  0.00    -0.176 C  
BRANCH  25  26
HETATM   26  C   UNL     1     -13.159   9.761  72.007  1.00  0.00    -0.546 C  
BRANCH  26  27
HETATM   27  C   UNL     1     -12.358   8.659  71.314  1.00  0.00    -0.298 C  
BRANCH  27  28
HETATM   28  C   UNL     1     -10.878   8.742  71.682  1.00  0.00    -0.399 C  
BRANCH  28  29
HETATM   29  C   UNL     1     -10.519   7.731  72.769  1.00  0.00    -0.390 C  
BRANCH  29  30
HETATM   30  C   UNL     1      -9.021   7.426  72.758  1.00  0.00    -0.179 C  
BRANCH  30  31
HETATM   31  C   UNL     1      -8.668   6.334  73.767  1.00  0.00    -0.127 C  
BRANCH  31  32
HETATM   32  C   UNL     1      -7.940   5.175  73.086  1.00  0.00    -0.104 C  
BRANCH  32  33
HETATM   33  C   UNL     1      -6.499   5.551  72.742  1.00  0.00    -0.065 C  
HETATM   34  C   UNL     1      -6.098   5.010  71.379  1.00  0.00    -0.022 C  
ENDBRANCH  32  33
ENDBRANCH  31  32
ENDBRANCH  30  31
ENDBRANCH  29  30
ENDBRANCH  28  29
ENDBRANCH  27  28
ENDBRANCH  26  27
ENDBRANCH  25  26
ENDBRANCH  24  25
ENDBRANCH  23  24
ENDBRANCH  22  23
ENDBRANCH  20  22
ENDBRANCH  19  20
ENDBRANCH  18  19
BRANCH  18  35
HETATM   35  C   UNL     1      -8.540  14.176  67.594  1.00  0.00    -0.189 C  
BRANCH  35  36
HETATM   36  O   UNL     1      -9.239  15.035  66.682  1.00  0.00    -0.241 OA 
BRANCH  36  37
HETATM   37  P   UNL     1      -8.681  16.671  66.765  1.00  0.00    -0.275 P  
HETATM   38  O   UNL     1      -7.297  16.285  66.227  1.00  0.00    -0.078 OA 
HETATM   39  O   UNL     1      -9.799  17.163  65.845  1.00  0.00    -0.486 OA 
BRANCH  37  40
HETATM   40  O   UNL     1      -8.124  18.307  66.847  1.00  0.00    -0.231 OA 
BRANCH  40  41
HETATM   41  C   UNL     1      -6.732  18.371  66.601  1.00  0.00    -0.194 C  
BRANCH  41  42
HETATM   42  C   UNL     1      -5.999  18.658  67.900  1.00  0.00    -0.190 C  
BRANCH  42  43
HETATM   43  N   UNL     1      -6.382  19.990  68.590  1.00  0.00    -0.283 N  
HETATM   44  C   UNL     1      -5.167  20.489  69.342  1.00  0.00    -0.279 C  
HETATM   45  C   UNL     1      -7.532  19.774  69.585  1.00  0.00     0.075 C  
HETATM   46  C   UNL     1      -6.832  21.022  67.567  1.00  0.00    -0.349 C  
ENDBRANCH  42  43
ENDBRANCH  41  42
ENDBRANCH  40  41
ENDBRANCH  37  40
ENDBRANCH  36  37
ENDBRANCH  35  36
ENDBRANCH  18  35
ENDBRANCH  17  18
ENDBRANCH  16  17
ENDBRANCH  14  16
ENDBRANCH  13  14
ENDBRANCH  12  13
ENDBRANCH  11  12
ENDBRANCH  10  11
ENDBRANCH   9  10
ENDBRANCH   8   9
ENDBRANCH   7   8
ENDBRANCH   6   7
ENDBRANCH   5   6
ENDBRANCH   4   5
ENDBRANCH   3   4
ENDBRANCH   2   3
TORSDOF 36
ENDMDL
MODEL       49
REMARK 921   NORMALIZED FREE ENERGY PREDICTED BY IDOCK:   -2.67 KCAL/MOL
REMARK 922        TOTAL FREE ENERGY PREDICTED BY IDOCK:  -13.79 KCAL/MOL
REMARK 923 INTER-LIGAND FREE ENERGY PREDICTED BY IDOCK:   -8.66 KCAL/MOL
REMARK 924 INTRA-LIGAND FREE ENERGY PREDICTED BY IDOCK:   -5.13 KCAL/MOL
REMARK 927      BINDING AFFINITY PREDICTED BY RF-SCORE:    0.00 PKD
ROOT
HETATM    1  C   UNL     1     -10.979  15.783  65.874  1.00  0.00    -0.191 C  
HETATM    2  C   UNL     1     -12.111  14.809  66.154  1.00  0.00    -0.100 C  
ENDROOT
BRANCH   2   3
HETATM    3  C   UNL     1     -11.788  13.415  65.618  1.00  0.00    -0.403 C  
BRANCH   3   4
HETATM    4  C   UNL     1     -10.280  13.183  65.547  1.00  0.00    -0.297 C  
BRANCH   4   5
HETATM    5  C   UNL     1      -9.874  12.638  64.178  1.00  0.00    -0.074 C  
BRANCH   5   6
HETATM    6  C   UNL     1     -10.860  11.579  63.689  1.00  0.00    -0.488 C  
BRANCH   6   7
HETATM    7  C   UNL     1     -10.152  10.250  63.430  1.00  0.00     0.181 C  
BRANCH   7   8
HETATM    8  C   UNL     1      -8.730  10.267  63.993  1.00  0.00    -0.211 C  
BRANCH   8   9
HETATM    9  C   UNL     1      -8.605   9.347  65.206  1.00  0.00    -0.182 C  
BRANCH   9  10
HETATM   10  C   UNL     1      -9.891   9.359  66.029  1.00  0.00    -0.366 C  
BRANCH  10  11
HETATM   11  C   UNL     1     -10.073   8.051  66.798  1.00  0.00    -0.357 C  
BRANCH  11  12
HETATM   12  C   UNL     1      -8.756   7.274  66.873  1.00  0.00    -0.126 C  
BRANCH  12  13
HETATM   13  C   UNL     1      -8.225   7.154  68.300  1.00  0.00    -0.124 C  
BRANCH  13  14
HETATM   14  C   UNL     1      -9.328   6.899  69.295  1.00  0.00    -0.144 C  
HETATM   15  O   UNL     1     -10.329   6.235  69.057  1.00  0.00    -0.172 OA 
BRANCH  14  16
HETATM   16  O   UNL     1      -9.022   7.472  70.489  1.00  0.00    -0.150 OA 
BRANCH  16  17
HETATM   17  C   UNL     1      -8.190   6.682  71.352  1.00  0.00    -0.116 C  
BRANCH  17  18
HETATM   18  C   UNL     1      -9.012   5.643  72.115  1.00  0.00    -0.137 C  
BRANCH  18  19
HETATM   19  O   UNL     1     -10.086   6.296  72.827  1.00  0.00    -0.175 OA 
BRANCH  19  20
HETATM   20  C   UNL     1     -11.300   5.704  72.711  1.00  0.00    -0.299 C  
HETATM   21  O   UNL     1     -11.626   4.643  73.222  1.00  0.00    -0.314 OA 
BRANCH  20  22
HETATM   22  C   UNL     1     -12.206   6.564  71.863  1.00  0.00    -0.373 C  
BRANCH  22  23
HETATM   23  C   UNL     1     -11.984   8.036  72.204  1.00  0.00    -0.399 C  
BRANCH  23  24
HETATM   24  C   UNL     1     -13.291   8.823  72.227  1.00  0.00    -0.460 C  
BRANCH  24  25
HETATM   25  C   UNL     1     -13.280   9.909  71.150  1.00  0.00    -0.424 C  
BRANCH  25  26
HETATM   26  C   UNL     1     -11.859  10.364  70.827  1.00  0.00    -0.466 C  
BRANCH  26  27
HETATM   27  C   UNL     1     -11.852  11.365  69.673  1.00  0.00    -0.431 C  
BRANCH  27  28
HETATM   28  C   UNL     1     -10.557  11.266  68.869  1.00  0.00    -0.239 C  
BRANCH  28  29
HETATM   29  C   UNL     1      -9.421  10.695  69.715  1.00  0.00     0.188 C  
BRANCH  29  30
HETATM   30  C   UNL     1      -8.157  10.506  68.876  1.00  0.00    -0.138 C  
BRANCH  30  31
HETATM   31  C   UNL     1      -7.228  11.713  68.990  1.00  0.00    -0.094 C  
BRANCH  31  32
HETATM   32  C   UNL     1      -7.299  12.579  67.732  1.00  0.00    -0.124 C  
BRANCH  32  33
HETATM   33  C   UNL     1      -8.091  13.861  67.985  1.00  0.00    -0.154 C  
HETATM   34  C   UNL     1      -7.507  15.031  67.208  1.00  0.00    -0.215 C  
ENDBRANCH  32  33
ENDBRANCH  31  32
ENDBRANCH  30  31
ENDBRANCH  29  30
ENDBRANCH  28  29
ENDBRANCH  27  28
ENDBRANCH  26  27
ENDBRANCH  25  26
ENDBRANCH  24  25
ENDBRANCH  23  24
ENDBRANCH  22  23
ENDBRANCH  20  22
ENDBRANCH  19  20
ENDBRANCH  18  19
BRANCH  18  35
HETATM   35  C   UNL     1      -8.131   4.984  73.164  1.00  0.00    -0.104 C  
BRANCH  35  36
HETATM   36  O   UNL     1      -8.333   3.564  73.165  1.00  0.00    -0.077 OA 
BRANCH  36  37
HETATM   37  P   UNL     1      -8.470   2.920  71.565  1.00  0.00    -0.066 P  
HETATM   38  O   UNL     1      -7.030   2.389  71.596  1.00  0.00    -0.029 OA 
HETATM   39  O   UNL     1      -9.663   2.046  71.953  1.00  0.00    -0.112 OA 
BRANCH  37  40
HETATM   40  O   UNL     1      -8.607   2.275  69.965  1.00  0.00    -0.046 OA 
BRANCH  40  41
HETATM   41  C   UNL     1      -8.862   3.310  69.032  1.00  0.00    -0.105 C  
BRANCH  41  42
HETATM   42  C   UNL     1      -9.270   2.704  67.700  1.00  0.00    -0.190 C  
BRANCH  42  43
HETATM   43  N   UNL     1      -8.225   2.847  66.567  1.00  0.00    -0.085 N  
HETATM   44  C   UNL     1      -8.937   3.386  65.345  1.00  0.00    -0.142 C  
HETATM   45  C   UNL     1      -7.606   1.483  66.224  1.00  0.00    -0.061 C  
HETATM   46  C   UNL     1      -7.100   3.784  66.981  1.00  0.00    -0.063 C  
ENDBRANCH  42  43
ENDBRANCH  41  42
ENDBRANCH  40  41
ENDBRANCH  37  40
ENDBRANCH  36  37
ENDBRANCH  35  36
ENDBRANCH  18  35
ENDBRANCH  17  18
ENDBRANCH  16  17
ENDBRANCH  14  16
ENDBRANCH  13  14
ENDBRANCH  12  13
ENDBRANCH  11  12
ENDBRANCH  10  11
ENDBRANCH   9  10
ENDBRANCH   8   9
ENDBRANCH   7   8
ENDBRANCH   6   7
ENDBRANCH   5   6
ENDBRANCH   4   5
ENDBRANCH   3   4
ENDBRANCH   2   3
TORSDOF 36
ENDMDL
MODEL       50
REMARK 921   NORMALIZED FREE ENERGY PREDICTED BY IDOCK:   -2.65 KCAL/MOL
REMARK 922        TOTAL FREE ENERGY PREDICTED BY IDOCK:  -13.72 KCAL/MOL
REMARK 923 INTER-LIGAND FREE ENERGY PREDICTED BY IDOCK:   -9.34 KCAL/MOL
REMARK 924 INTRA-LIGAND FREE ENERGY PREDICTED BY IDOCK:   -4.38 KCAL/MOL
REMARK 927      BINDING AFFINITY PREDICTED BY RF-SCORE:    0.00 PKD
ROOT
HETATM    1  C   UNL     1     -12.853  13.167  64.868  1.00  0.00    -0.349 C  
HETATM    2  C   UNL     1     -11.796  14.244  65.040  1.00  0.00    -0.396 C  
ENDROOT
BRANCH   2   3
HETATM    3  C   UNL     1     -10.871  13.931  66.215  1.00  0.00    -0.290 C  
BRANCH   3   4
HETATM    4  C   UNL     1     -11.365  12.720  67.003  1.00  0.00    -0.364 C  
BRANCH   4   5
HETATM    5  C   UNL     1     -11.471  13.042  68.493  1.00  0.00    -0.340 C  
BRANCH   5   6
HETATM    6  C   UNL     1     -11.812  14.513  68.719  1.00  0.00    -0.350 C  
BRANCH   6   7
HETATM    7  C   UNL     1     -10.728  15.207  69.543  1.00  0.00    -0.273 C  
BRANCH   7   8
HETATM    8  C   UNL     1     -10.759  16.720  69.326  1.00  0.00    -0.324 C  
BRANCH   8   9
HETATM    9  C   UNL     1     -10.431  17.078  67.878  1.00  0.00    -0.354 C  
BRANCH   9  10
HETATM   10  C   UNL     1      -8.964  16.788  67.568  1.00  0.00    -0.208 C  
BRANCH  10  11
HETATM   11  C   UNL     1      -8.039  17.438  68.596  1.00  0.00    -0.264 C  
BRANCH  11  12
HETATM   12  C   UNL     1      -6.924  16.474  69.014  1.00  0.00    -0.208 C  
BRANCH  12  13
HETATM   13  C   UNL     1      -7.443  15.070  69.312  1.00  0.00    -0.188 C  
BRANCH  13  14
HETATM   14  C   UNL     1      -6.901  14.049  68.345  1.00  0.00    -0.099 C  
HETATM   15  O   UNL     1      -6.070  14.294  67.481  1.00  0.00    -0.328 OA 
BRANCH  14  16
HETATM   16  O   UNL     1      -7.434  12.826  68.609  1.00  0.00    -0.116 OA 
BRANCH  16  17
HETATM   17  C   UNL     1      -7.756  12.037  67.454  1.00  0.00    -0.162 C  
BRANCH  17  18
HETATM   18  C   UNL     1      -7.885  10.556  67.813  1.00  0.00    -0.104 C  
BRANCH  18  19
HETATM   19  O   UNL     1      -8.873   9.933  66.965  1.00  0.00    -0.133 OA 
BRANCH  19  20
HETATM   20  C   UNL     1      -8.725  10.165  65.637  1.00  0.00    -0.158 C  
HETATM   21  O   UNL     1      -9.561  10.679  64.907  1.00  0.00    -0.223 OA 
BRANCH  20  22
HETATM   22  C   UNL     1      -7.358   9.708  65.190  1.00  0.00    -0.115 C  
BRANCH  22  23
HETATM   23  C   UNL     1      -7.187   8.222  65.496  1.00  0.00    -0.071 C  
BRANCH  23  24
HETATM   24  C   UNL     1      -8.391   7.400  65.043  1.00  0.00    -0.057 C  
BRANCH  24  25
HETATM   25  C   UNL     1      -8.677   6.276  66.040  1.00  0.00    -0.155 C  
BRANCH  25  26
HETATM   26  C   UNL     1      -7.651   6.255  67.170  1.00  0.00    -0.096 C  
BRANCH  26  27
HETATM   27  C   UNL     1      -7.651   4.906  67.886  1.00  0.00    -0.083 C  
BRANCH  27  28
HETATM   28  C   UNL     1      -9.076   4.442  68.182  1.00  0.00    -0.161 C  
BRANCH  28  29
HETATM   29  C   UNL     1      -9.368   3.093  67.527  1.00  0.00    -0.241 C  
BRANCH  29  30
HETATM   30  C   UNL     1      -8.198   2.645  66.652  1.00  0.00    -0.085 C  
BRANCH  30  31
HETATM   31  C   UNL     1      -8.569   2.671  65.170  1.00  0.00    -0.103 C  
BRANCH  31  32
HETATM   32  C   UNL     1      -7.318   2.693  64.293  1.00  0.00    -0.062 C  
BRANCH  32  33
HETATM   33  C   UNL     1      -7.088   4.078  63.689  1.00  0.00    -0.049 C  
HETATM   34  C   UNL     1      -5.695   4.596  64.012  1.00  0.00    -0.017 C  
ENDBRANCH  32  33
ENDBRANCH  31  32
ENDBRANCH  30  31
ENDBRANCH  29  30
ENDBRANCH  28  29
ENDBRANCH  27  28
ENDBRANCH  26  27
ENDBRANCH  25  26
ENDBRANCH  24  25
ENDBRANCH  23  24
ENDBRANCH  22  23
ENDBRANCH  20  22
ENDBRANCH  19  20
ENDBRANCH  18  19
BRANCH  18  35
HETATM   35  C   UNL     1      -8.395  10.432  69.240  1.00  0.00    -0.155 C  
BRANCH  35  36
HETATM   36  O   UNL     1      -9.826  10.330  69.252  1.00  0.00    -0.206 OA 
BRANCH  36  37
HETATM   37  P   UNL     1     -10.414   9.514  70.660  1.00  0.00    -0.309 P  
HETATM   38  O   UNL     1     -11.853   9.981  70.397  1.00  0.00    -0.266 OA 
HETATM   39  O   UNL     1      -9.899   8.162  70.166  1.00  0.00    -0.182 OA 
BRANCH  37  40
HETATM   40  O   UNL     1     -11.001   8.698  72.068  1.00  0.00    -0.316 OA 
BRANCH  40  41
HETATM   41  C   UNL     1      -9.925   8.194  72.836  1.00  0.00    -0.266 C  
BRANCH  41  42
HETATM   42  C   UNL     1     -10.399   7.011  73.662  1.00  0.00    -0.373 C  
BRANCH  42  43
HETATM   43  N   UNL     1      -9.867   5.633  73.200  1.00  0.00    -0.165 N  
HETATM   44  C   UNL     1      -8.355   5.686  73.231  1.00  0.00    -0.117 C  
HETATM   45  C   UNL     1     -10.327   5.326  71.767  1.00  0.00    -0.214 C  
HETATM   46  C   UNL     1     -10.376   4.522  74.107  1.00  0.00    -0.241 C  
ENDBRANCH  42  43
ENDBRANCH  41  42
ENDBRANCH  40  41
ENDBRANCH  37  40
ENDBRANCH  36  37
ENDBRANCH  35  36
ENDBRANCH  18  35
ENDBRANCH  17  18
ENDBRANCH  16  17
ENDBRANCH  14  16
ENDBRANCH  13  14
ENDBRANCH  12  13
ENDBRANCH  11  12
ENDBRANCH  10  11
ENDBRANCH   9  10
ENDBRANCH   8   9
ENDBRANCH   7   8
ENDBRANCH   6   7
ENDBRANCH   5   6
ENDBRANCH   4   5
ENDBRANCH   3   4
ENDBRANCH   2   3
TORSDOF 36
ENDMDL
MODEL       51
REMARK 921   NORMALIZED FREE ENERGY PREDICTED BY IDOCK:   -2.65 KCAL/MOL
REMARK 922        TOTAL FREE ENERGY PREDICTED BY IDOCK:  -13.70 KCAL/MOL
REMARK 923 INTER-LIGAND FREE ENERGY PREDICTED BY IDOCK:  -10.23 KCAL/MOL
REMARK 924 INTRA-LIGAND FREE ENERGY PREDICTED BY IDOCK:   -3.47 KCAL/MOL
REMARK 927      BINDING AFFINITY PREDICTED BY RF-SCORE:    0.00 PKD
ROOT
HETATM    1  C   UNL     1      -6.097  19.001  64.855  1.00  0.00    -0.307 C  
HETATM    2  C   UNL     1      -6.380  20.485  65.021  1.00  0.00    -0.325 C  
ENDROOT
BRANCH   2   3
HETATM    3  C   UNL     1      -6.606  20.845  66.488  1.00  0.00    -0.327 C  
BRANCH   3   4
HETATM    4  C   UNL     1      -7.630  19.917  67.137  1.00  0.00    -0.301 C  
BRANCH   4   5
HETATM    5  C   UNL     1      -9.013  20.567  67.173  1.00  0.00    -0.417 C  
BRANCH   5   6
HETATM    6  C   UNL     1      -9.953  19.927  66.155  1.00  0.00    -0.593 C  
BRANCH   6   7
HETATM    7  C   UNL     1     -10.246  18.471  66.520  1.00  0.00    -0.440 C  
BRANCH   7   8
HETATM    8  C   UNL     1     -10.598  18.339  68.003  1.00  0.00    -0.347 C  
BRANCH   8   9
HETATM    9  C   UNL     1     -10.362  16.914  68.501  1.00  0.00    -0.336 C  
BRANCH   9  10
HETATM   10  C   UNL     1     -11.526  16.005  68.113  1.00  0.00    -0.250 C  
BRANCH  10  11
HETATM   11  C   UNL     1     -11.087  14.544  68.028  1.00  0.00    -0.289 C  
BRANCH  11  12
HETATM   12  C   UNL     1     -11.959  13.659  68.922  1.00  0.00    -0.392 C  
BRANCH  12  13
HETATM   13  C   UNL     1     -11.612  12.177  68.800  1.00  0.00    -0.380 C  
BRANCH  13  14
HETATM   14  C   UNL     1     -11.277  11.789  67.383  1.00  0.00    -0.297 C  
HETATM   15  O   UNL     1     -12.082  11.794  66.461  1.00  0.00    -0.498 OA 
BRANCH  14  16
HETATM   16  O   UNL     1      -9.956  11.483  67.281  1.00  0.00    -0.189 OA 
BRANCH  16  17
HETATM   17  C   UNL     1      -9.270  11.311  68.530  1.00  0.00    -0.181 C  
BRANCH  17  18
HETATM   18  C   UNL     1      -8.739   9.885  68.679  1.00  0.00    -0.124 C  
BRANCH  18  19
HETATM   19  O   UNL     1      -8.595   9.279  67.376  1.00  0.00    -0.121 OA 
BRANCH  19  20
HETATM   20  C   UNL     1      -7.319   9.029  66.992  1.00  0.00    -0.087 C  
HETATM   21  O   UNL     1      -6.342   9.030  67.727  1.00  0.00    -0.055 OA 
BRANCH  20  22
HETATM   22  C   UNL     1      -7.282   8.730  65.513  1.00  0.00    -0.084 C  
BRANCH  22  23
HETATM   23  C   UNL     1      -8.505   7.903  65.125  1.00  0.00    -0.096 C  
BRANCH  23  24
HETATM   24  C   UNL     1      -8.151   6.442  64.861  1.00  0.00    -0.120 C  
BRANCH  24  25
HETATM   25  C   UNL     1      -9.160   5.515  65.540  1.00  0.00    -0.101 C  
BRANCH  25  26
HETATM   26  C   UNL     1      -9.764   6.161  66.784  1.00  0.00    -0.191 C  
BRANCH  26  27
HETATM   27  C   UNL     1      -9.506   5.309  68.026  1.00  0.00    -0.147 C  
BRANCH  27  28
HETATM   28  C   UNL     1      -8.018   5.007  68.184  1.00  0.00    -0.087 C  
BRANCH  28  29
HETATM   29  C   UNL     1      -7.583   5.110  69.645  1.00  0.00    -0.061 C  
BRANCH  29  30
HETATM   30  C   UNL     1      -7.115   6.526  69.977  1.00  0.00    -0.074 C  
BRANCH  30  31
HETATM   31  C   UNL     1      -5.625   6.555  70.318  1.00  0.00    -0.018 C  
BRANCH  31  32
HETATM   32  C   UNL     1      -5.381   7.274  71.644  1.00  0.00    -0.035 C  
BRANCH  32  33
HETATM   33  C   UNL     1      -6.541   8.207  71.992  1.00  0.00    -0.067 C  
HETATM   34  C   UNL     1      -6.385   9.557  71.311  1.00  0.00    -0.020 C  
ENDBRANCH  32  33
ENDBRANCH  31  32
ENDBRANCH  30  31
ENDBRANCH  29  30
ENDBRANCH  28  29
ENDBRANCH  27  28
ENDBRANCH  26  27
ENDBRANCH  25  26
ENDBRANCH  24  25
ENDBRANCH  23  24
ENDBRANCH  22  23
ENDBRANCH  20  22
ENDBRANCH  19  20
ENDBRANCH  18  19
BRANCH  18  35
HETATM   35  C   UNL     1      -9.758   9.050  69.437  1.00  0.00    -0.169 C  
BRANCH  35  36
HETATM   36  O   UNL     1     -10.222   9.759  70.595  1.00  0.00    -0.279 OA 
BRANCH  36  37
HETATM   37  P   UNL     1     -10.705   8.691  71.868  1.00  0.00    -0.356 P  
HETATM   38  O   UNL     1     -12.065   9.387  72.011  1.00  0.00    -0.362 OA 
HETATM   39  O   UNL     1     -10.515   7.457  70.987  1.00  0.00    -0.214 OA 
BRANCH  37  40
HETATM   40  O   UNL     1     -11.187   7.623  73.141  1.00  0.00    -0.391 OA 
BRANCH  40  41
HETATM   41  C   UNL     1     -10.106   6.799  73.536  1.00  0.00    -0.268 C  
BRANCH  41  42
HETATM   42  C   UNL     1     -10.638   5.465  74.030  1.00  0.00    -0.267 C  
BRANCH  42  43
HETATM   43  N   UNL     1      -9.893   4.220  73.489  1.00  0.00    -0.119 N  
HETATM   44  C   UNL     1      -8.460   4.294  73.970  1.00  0.00    -0.095 C  
HETATM   45  C   UNL     1      -9.905   4.206  71.953  1.00  0.00    -0.181 C  
HETATM   46  C   UNL     1     -10.550   2.938  73.979  1.00  0.00    -0.181 C  
ENDBRANCH  42  43
ENDBRANCH  41  42
ENDBRANCH  40  41
ENDBRANCH  37  40
ENDBRANCH  36  37
ENDBRANCH  35  36
ENDBRANCH  18  35
ENDBRANCH  17  18
ENDBRANCH  16  17
ENDBRANCH  14  16
ENDBRANCH  13  14
ENDBRANCH  12  13
ENDBRANCH  11  12
ENDBRANCH  10  11
ENDBRANCH   9  10
ENDBRANCH   8   9
ENDBRANCH   7   8
ENDBRANCH   6   7
ENDBRANCH   5   6
ENDBRANCH   4   5
ENDBRANCH   3   4
ENDBRANCH   2   3
TORSDOF 36
ENDMDL
MODEL       52
REMARK 921   NORMALIZED FREE ENERGY PREDICTED BY IDOCK:   -2.64 KCAL/MOL
REMARK 922        TOTAL FREE ENERGY PREDICTED BY IDOCK:  -13.69 KCAL/MOL
REMARK 923 INTER-LIGAND FREE ENERGY PREDICTED BY IDOCK:   -9.04 KCAL/MOL
REMARK 924 INTRA-LIGAND FREE ENERGY PREDICTED BY IDOCK:   -4.64 KCAL/MOL
REMARK 927      BINDING AFFINITY PREDICTED BY RF-SCORE:    0.00 PKD
ROOT
HETATM    1  C   UNL     1      -8.792  16.515  65.824  1.00  0.00     0.034 C  
HETATM    2  C   UNL     1      -9.826  15.444  65.523  1.00  0.00    -0.359 C  
ENDROOT
BRANCH   2   3
HETATM    3  C   UNL     1     -11.022  16.024  64.771  1.00  0.00    -0.373 C  
BRANCH   3   4
HETATM    4  C   UNL     1     -11.953  14.921  64.271  1.00  0.00    -0.355 C  
BRANCH   4   5
HETATM    5  C   UNL     1     -12.284  13.935  65.391  1.00  0.00    -0.463 C  
BRANCH   5   6
HETATM    6  C   UNL     1     -12.184  12.491  64.906  1.00  0.00    -0.534 C  
BRANCH   6   7
HETATM    7  C   UNL     1     -10.725  12.086  64.693  1.00  0.00    -0.355 C  
BRANCH   7   8
HETATM    8  C   UNL     1     -10.583  10.565  64.630  1.00  0.00    -0.041 C  
BRANCH   8   9
HETATM    9  C   UNL     1      -9.307  10.159  63.893  1.00  0.00    -0.336 C  
BRANCH   9  10
HETATM   10  C   UNL     1      -8.152   9.973  64.874  1.00  0.00    -0.154 C  
BRANCH  10  11
HETATM   11  C   UNL     1      -7.438   8.642  64.648  1.00  0.00    -0.102 C  
BRANCH  11  12
HETATM   12  C   UNL     1      -8.365   7.464  64.962  1.00  0.00    -0.057 C  
BRANCH  12  13
HETATM   13  C   UNL     1      -8.626   7.304  66.458  1.00  0.00    -0.134 C  
BRANCH  13  14
HETATM   14  C   UNL     1      -9.960   6.660  66.735  1.00  0.00    -0.176 C  
HETATM   15  O   UNL     1     -10.319   5.592  66.257  1.00  0.00    -0.201 OA 
BRANCH  14  16
HETATM   16  O   UNL     1     -10.669   7.413  67.617  1.00  0.00    -0.237 OA 
BRANCH  16  17
HETATM   17  C   UNL     1     -10.414   7.135  69.002  1.00  0.00    -0.211 C  
BRANCH  17  18
HETATM   18  C   UNL     1     -10.009   8.402  69.756  1.00  0.00    -0.191 C  
BRANCH  18  19
HETATM   19  O   UNL     1      -8.574   8.442  69.910  1.00  0.00    -0.127 OA 
BRANCH  19  20
HETATM   20  C   UNL     1      -8.005   9.657  69.713  1.00  0.00    -0.151 C  
HETATM   21  O   UNL     1      -7.468  10.340  70.573  1.00  0.00    -0.250 OA 
BRANCH  20  22
HETATM   22  C   UNL     1      -8.117  10.040  68.257  1.00  0.00    -0.104 C  
BRANCH  22  23
HETATM   23  C   UNL     1      -8.660  11.462  68.140  1.00  0.00    -0.153 C  
BRANCH  23  24
HETATM   24  C   UNL     1     -10.124  11.554  68.562  1.00  0.00    -0.211 C  
BRANCH  24  25
HETATM   25  C   UNL     1     -10.568  13.016  68.634  1.00  0.00    -0.257 C  
BRANCH  25  26
HETATM   26  C   UNL     1     -11.733  13.200  69.603  1.00  0.00    -0.370 C  
BRANCH  26  27
HETATM   27  C   UNL     1     -11.658  14.558  70.299  1.00  0.00    -0.328 C  
BRANCH  27  28
HETATM   28  C   UNL     1     -12.294  15.650  69.440  1.00  0.00    -0.096 C  
BRANCH  28  29
HETATM   29  C   UNL     1     -11.261  16.311  68.528  1.00  0.00    -0.359 C  
BRANCH  29  30
HETATM   30  C   UNL     1     -10.050  16.786  69.329  1.00  0.00    -0.240 C  
BRANCH  30  31
HETATM   31  C   UNL     1      -9.598  18.176  68.882  1.00  0.00    -0.247 C  
BRANCH  31  32
HETATM   32  C   UNL     1     -10.613  19.241  69.296  1.00  0.00     0.549 C  
BRANCH  32  33
HETATM   33  C   UNL     1     -10.376  20.553  68.550  1.00  0.00    -0.004 C  
HETATM   34  C   UNL     1      -9.478  20.346  67.341  1.00  0.00    -0.561 C  
ENDBRANCH  32  33
ENDBRANCH  31  32
ENDBRANCH  30  31
ENDBRANCH  29  30
ENDBRANCH  28  29
ENDBRANCH  27  28
ENDBRANCH  26  27
ENDBRANCH  25  26
ENDBRANCH  24  25
ENDBRANCH  23  24
ENDBRANCH  22  23
ENDBRANCH  20  22
ENDBRANCH  19  20
ENDBRANCH  18  19
BRANCH  18  35
HETATM   35  C   UNL     1     -10.596   8.357  71.157  1.00  0.00    -0.215 C  
BRANCH  35  36
HETATM   36  O   UNL     1      -9.574   8.055  72.118  1.00  0.00    -0.179 OA 
BRANCH  36  37
HETATM   37  P   UNL     1     -10.022   6.753  73.166  1.00  0.00    -0.239 P  
HETATM   38  O   UNL     1      -8.694   6.840  73.931  1.00  0.00    -0.133 OA 
HETATM   39  O   UNL     1     -11.278   7.485  73.639  1.00  0.00    -0.200 OA 
BRANCH  37  40
HETATM   40  O   UNL     1     -10.470   5.451  74.214  1.00  0.00    -0.276 OA 
BRANCH  40  41
HETATM   41  C   UNL     1     -10.797   4.297  73.462  1.00  0.00    -0.267 C  
BRANCH  41  42
HETATM   42  C   UNL     1     -10.221   4.423  72.062  1.00  0.00    -0.163 C  
BRANCH  42  43
HETATM   43  N   UNL     1      -9.223   3.310  71.661  1.00  0.00    -0.107 N  
HETATM   44  C   UNL     1      -9.008   2.424  72.869  1.00  0.00    -0.070 C  
HETATM   45  C   UNL     1      -7.875   3.915  71.240  1.00  0.00    -0.060 C  
HETATM   46  C   UNL     1      -9.759   2.494  70.495  1.00  0.00     0.021 C  
ENDBRANCH  42  43
ENDBRANCH  41  42
ENDBRANCH  40  41
ENDBRANCH  37  40
ENDBRANCH  36  37
ENDBRANCH  35  36
ENDBRANCH  18  35
ENDBRANCH  17  18
ENDBRANCH  16  17
ENDBRANCH  14  16
ENDBRANCH  13  14
ENDBRANCH  12  13
ENDBRANCH  11  12
ENDBRANCH  10  11
ENDBRANCH   9  10
ENDBRANCH   8   9
ENDBRANCH   7   8
ENDBRANCH   6   7
ENDBRANCH   5   6
ENDBRANCH   4   5
ENDBRANCH   3   4
ENDBRANCH   2   3
TORSDOF 36
ENDMDL
MODEL       53
REMARK 921   NORMALIZED FREE ENERGY PREDICTED BY IDOCK:   -2.61 KCAL/MOL
REMARK 922        TOTAL FREE ENERGY PREDICTED BY IDOCK:  -13.59 KCAL/MOL
REMARK 923 INTER-LIGAND FREE ENERGY PREDICTED BY IDOCK:   -9.81 KCAL/MOL
REMARK 924 INTRA-LIGAND FREE ENERGY PREDICTED BY IDOCK:   -3.78 KCAL/MOL
REMARK 927      BINDING AFFINITY PREDICTED BY RF-SCORE:    0.00 PKD
ROOT
HETATM    1  C   UNL     1      -6.078  18.872  65.051  1.00  0.00    -0.317 C  
HETATM    2  C   UNL     1      -6.772  20.221  65.145  1.00  0.00    -0.337 C  
ENDROOT
BRANCH   2   3
HETATM    3  C   UNL     1      -6.925  20.665  66.598  1.00  0.00    -0.322 C  
BRANCH   3   4
HETATM    4  C   UNL     1      -7.888  19.755  67.359  1.00  0.00    -0.311 C  
BRANCH   4   5
HETATM    5  C   UNL     1      -9.279  20.381  67.447  1.00  0.00    -0.513 C  
BRANCH   5   6
HETATM    6  C   UNL     1     -10.203  19.834  66.362  1.00  0.00    -0.614 C  
BRANCH   6   7
HETATM    7  C   UNL     1     -10.201  18.305  66.362  1.00  0.00    -0.417 C  
BRANCH   7   8
HETATM    8  C   UNL     1     -10.722  17.756  67.690  1.00  0.00    -0.330 C  
BRANCH   8   9
HETATM    9  C   UNL     1     -10.243  16.324  67.922  1.00  0.00    -0.261 C  
BRANCH   9  10
HETATM   10  C   UNL     1     -11.272  15.319  67.408  1.00  0.00    -0.311 C  
BRANCH  10  11
HETATM   11  C   UNL     1     -10.881  13.887  67.769  1.00  0.00    -0.261 C  
BRANCH  11  12
HETATM   12  C   UNL     1     -11.441  13.496  69.140  1.00  0.00    -0.345 C  
BRANCH  12  13
HETATM   13  C   UNL     1     -11.480  11.984  69.349  1.00  0.00    -0.361 C  
BRANCH  13  14
HETATM   14  C   UNL     1     -11.024  11.231  68.126  1.00  0.00    -0.231 C  
HETATM   15  O   UNL     1     -11.744  10.972  67.171  1.00  0.00    -0.456 OA 
BRANCH  14  16
HETATM   16  O   UNL     1      -9.702  10.931  68.228  1.00  0.00    -0.154 OA 
BRANCH  16  17
HETATM   17  C   UNL     1      -9.281  10.446  69.511  1.00  0.00    -0.120 C  
BRANCH  17  18
HETATM   18  C   UNL     1      -8.905   8.965  69.447  1.00  0.00    -0.143 C  
BRANCH  18  19
HETATM   19  O   UNL     1      -8.508   8.619  68.103  1.00  0.00    -0.128 OA 
BRANCH  19  20
HETATM   20  C   UNL     1      -7.170   8.579  67.887  1.00  0.00    -0.088 C  
HETATM   21  O   UNL     1      -6.346   8.051  68.620  1.00  0.00    -0.049 OA 
BRANCH  20  22
HETATM   22  C   UNL     1      -6.844   9.274  66.587  1.00  0.00    -0.080 C  
BRANCH  22  23
HETATM   23  C   UNL     1      -7.028   8.302  65.424  1.00  0.00    -0.063 C  
BRANCH  23  24
HETATM   24  C   UNL     1      -6.071   7.116  65.509  1.00  0.00    -0.037 C  
BRANCH  24  25
HETATM   25  C   UNL     1      -6.666   5.897  64.802  1.00  0.00    -0.046 C  
BRANCH  25  26
HETATM   26  C   UNL     1      -7.872   6.278  63.948  1.00  0.00    -0.112 C  
BRANCH  26  27
HETATM   27  C   UNL     1      -8.534   5.038  63.348  1.00  0.00    -0.123 C  
BRANCH  27  28
HETATM   28  C   UNL     1      -8.149   3.781  64.126  1.00  0.00    -0.089 C  
BRANCH  28  29
HETATM   29  C   UNL     1      -9.330   3.246  64.935  1.00  0.00    -0.149 C  
BRANCH  29  30
HETATM   30  C   UNL     1     -10.112   4.389  65.581  1.00  0.00    -0.256 C  
BRANCH  30  31
HETATM   31  C   UNL     1      -9.976   4.365  67.103  1.00  0.00    -0.182 C  
BRANCH  31  32
HETATM   32  C   UNL     1      -8.892   5.336  67.571  1.00  0.00    -0.105 C  
BRANCH  32  33
HETATM   33  C   UNL     1      -7.654   4.589  68.064  1.00  0.00    -0.077 C  
HETATM   34  C   UNL     1      -7.478   4.745  69.567  1.00  0.00    -0.056 C  
ENDBRANCH  32  33
ENDBRANCH  31  32
ENDBRANCH  30  31
ENDBRANCH  29  30
ENDBRANCH  28  29
ENDBRANCH  27  28
ENDBRANCH  26  27
ENDBRANCH  25  26
ENDBRANCH  24  25
ENDBRANCH  23  24
ENDBRANCH  22  23
ENDBRANCH  20  22
ENDBRANCH  19  20
ENDBRANCH  18  19
BRANCH  18  35
HETATM   35  C   UNL     1     -10.130   8.126  69.770  1.00  0.00    -0.197 C  
BRANCH  35  36
HETATM   36  O   UNL     1     -10.518   8.312  71.139  1.00  0.00    -0.202 OA 
BRANCH  36  37
HETATM   37  P   UNL     1     -11.247   6.896  71.813  1.00  0.00    -0.278 P  
HETATM   38  O   UNL     1     -12.661   7.431  71.547  1.00  0.00    -0.343 OA 
HETATM   39  O   UNL     1     -10.529   5.980  70.822  1.00  0.00    -0.215 OA 
BRANCH  37  40
HETATM   40  O   UNL     1     -11.977   5.479  72.487  1.00  0.00    -0.223 OA 
BRANCH  40  41
HETATM   41  C   UNL     1     -11.210   4.995  73.574  1.00  0.00    -0.269 C  
BRANCH  41  42
HETATM   42  C   UNL     1     -11.096   3.483  73.482  1.00  0.00    -0.221 C  
BRANCH  42  43
HETATM   43  N   UNL     1      -9.716   2.957  73.016  1.00  0.00    -0.104 N  
HETATM   44  C   UNL     1      -9.365   1.757  73.869  1.00  0.00    -0.071 C  
HETATM   45  C   UNL     1      -8.635   4.033  73.199  1.00  0.00    -0.092 C  
HETATM   46  C   UNL     1      -9.751   2.569  71.546  1.00  0.00    -0.152 C  
ENDBRANCH  42  43
ENDBRANCH  41  42
ENDBRANCH  40  41
ENDBRANCH  37  40
ENDBRANCH  36  37
ENDBRANCH  35  36
ENDBRANCH  18  35
ENDBRANCH  17  18
ENDBRANCH  16  17
ENDBRANCH  14  16
ENDBRANCH  13  14
ENDBRANCH  12  13
ENDBRANCH  11  12
ENDBRANCH  10  11
ENDBRANCH   9  10
ENDBRANCH   8   9
ENDBRANCH   7   8
ENDBRANCH   6   7
ENDBRANCH   5   6
ENDBRANCH   4   5
ENDBRANCH   3   4
ENDBRANCH   2   3
TORSDOF 36
ENDMDL
MODEL       54
REMARK 921   NORMALIZED FREE ENERGY PREDICTED BY IDOCK:   -2.56 KCAL/MOL
REMARK 922        TOTAL FREE ENERGY PREDICTED BY IDOCK:  -13.43 KCAL/MOL
REMARK 923 INTER-LIGAND FREE ENERGY PREDICTED BY IDOCK:   -9.82 KCAL/MOL
REMARK 924 INTRA-LIGAND FREE ENERGY PREDICTED BY IDOCK:   -3.61 KCAL/MOL
REMARK 927      BINDING AFFINITY PREDICTED BY RF-SCORE:    0.00 PKD
ROOT
HETATM    1  C   UNL     1     -14.010  14.654  72.402  1.00  0.00    -0.578 C  
HETATM    2  C   UNL     1     -12.653  15.129  71.911  1.00  0.00    -0.417 C  
ENDROOT
BRANCH   2   3
HETATM    3  C   UNL     1     -12.689  15.466  70.421  1.00  0.00    -0.407 C  
BRANCH   3   4
HETATM    4  C   UNL     1     -11.373  16.088  69.960  1.00  0.00    -0.353 C  
BRANCH   4   5
HETATM    5  C   UNL     1     -11.037  15.660  68.532  1.00  0.00    -0.322 C  
BRANCH   5   6
HETATM    6  C   UNL     1     -10.061  16.635  67.876  1.00  0.00    -0.270 C  
BRANCH   6   7
HETATM    7  C   UNL     1      -8.640  16.072  67.880  1.00  0.00    -0.165 C  
BRANCH   7   8
HETATM    8  C   UNL     1      -7.716  16.921  68.754  1.00  0.00    -0.247 C  
BRANCH   8   9
HETATM    9  C   UNL     1      -6.392  16.206  69.014  1.00  0.00    -0.148 C  
BRANCH   9  10
HETATM   10  C   UNL     1      -6.626  14.873  69.722  1.00  0.00    -0.170 C  
BRANCH  10  11
HETATM   11  C   UNL     1      -5.496  13.885  69.438  1.00  0.00    -0.084 C  
BRANCH  11  12
HETATM   12  C   UNL     1      -5.545  12.704  70.411  1.00  0.00    -0.167 C  
BRANCH  12  13
HETATM   13  C   UNL     1      -5.471  11.354  69.700  1.00  0.00    -0.059 C  
BRANCH  13  14
HETATM   14  C   UNL     1      -6.640  10.468  70.044  1.00  0.00    -0.144 C  
HETATM   15  O   UNL     1      -7.035  10.263  71.185  1.00  0.00    -0.210 OA 
BRANCH  14  16
HETATM   16  O   UNL     1      -7.206   9.978  68.909  1.00  0.00    -0.072 OA 
BRANCH  16  17
HETATM   17  C   UNL     1      -8.467  10.562  68.553  1.00  0.00    -0.131 C  
BRANCH  17  18
HETATM   18  C   UNL     1      -9.608   9.557  68.712  1.00  0.00    -0.157 C  
BRANCH  18  19
HETATM   19  O   UNL     1     -10.329   9.824  69.934  1.00  0.00    -0.219 OA 
BRANCH  19  20
HETATM   20  C   UNL     1     -11.281  10.785  69.845  1.00  0.00    -0.300 C  
HETATM   21  O   UNL     1     -11.728  11.433  70.781  1.00  0.00    -0.241 OA 
BRANCH  20  22
HETATM   22  C   UNL     1     -11.702  10.953  68.405  1.00  0.00    -0.290 C  
BRANCH  22  23
HETATM   23  C   UNL     1     -11.884  12.436  68.092  1.00  0.00    -0.372 C  
BRANCH  23  24
HETATM   24  C   UNL     1     -11.800  12.721  66.595  1.00  0.00    -0.462 C  
BRANCH  24  25
HETATM   25  C   UNL     1     -10.367  13.076  66.197  1.00  0.00    -0.285 C  
BRANCH  25  26
HETATM   26  C   UNL     1     -10.243  13.308  64.694  1.00  0.00    -0.334 C  
BRANCH  26  27
HETATM   27  C   UNL     1     -11.295  12.509  63.927  1.00  0.00    -0.504 C  
BRANCH  27  28
HETATM   28  C   UNL     1     -10.659  11.335  63.186  1.00  0.00    -0.233 C  
BRANCH  28  29
HETATM   29  C   UNL     1      -9.252  11.046  63.707  1.00  0.00    -0.191 C  
BRANCH  29  30
HETATM   30  C   UNL     1      -9.289  10.020  64.839  1.00  0.00    -0.324 C  
BRANCH  30  31
HETATM   31  C   UNL     1      -7.993   9.214  64.903  1.00  0.00    -0.123 C  
BRANCH  31  32
HETATM   32  C   UNL     1      -8.283   7.716  64.990  1.00  0.00    -0.116 C  
BRANCH  32  33
HETATM   33  C   UNL     1      -7.133   6.893  64.412  1.00  0.00    -0.062 C  
HETATM   34  C   UNL     1      -6.051   7.790  63.832  1.00  0.00    -0.057 C  
ENDBRANCH  32  33
ENDBRANCH  31  32
ENDBRANCH  30  31
ENDBRANCH  29  30
ENDBRANCH  28  29
ENDBRANCH  27  28
ENDBRANCH  26  27
ENDBRANCH  25  26
ENDBRANCH  24  25
ENDBRANCH  23  24
ENDBRANCH  22  23
ENDBRANCH  20  22
ENDBRANCH  19  20
ENDBRANCH  18  19
BRANCH  18  35
HETATM   35  C   UNL     1      -9.026   8.159  68.846  1.00  0.00    -0.141 C  
BRANCH  35  36
HETATM   36  O   UNL     1     -10.053   7.172  68.678  1.00  0.00    -0.162 OA 
BRANCH  36  37
HETATM   37  P   UNL     1     -10.216   6.152  70.066  1.00  0.00    -0.232 P  
HETATM   38  O   UNL     1     -11.748   6.212  69.999  1.00  0.00    -0.336 OA 
HETATM   39  O   UNL     1      -9.420   5.025  69.408  1.00  0.00    -0.121 OA 
BRANCH  37  40
HETATM   40  O   UNL     1     -10.379   5.132  71.454  1.00  0.00    -0.210 OA 
BRANCH  40  41
HETATM   41  C   UNL     1      -9.140   5.007  72.128  1.00  0.00    -0.132 C  
BRANCH  41  42
HETATM   42  C   UNL     1      -8.831   3.537  72.354  1.00  0.00    -0.088 C  
BRANCH  42  43
HETATM   43  N   UNL     1      -7.528   3.254  73.141  1.00  0.00    -0.054 N  
HETATM   44  C   UNL     1      -6.572   2.538  72.211  1.00  0.00    -0.015 C  
HETATM   45  C   UNL     1      -7.811   2.357  74.355  1.00  0.00    -0.047 C  
HETATM   46  C   UNL     1      -6.906   4.548  73.645  1.00  0.00    -0.065 C  
ENDBRANCH  42  43
ENDBRANCH  41  42
ENDBRANCH  40  41
ENDBRANCH  37  40
ENDBRANCH  36  37
ENDBRANCH  35  36
ENDBRANCH  18  35
ENDBRANCH  17  18
ENDBRANCH  16  17
ENDBRANCH  14  16
ENDBRANCH  13  14
ENDBRANCH  12  13
ENDBRANCH  11  12
ENDBRANCH  10  11
ENDBRANCH   9  10
ENDBRANCH   8   9
ENDBRANCH   7   8
ENDBRANCH   6   7
ENDBRANCH   5   6
ENDBRANCH   4   5
ENDBRANCH   3   4
ENDBRANCH   2   3
TORSDOF 36
ENDMDL
MODEL       55
REMARK 921   NORMALIZED FREE ENERGY PREDICTED BY IDOCK:   -2.41 KCAL/MOL
REMARK 922        TOTAL FREE ENERGY PREDICTED BY IDOCK:  -12.97 KCAL/MOL
REMARK 923 INTER-LIGAND FREE ENERGY PREDICTED BY IDOCK:   -8.05 KCAL/MOL
REMARK 924 INTRA-LIGAND FREE ENERGY PREDICTED BY IDOCK:   -4.92 KCAL/MOL
REMARK 927      BINDING AFFINITY PREDICTED BY RF-SCORE:    0.00 PKD
ROOT
HETATM    1  C   UNL     1     -10.512   3.672  63.988  1.00  0.00    -0.271 C  
HETATM    2  C   UNL     1     -10.503   4.377  65.334  1.00  0.00    -0.219 C  
ENDROOT
BRANCH   2   3
HETATM    3  C   UNL     1      -9.245   4.036  66.130  1.00  0.00    -0.155 C  
BRANCH   3   4
HETATM    4  C   UNL     1      -8.384   3.010  65.397  1.00  0.00    -0.097 C  
BRANCH   4   5
HETATM    5  C   UNL     1      -6.928   3.469  65.324  1.00  0.00    -0.060 C  
BRANCH   5   6
HETATM    6  C   UNL     1      -6.484   3.676  63.878  1.00  0.00    -0.034 C  
BRANCH   6   7
HETATM    7  C   UNL     1      -6.956   5.030  63.348  1.00  0.00    -0.046 C  
BRANCH   7   8
HETATM    8  C   UNL     1      -5.828   6.061  63.401  1.00  0.00    -0.022 C  
BRANCH   8   9
HETATM    9  C   UNL     1      -6.361   7.475  63.173  1.00  0.00    -0.055 C  
BRANCH   9  10
HETATM   10  C   UNL     1      -7.751   7.634  63.785  1.00  0.00    -0.126 C  
BRANCH  10  11
HETATM   11  C   UNL     1      -7.680   8.276  65.170  1.00  0.00    -0.102 C  
BRANCH  11  12
HETATM   12  C   UNL     1      -8.798   7.750  66.074  1.00  0.00    -0.189 C  
BRANCH  12  13
HETATM   13  C   UNL     1      -8.812   8.423  67.444  1.00  0.00    -0.140 C  
BRANCH  13  14
HETATM   14  C   UNL     1      -9.015   9.912  67.341  1.00  0.00    -0.135 C  
HETATM   15  O   UNL     1     -10.039  10.439  66.924  1.00  0.00    -0.201 OA 
BRANCH  14  16
HETATM   16  O   UNL     1      -7.925  10.568  67.820  1.00  0.00    -0.104 OA 
BRANCH  16  17
HETATM   17  C   UNL     1      -7.934  10.822  69.232  1.00  0.00    -0.106 C  
BRANCH  17  18
HETATM   18  C   UNL     1      -6.561  10.559  69.851  1.00  0.00    -0.130 C  
BRANCH  18  19
HETATM   19  O   UNL     1      -6.719   9.977  71.163  1.00  0.00    -0.338 OA 
BRANCH  19  20
HETATM   20  C   UNL     1      -6.770   8.622  71.192  1.00  0.00    -0.068 C  
HETATM   21  O   UNL     1      -6.427   7.878  70.285  1.00  0.00    -0.037 OA 
BRANCH  20  22
HETATM   22  C   UNL     1      -7.300   8.162  72.528  1.00  0.00    -0.138 C  
BRANCH  22  23
HETATM   23  C   UNL     1      -7.959   6.794  72.376  1.00  0.00    -0.098 C  
BRANCH  23  24
HETATM   24  C   UNL     1      -7.183   5.698  73.101  1.00  0.00    -0.094 C  
BRANCH  24  25
HETATM   25  C   UNL     1      -7.924   4.364  73.004  1.00  0.00    -0.094 C  
BRANCH  25  26
HETATM   26  C   UNL     1      -9.212   4.495  72.196  1.00  0.00    -0.165 C  
BRANCH  26  27
HETATM   27  C   UNL     1      -9.312   3.396  71.139  1.00  0.00    -0.208 C  
BRANCH  27  28
HETATM   28  C   UNL     1      -9.668   3.979  69.773  1.00  0.00    -0.254 C  
BRANCH  28  29
HETATM   29  C   UNL     1      -9.626   5.506  69.793  1.00  0.00    -0.215 C  
BRANCH  29  30
HETATM   30  C   UNL     1     -10.920   6.096  69.235  1.00  0.00    -0.450 C  
BRANCH  30  31
HETATM   31  C   UNL     1     -11.832   6.597  70.354  1.00  0.00    -0.407 C  
BRANCH  31  32
HETATM   32  C   UNL     1     -11.076   7.531  71.298  1.00  0.00    -0.267 C  
BRANCH  32  33
HETATM   33  C   UNL     1     -10.575   8.775  70.565  1.00  0.00    -0.252 C  
HETATM   34  C   UNL     1     -11.551   9.931  70.710  1.00  0.00    -0.430 C  
ENDBRANCH  32  33
ENDBRANCH  31  32
ENDBRANCH  30  31
ENDBRANCH  29  30
ENDBRANCH  28  29
ENDBRANCH  27  28
ENDBRANCH  26  27
ENDBRANCH  25  26
ENDBRANCH  24  25
ENDBRANCH  23  24
ENDBRANCH  22  23
ENDBRANCH  20  22
ENDBRANCH  19  20
ENDBRANCH  18  19
BRANCH  18  35
HETATM   35  C   UNL     1      -5.840  11.883  70.046  1.00  0.00    -0.150 C  
BRANCH  35  36
HETATM   36  O   UNL     1      -5.574  12.499  68.778  1.00  0.00    -0.060 OA 
BRANCH  36  37
HETATM   37  P   UNL     1      -5.903  14.198  68.792  1.00  0.00    -0.097 P  
HETATM   38  O   UNL     1      -6.409  14.167  67.343  1.00  0.00    -0.324 OA 
HETATM   39  O   UNL     1      -6.851  14.067  69.983  1.00  0.00    -0.022 OA 
BRANCH  37  40
HETATM   40  O   UNL     1      -6.232  15.897  68.805  1.00  0.00    -0.106 OA 
BRANCH  40  41
HETATM   41  C   UNL     1      -7.291  16.205  67.918  1.00  0.00    -0.129 C  
BRANCH  41  42
HETATM   42  C   UNL     1      -8.572  16.410  68.708  1.00  0.00    -0.250 C  
BRANCH  42  43
HETATM   43  N   UNL     1      -9.753  16.999  67.900  1.00  0.00    -0.257 N  
HETATM   44  C   UNL     1      -9.706  18.505  68.041  1.00  0.00    -0.327 C  
HETATM   45  C   UNL     1     -11.094  16.488  68.448  1.00  0.00    -0.333 C  
HETATM   46  C   UNL     1      -9.661  16.603  66.434  1.00  0.00    -0.285 C  
ENDBRANCH  42  43
ENDBRANCH  41  42
ENDBRANCH  40  41
ENDBRANCH  37  40
ENDBRANCH  36  37
ENDBRANCH  35  36
ENDBRANCH  18  35
ENDBRANCH  17  18
ENDBRANCH  16  17
ENDBRANCH  14  16
ENDBRANCH  13  14
ENDBRANCH  12  13
ENDBRANCH  11  12
ENDBRANCH  10  11
ENDBRANCH   9  10
ENDBRANCH   8   9
ENDBRANCH   7   8
ENDBRANCH   6   7
ENDBRANCH   5   6
ENDBRANCH   4   5
ENDBRANCH   3   4
ENDBRANCH   2   3
TORSDOF 36
ENDMDL
MODEL       56
REMARK 921   NORMALIZED FREE ENERGY PREDICTED BY IDOCK:   -2.34 KCAL/MOL
REMARK 922        TOTAL FREE ENERGY PREDICTED BY IDOCK:  -12.76 KCAL/MOL
REMARK 923 INTER-LIGAND FREE ENERGY PREDICTED BY IDOCK:   -9.12 KCAL/MOL
REMARK 924 INTRA-LIGAND FREE ENERGY PREDICTED BY IDOCK:   -3.64 KCAL/MOL
REMARK 927      BINDING AFFINITY PREDICTED BY RF-SCORE:    0.00 PKD
ROOT
HETATM    1  C   UNL     1     -11.734  13.470  69.732  1.00  0.00    -0.363 C  
HETATM    2  C   UNL     1     -10.690  14.359  69.078  1.00  0.00    -0.261 C  
ENDROOT
BRANCH   2   3
HETATM    3  C   UNL     1      -9.370  13.615  68.886  1.00  0.00     0.145 C  
BRANCH   3   4
HETATM    4  C   UNL     1      -8.198  14.586  68.754  1.00  0.00    -0.146 C  
BRANCH   4   5
HETATM    5  C   UNL     1      -7.233  14.133  67.659  1.00  0.00    -0.195 C  
BRANCH   5   6
HETATM    6  C   UNL     1      -5.903  13.671  68.249  1.00  0.00    -0.103 C  
BRANCH   6   7
HETATM    7  C   UNL     1      -6.086  12.408  69.090  1.00  0.00    -0.087 C  
BRANCH   7   8
HETATM    8  C   UNL     1      -5.817  11.153  68.259  1.00  0.00    -0.045 C  
BRANCH   8   9
HETATM    9  C   UNL     1      -7.027  10.787  67.402  1.00  0.00    -0.083 C  
BRANCH   9  10
HETATM   10  C   UNL     1      -7.564   9.410  67.783  1.00  0.00    -0.088 C  
BRANCH  10  11
HETATM   11  C   UNL     1      -8.149   9.410  69.194  1.00  0.00    -0.107 C  
BRANCH  11  12
HETATM   12  C   UNL     1      -9.643   9.744  69.167  1.00  0.00    -0.192 C  
BRANCH  12  13
HETATM   13  C   UNL     1     -10.317   9.314  67.866  1.00  0.00    -0.279 C  
BRANCH  13  14
HETATM   14  C   UNL     1     -10.880  10.486  67.105  1.00  0.00    -0.259 C  
HETATM   15  O   UNL     1     -11.780  11.205  67.518  1.00  0.00    -0.574 OA 
BRANCH  14  16
HETATM   16  O   UNL     1     -10.212  10.646  65.932  1.00  0.00    -0.248 OA 
BRANCH  16  17
HETATM   17  C   UNL     1     -10.440  11.896  65.264  1.00  0.00    -0.275 C  
BRANCH  17  18
HETATM   18  C   UNL     1     -11.454  11.741  64.130  1.00  0.00    -0.327 C  
BRANCH  18  19
HETATM   19  O   UNL     1     -11.000  10.733  63.202  1.00  0.00     0.217 OA 
BRANCH  19  20
HETATM   20  C   UNL     1      -9.702  10.837  62.823  1.00  0.00    -0.260 C  
HETATM   21  O   UNL     1      -9.079  11.881  62.700  1.00  0.00    -0.168 OA 
BRANCH  20  22
HETATM   22  C   UNL     1      -9.128   9.461  62.590  1.00  0.00    -0.147 C  
BRANCH  22  23
HETATM   23  C   UNL     1      -7.975   9.213  63.558  1.00  0.00    -0.145 C  
BRANCH  23  24
HETATM   24  C   UNL     1      -7.818   7.734  63.899  1.00  0.00    -0.126 C  
BRANCH  24  25
HETATM   25  C   UNL     1      -6.338   7.353  63.961  1.00  0.00    -0.048 C  
BRANCH  25  26
HETATM   26  C   UNL     1      -5.902   7.028  65.386  1.00  0.00    -0.036 C  
BRANCH  26  27
HETATM   27  C   UNL     1      -7.095   6.608  66.243  1.00  0.00    -0.067 C  
BRANCH  27  28
HETATM   28  C   UNL     1      -6.708   6.523  67.719  1.00  0.00    -0.071 C  
BRANCH  28  29
HETATM   29  C   UNL     1      -7.556   5.488  68.456  1.00  0.00    -0.084 C  
BRANCH  29  30
HETATM   30  C   UNL     1      -9.014   5.938  68.543  1.00  0.00    -0.113 C  
BRANCH  30  31
HETATM   31  C   UNL     1      -9.968   4.810  68.151  1.00  0.00    -0.152 C  
BRANCH  31  32
HETATM   32  C   UNL     1      -9.287   3.820  67.207  1.00  0.00    -0.228 C  
BRANCH  32  33
HETATM   33  C   UNL     1      -9.591   4.148  65.745  1.00  0.00    -0.190 C  
HETATM   34  C   UNL     1      -8.696   3.356  64.805  1.00  0.00    -0.111 C  
ENDBRANCH  32  33
ENDBRANCH  31  32
ENDBRANCH  30  31
ENDBRANCH  29  30
ENDBRANCH  28  29
ENDBRANCH  27  28
ENDBRANCH  26  27
ENDBRANCH  25  26
ENDBRANCH  24  25
ENDBRANCH  23  24
ENDBRANCH  22  23
ENDBRANCH  20  22
ENDBRANCH  19  20
ENDBRANCH  18  19
BRANCH  18  35
HETATM   35  C   UNL     1     -11.535  13.044  63.352  1.00  0.00    -0.251 C  
BRANCH  35  36
HETATM   36  O   UNL     1     -12.422  13.963  64.006  1.00  0.00    -0.679 OA 
BRANCH  36  37
HETATM   37  P   UNL     1     -11.613  15.404  64.519  1.00  0.00    -0.071 P  
HETATM   38  O   UNL     1     -12.610  16.297  63.767  1.00  0.00    -0.532 OA 
HETATM   39  O   UNL     1     -11.795  15.053  65.995  1.00  0.00    -0.190 OA 
BRANCH  37  40
HETATM   40  O   UNL     1     -10.804  16.845  65.032  1.00  0.00    -0.666 OA 
BRANCH  40  41
HETATM   41  C   UNL     1     -10.018  16.591  66.182  1.00  0.00    -0.343 C  
BRANCH  41  42
HETATM   42  C   UNL     1      -8.611  17.119  65.962  1.00  0.00    -0.105 C  
BRANCH  42  43
HETATM   43  N   UNL     1      -8.230  18.349  66.821  1.00  0.00    -0.245 N  
HETATM   44  C   UNL     1      -6.735  18.309  67.050  1.00  0.00    -0.185 C  
HETATM   45  C   UNL     1      -8.945  18.304  68.181  1.00  0.00    -0.302 C  
HETATM   46  C   UNL     1      -8.625  19.642  66.124  1.00  0.00    -0.333 C  
ENDBRANCH  42  43
ENDBRANCH  41  42
ENDBRANCH  40  41
ENDBRANCH  37  40
ENDBRANCH  36  37
ENDBRANCH  35  36
ENDBRANCH  18  35
ENDBRANCH  17  18
ENDBRANCH  16  17
ENDBRANCH  14  16
ENDBRANCH  13  14
ENDBRANCH  12  13
ENDBRANCH  11  12
ENDBRANCH  10  11
ENDBRANCH   9  10
ENDBRANCH   8   9
ENDBRANCH   7   8
ENDBRANCH   6   7
ENDBRANCH   5   6
ENDBRANCH   4   5
ENDBRANCH   3   4
ENDBRANCH   2   3
TORSDOF 36
ENDMDL
MODEL       57
REMARK 921   NORMALIZED FREE ENERGY PREDICTED BY IDOCK:   -2.34 KCAL/MOL
REMARK 922        TOTAL FREE ENERGY PREDICTED BY IDOCK:  -12.76 KCAL/MOL
REMARK 923 INTER-LIGAND FREE ENERGY PREDICTED BY IDOCK:  -10.13 KCAL/MOL
REMARK 924 INTRA-LIGAND FREE ENERGY PREDICTED BY IDOCK:   -2.62 KCAL/MOL
REMARK 927      BINDING AFFINITY PREDICTED BY RF-SCORE:    0.00 PKD
ROOT
HETATM    1  C   UNL     1     -10.939   5.887  69.192  1.00  0.00    -0.382 C  
HETATM    2  C   UNL     1     -10.999   7.049  70.169  1.00  0.00    -0.306 C  
ENDROOT
BRANCH   2   3
HETATM    3  C   UNL     1     -12.219   6.943  71.082  1.00  0.00    -0.428 C  
BRANCH   3   4
HETATM    4  C   UNL     1     -12.160   7.972  72.210  1.00  0.00    -0.392 C  
BRANCH   4   5
HETATM    5  C   UNL     1     -11.025   7.653  73.182  1.00  0.00    -0.411 C  
BRANCH   5   6
HETATM    6  C   UNL     1     -10.904   6.150  73.420  1.00  0.00    -0.243 C  
BRANCH   6   7
HETATM    7  C   UNL     1      -9.910   5.851  74.542  1.00  0.00    -0.273 C  
BRANCH   7   8
HETATM    8  C   UNL     1      -8.478   5.805  74.007  1.00  0.00    -0.117 C  
BRANCH   8   9
HETATM    9  C   UNL     1      -7.809   7.176  74.100  1.00  0.00    -0.136 C  
BRANCH   9  10
HETATM   10  C   UNL     1      -6.967   7.453  72.857  1.00  0.00    -0.070 C  
BRANCH  10  11
HETATM   11  C   UNL     1      -7.842   7.616  71.616  1.00  0.00    -0.089 C  
BRANCH  11  12
HETATM   12  C   UNL     1      -7.304   8.727  70.710  1.00  0.00    -0.080 C  
BRANCH  12  13
HETATM   13  C   UNL     1      -8.082   8.848  69.402  1.00  0.00    -0.105 C  
BRANCH  13  14
HETATM   14  C   UNL     1      -8.894  10.116  69.341  1.00  0.00    -0.185 C  
HETATM   15  O   UNL     1      -9.922  10.305  69.979  1.00  0.00    -0.208 OA 
BRANCH  14  16
HETATM   16  O   UNL     1      -8.294  11.017  68.519  1.00  0.00    -0.134 OA 
BRANCH  16  17
HETATM   17  C   UNL     1      -7.346  10.465  67.595  1.00  0.00    -0.088 C  
BRANCH  17  18
HETATM   18  C   UNL     1      -7.464  11.124  66.220  1.00  0.00    -0.064 C  
BRANCH  18  19
HETATM   19  O   UNL     1      -8.785  11.683  66.058  1.00  0.00    -0.160 OA 
BRANCH  19  20
HETATM   20  C   UNL     1      -9.590  11.022  65.189  1.00  0.00    -0.237 C  
HETATM   21  O   UNL     1     -10.055   9.904  65.359  1.00  0.00    -0.313 OA 
BRANCH  20  22
HETATM   22  C   UNL     1      -9.842  11.882  63.975  1.00  0.00    -0.259 C  
BRANCH  22  23
HETATM   23  C   UNL     1     -11.290  12.366  63.979  1.00  0.00    -0.465 C  
BRANCH  23  24
HETATM   24  C   UNL     1     -11.434  13.743  64.621  1.00  0.00    -0.385 C  
BRANCH  24  25
HETATM   25  C   UNL     1     -12.635  13.770  65.566  1.00  0.00    -0.551 C  
BRANCH  25  26
HETATM   26  C   UNL     1     -12.257  14.320  66.938  1.00  0.00    -0.366 C  
BRANCH  26  27
HETATM   27  C   UNL     1     -11.624  13.235  67.809  1.00  0.00    -0.380 C  
BRANCH  27  28
HETATM   28  C   UNL     1     -10.339  13.737  68.464  1.00  0.00    -0.244 C  
BRANCH  28  29
HETATM   29  C   UNL     1     -10.341  15.259  68.596  1.00  0.00    -0.232 C  
BRANCH  29  30
HETATM   30  C   UNL     1      -8.943  15.829  68.358  1.00  0.00    -0.187 C  
BRANCH  30  31
HETATM   31  C   UNL     1      -8.917  17.343  68.566  1.00  0.00    -0.276 C  
BRANCH  31  32
HETATM   32  C   UNL     1      -8.922  18.079  67.226  1.00  0.00    -0.251 C  
BRANCH  32  33
HETATM   33  C   UNL     1     -10.327  18.138  66.629  1.00  0.00    -0.387 C  
HETATM   34  C   UNL     1     -10.546  19.431  65.860  1.00  0.00    -0.551 C  
ENDBRANCH  32  33
ENDBRANCH  31  32
ENDBRANCH  30  31
ENDBRANCH  29  30
ENDBRANCH  28  29
ENDBRANCH  27  28
ENDBRANCH  26  27
ENDBRANCH  25  26
ENDBRANCH  24  25
ENDBRANCH  23  24
ENDBRANCH  22  23
ENDBRANCH  20  22
ENDBRANCH  19  20
ENDBRANCH  18  19
BRANCH  18  35
HETATM   35  C   UNL     1      -7.303  10.063  65.144  1.00  0.00    -0.139 C  
BRANCH  35  36
HETATM   36  O   UNL     1      -7.184   8.763  65.738  1.00  0.00    -0.082 OA 
BRANCH  36  37
HETATM   37  P   UNL     1      -7.785   7.512  64.703  1.00  0.00    -0.126 P  
HETATM   38  O   UNL     1      -6.907   7.982  63.534  1.00  0.00    -0.073 OA 
HETATM   39  O   UNL     1      -7.331   6.415  65.666  1.00  0.00    -0.075 OA 
BRANCH  37  40
HETATM   40  O   UNL     1      -8.385   6.261  63.669  1.00  0.00    -0.031 OA 
BRANCH  40  41
HETATM   41  C   UNL     1      -7.980   4.989  64.140  1.00  0.00    -0.105 C  
BRANCH  41  42
HETATM   42  C   UNL     1      -8.559   3.908  63.245  1.00  0.00    -0.095 C  
BRANCH  42  43
HETATM   43  N   UNL     1      -9.548   2.941  63.939  1.00  0.00    -0.124 N  
HETATM   44  C   UNL     1     -10.492   3.771  64.783  1.00  0.00    -0.089 C  
HETATM   45  C   UNL     1      -8.797   1.958  64.851  1.00  0.00    -0.118 C  
HETATM   46  C   UNL     1     -10.328   2.132  62.914  1.00  0.00    -0.124 C  
ENDBRANCH  42  43
ENDBRANCH  41  42
ENDBRANCH  40  41
ENDBRANCH  37  40
ENDBRANCH  36  37
ENDBRANCH  35  36
ENDBRANCH  18  35
ENDBRANCH  17  18
ENDBRANCH  16  17
ENDBRANCH  14  16
ENDBRANCH  13  14
ENDBRANCH  12  13
ENDBRANCH  11  12
ENDBRANCH  10  11
ENDBRANCH   9  10
ENDBRANCH   8   9
ENDBRANCH   7   8
ENDBRANCH   6   7
ENDBRANCH   5   6
ENDBRANCH   4   5
ENDBRANCH   3   4
ENDBRANCH   2   3
TORSDOF 36
ENDMDL
MODEL       58
REMARK 921   NORMALIZED FREE ENERGY PREDICTED BY IDOCK:   -2.30 KCAL/MOL
REMARK 922        TOTAL FREE ENERGY PREDICTED BY IDOCK:  -12.62 KCAL/MOL
REMARK 923 INTER-LIGAND FREE ENERGY PREDICTED BY IDOCK:  -10.32 KCAL/MOL
REMARK 924 INTRA-LIGAND FREE ENERGY PREDICTED BY IDOCK:   -2.30 KCAL/MOL
REMARK 927      BINDING AFFINITY PREDICTED BY RF-SCORE:    0.00 PKD
ROOT
HETATM    1  C   UNL     1      -7.819   8.688  71.305  1.00  0.00    -0.156 C  
HETATM    2  C   UNL     1      -6.869   7.615  70.801  1.00  0.00    -0.043 C  
ENDROOT
BRANCH   2   3
HETATM    3  C   UNL     1      -7.590   6.618  69.896  1.00  0.00    -0.100 C  
BRANCH   3   4
HETATM    4  C   UNL     1      -9.100   6.650  70.125  1.00  0.00    -0.155 C  
BRANCH   4   5
HETATM    5  C   UNL     1      -9.556   5.437  70.935  1.00  0.00    -0.226 C  
BRANCH   5   6
HETATM    6  C   UNL     1     -10.900   5.697  71.612  1.00  0.00    -0.301 C  
BRANCH   6   7
HETATM    7  C   UNL     1     -11.518   7.004  71.117  1.00  0.00    -0.333 C  
BRANCH   7   8
HETATM    8  C   UNL     1     -11.591   8.037  72.242  1.00  0.00    -0.424 C  
BRANCH   8   9
HETATM    9  C   UNL     1     -12.932   8.768  72.235  1.00  0.00    -0.462 C  
BRANCH   9  10
HETATM   10  C   UNL     1     -12.751  10.227  71.822  1.00  0.00    -0.535 C  
BRANCH  10  11
HETATM   11  C   UNL     1     -12.332  10.343  70.358  1.00  0.00    -0.370 C  
BRANCH  11  12
HETATM   12  C   UNL     1     -10.828  10.604  70.239  1.00  0.00    -0.157 C  
BRANCH  12  13
HETATM   13  C   UNL     1     -10.471  11.430  69.006  1.00  0.00    -0.196 C  
BRANCH  13  14
HETATM   14  C   UNL     1     -11.327  11.074  67.818  1.00  0.00    -0.292 C  
HETATM   15  O   UNL     1     -12.236  11.774  67.392  1.00  0.00    -0.501 OA 
BRANCH  14  16
HETATM   16  O   UNL     1     -10.909   9.900  67.275  1.00  0.00    -0.267 OA 
BRANCH  16  17
HETATM   17  C   UNL     1     -10.244  10.014  66.008  1.00  0.00    -0.207 C  
BRANCH  17  18
HETATM   18  C   UNL     1      -9.293  11.210  65.987  1.00  0.00    -0.206 C  
BRANCH  18  19
HETATM   19  O   UNL     1      -9.480  11.962  64.769  1.00  0.00    -0.107 OA 
BRANCH  19  20
HETATM   20  C   UNL     1     -10.288  11.381  63.849  1.00  0.00    -0.379 C  
HETATM   21  O   UNL     1      -9.915  10.726  62.886  1.00  0.00    -0.307 OA 
BRANCH  20  22
HETATM   22  C   UNL     1     -11.732  11.648  64.199  1.00  0.00    -0.305 C  
BRANCH  22  23
HETATM   23  C   UNL     1     -12.262  12.801  63.351  1.00  0.00    -0.594 C  
BRANCH  23  24
HETATM   24  C   UNL     1     -12.510  14.058  64.181  1.00  0.00    -0.279 C  
BRANCH  24  25
HETATM   25  C   UNL     1     -11.309  15.000  64.098  1.00  0.00     0.079 C  
BRANCH  25  26
HETATM   26  C   UNL     1     -11.049  15.697  65.430  1.00  0.00    -0.271 C  
BRANCH  26  27
HETATM   27  C   UNL     1     -11.331  14.760  66.604  1.00  0.00    -0.347 C  
BRANCH  27  28
HETATM   28  C   UNL     1     -10.809  15.349  67.913  1.00  0.00    -0.300 C  
BRANCH  28  29
HETATM   29  C   UNL     1     -10.787  16.876  67.866  1.00  0.00    -0.310 C  
BRANCH  29  30
HETATM   30  C   UNL     1      -9.384  17.391  67.547  1.00  0.00    -0.233 C  
BRANCH  30  31
HETATM   31  C   UNL     1      -8.933  18.441  68.561  1.00  0.00    -0.336 C  
BRANCH  31  32
HETATM   32  C   UNL     1      -7.411  18.447  68.702  1.00  0.00    -0.311 C  
BRANCH  32  33
HETATM   33  C   UNL     1      -6.869  19.872  68.812  1.00  0.00    -0.358 C  
HETATM   34  C   UNL     1      -5.357  19.875  68.974  1.00  0.00    -0.223 C  
ENDBRANCH  32  33
ENDBRANCH  31  32
ENDBRANCH  30  31
ENDBRANCH  29  30
ENDBRANCH  28  29
ENDBRANCH  27  28
ENDBRANCH  26  27
ENDBRANCH  25  26
ENDBRANCH  24  25
ENDBRANCH  23  24
ENDBRANCH  22  23
ENDBRANCH  20  22
ENDBRANCH  19  20
ENDBRANCH  18  19
BRANCH  18  35
HETATM   35  C   UNL     1      -7.859  10.707  65.973  1.00  0.00    -0.156 C  
BRANCH  35  36
HETATM   36  O   UNL     1      -7.651   9.759  67.029  1.00  0.00    -0.091 OA 
BRANCH  36  37
HETATM   37  P   UNL     1      -6.783   8.361  66.494  1.00  0.00    -0.060 P  
HETATM   38  O   UNL     1      -8.013   7.460  66.674  1.00  0.00    -0.115 OA 
HETATM   39  O   UNL     1      -6.445   9.009  65.152  1.00  0.00    -0.069 OA 
BRANCH  37  40
HETATM   40  O   UNL     1      -5.915   6.963  65.958  1.00  0.00    -0.033 OA 
BRANCH  40  41
HETATM   41  C   UNL     1      -6.766   5.832  65.924  1.00  0.00    -0.056 C  
BRANCH  41  42
HETATM   42  C   UNL     1      -6.264   4.849  64.880  1.00  0.00    -0.034 C  
BRANCH  42  43
HETATM   43  N   UNL     1      -6.875   5.022  63.469  1.00  0.00    -0.044 N  
HETATM   44  C   UNL     1      -6.981   3.650  62.838  1.00  0.00    -0.036 C  
HETATM   45  C   UNL     1      -5.975   5.907  62.592  1.00  0.00    -0.025 C  
HETATM   46  C   UNL     1      -8.247   5.676  63.547  1.00  0.00    -0.090 C  
ENDBRANCH  42  43
ENDBRANCH  41  42
ENDBRANCH  40  41
ENDBRANCH  37  40
ENDBRANCH  36  37
ENDBRANCH  35  36
ENDBRANCH  18  35
ENDBRANCH  17  18
ENDBRANCH  16  17
ENDBRANCH  14  16
ENDBRANCH  13  14
ENDBRANCH  12  13
ENDBRANCH  11  12
ENDBRANCH  10  11
ENDBRANCH   9  10
ENDBRANCH   8   9
ENDBRANCH   7   8
ENDBRANCH   6   7
ENDBRANCH   5   6
ENDBRANCH   4   5
ENDBRANCH   3   4
ENDBRANCH   2   3
TORSDOF 36
ENDMDL
MODEL       59
REMARK 921   NORMALIZED FREE ENERGY PREDICTED BY IDOCK:   -2.22 KCAL/MOL
REMARK 922        TOTAL FREE ENERGY PREDICTED BY IDOCK:  -12.37 KCAL/MOL
REMARK 923 INTER-LIGAND FREE ENERGY PREDICTED BY IDOCK:   -7.96 KCAL/MOL
REMARK 924 INTRA-LIGAND FREE ENERGY PREDICTED BY IDOCK:   -4.41 KCAL/MOL
REMARK 927      BINDING AFFINITY PREDICTED BY RF-SCORE:    0.00 PKD
ROOT
HETATM    1  C   UNL     1     -11.099  15.767  65.683  1.00  0.00    -0.155 C  
HETATM    2  C   UNL     1     -11.671  14.881  64.589  1.00  0.00    -0.406 C  
ENDROOT
BRANCH   2   3
HETATM    3  C   UNL     1     -12.682  13.885  65.154  1.00  0.00    -0.434 C  
BRANCH   3   4
HETATM    4  C   UNL     1     -12.571  12.528  64.463  1.00  0.00    -0.503 C  
BRANCH   4   5
HETATM    5  C   UNL     1     -11.267  12.421  63.672  1.00  0.00    -0.544 C  
BRANCH   5   6
HETATM    6  C   UNL     1     -10.542  11.112  63.974  1.00  0.00    -0.436 C  
BRANCH   6   7
HETATM    7  C   UNL     1     -10.238  10.986  65.467  1.00  0.00    -0.327 C  
BRANCH   7   8
HETATM    8  C   UNL     1      -9.436  12.189  65.967  1.00  0.00    -0.215 C  
BRANCH   8   9
HETATM    9  C   UNL     1     -10.051  12.773  67.238  1.00  0.00    -0.226 C  
BRANCH   9  10
HETATM   10  C   UNL     1      -8.962  13.236  68.202  1.00  0.00    -0.195 C  
BRANCH  10  11
HETATM   11  C   UNL     1      -8.005  14.220  67.531  1.00  0.00    -0.203 C  
BRANCH  11  12
HETATM   12  C   UNL     1      -6.560  13.961  67.965  1.00  0.00    -0.145 C  
BRANCH  12  13
HETATM   13  C   UNL     1      -5.957  12.730  67.294  1.00  0.00    -0.031 C  
BRANCH  13  14
HETATM   14  C   UNL     1      -5.650  11.637  68.285  1.00  0.00    -0.045 C  
HETATM   15  O   UNL     1      -5.238  11.835  69.421  1.00  0.00    -0.055 OA 
BRANCH  14  16
HETATM   16  O   UNL     1      -5.940  10.422  67.747  1.00  0.00    -0.045 OA 
BRANCH  16  17
HETATM   17  C   UNL     1      -7.338  10.112  67.656  1.00  0.00    -0.089 C  
BRANCH  17  18
HETATM   18  C   UNL     1      -7.592   8.624  67.895  1.00  0.00    -0.098 C  
BRANCH  18  19
HETATM   19  O   UNL     1      -7.236   8.279  69.251  1.00  0.00    -0.062 OA 
BRANCH  19  20
HETATM   20  C   UNL     1      -8.003   8.848  70.214  1.00  0.00    -0.115 C  
HETATM   21  O   UNL     1      -7.624   9.677  71.029  1.00  0.00    -0.326 OA 
BRANCH  20  22
HETATM   22  C   UNL     1      -9.412   8.315  70.121  1.00  0.00    -0.167 C  
BRANCH  22  23
HETATM   23  C   UNL     1     -10.221   8.790  71.325  1.00  0.00    -0.332 C  
BRANCH  23  24
HETATM   24  C   UNL     1     -10.171   7.793  72.480  1.00  0.00    -0.320 C  
BRANCH  24  25
HETATM   25  C   UNL     1     -11.422   6.913  72.482  1.00  0.00    -0.268 C  
BRANCH  25  26
HETATM   26  C   UNL     1     -11.110   5.497  72.006  1.00  0.00    -0.249 C  
BRANCH  26  27
HETATM   27  C   UNL     1     -11.327   4.481  73.127  1.00  0.00    -0.318 C  
BRANCH  27  28
HETATM   28  C   UNL     1     -10.693   3.136  72.778  1.00  0.00    -0.114 C  
BRANCH  28  29
HETATM   29  C   UNL     1      -9.321   3.319  72.132  1.00  0.00    -0.181 C  
BRANCH  29  30
HETATM   30  C   UNL     1      -8.215   3.305  73.187  1.00  0.00    -0.077 C  
BRANCH  30  31
HETATM   31  C   UNL     1      -7.051   4.210  72.784  1.00  0.00    -0.062 C  
BRANCH  31  32
HETATM   32  C   UNL     1      -7.039   5.489  73.620  1.00  0.00    -0.086 C  
BRANCH  32  33
HETATM   33  C   UNL     1      -6.451   6.660  72.834  1.00  0.00    -0.066 C  
HETATM   34  C   UNL     1      -6.165   7.846  73.743  1.00  0.00    -0.087 C  
ENDBRANCH  32  33
ENDBRANCH  31  32
ENDBRANCH  30  31
ENDBRANCH  29  30
ENDBRANCH  28  29
ENDBRANCH  27  28
ENDBRANCH  26  27
ENDBRANCH  25  26
ENDBRANCH  24  25
ENDBRANCH  23  24
ENDBRANCH  22  23
ENDBRANCH  20  22
ENDBRANCH  19  20
ENDBRANCH  18  19
BRANCH  18  35
HETATM   35  C   UNL     1      -6.686   7.810  66.986  1.00  0.00    -0.068 C  
BRANCH  35  36
HETATM   36  O   UNL     1      -6.733   6.422  67.345  1.00  0.00    -0.056 OA 
BRANCH  36  37
HETATM   37  P   UNL     1      -6.496   5.383  65.982  1.00  0.00    -0.046 P  
HETATM   38  O   UNL     1      -7.162   4.200  66.699  1.00  0.00    -0.069 OA 
HETATM   39  O   UNL     1      -7.281   6.315  65.059  1.00  0.00    -0.065 OA 
BRANCH  37  40
HETATM   40  O   UNL     1      -6.260   4.344  64.619  1.00  0.00    -0.028 OA 
BRANCH  40  41
HETATM   41  C   UNL     1      -7.406   4.345  63.788  1.00  0.00    -0.054 C  
BRANCH  41  42
HETATM   42  C   UNL     1      -7.798   2.914  63.462  1.00  0.00    -0.072 C  
BRANCH  42  43
HETATM   43  N   UNL     1      -9.202   2.490  63.954  1.00  0.00    -0.106 N  
HETATM   44  C   UNL     1      -9.018   1.468  65.055  1.00  0.00    -0.123 C  
HETATM   45  C   UNL     1     -10.009   1.853  62.812  1.00  0.00    -0.097 C  
HETATM   46  C   UNL     1      -9.982   3.689  64.471  1.00  0.00    -0.190 C  
ENDBRANCH  42  43
ENDBRANCH  41  42
ENDBRANCH  40  41
ENDBRANCH  37  40
ENDBRANCH  36  37
ENDBRANCH  35  36
ENDBRANCH  18  35
ENDBRANCH  17  18
ENDBRANCH  16  17
ENDBRANCH  14  16
ENDBRANCH  13  14
ENDBRANCH  12  13
ENDBRANCH  11  12
ENDBRANCH  10  11
ENDBRANCH   9  10
ENDBRANCH   8   9
ENDBRANCH   7   8
ENDBRANCH   6   7
ENDBRANCH   5   6
ENDBRANCH   4   5
ENDBRANCH   3   4
ENDBRANCH   2   3
TORSDOF 36
ENDMDL
MODEL       60
REMARK 921   NORMALIZED FREE ENERGY PREDICTED BY IDOCK:   -1.99 KCAL/MOL
REMARK 922        TOTAL FREE ENERGY PREDICTED BY IDOCK:  -11.68 KCAL/MOL
REMARK 923 INTER-LIGAND FREE ENERGY PREDICTED BY IDOCK:   -6.50 KCAL/MOL
REMARK 924 INTRA-LIGAND FREE ENERGY PREDICTED BY IDOCK:   -5.19 KCAL/MOL
REMARK 927      BINDING AFFINITY PREDICTED BY RF-SCORE:    0.00 PKD
ROOT
HETATM    1  C   UNL     1     -11.168  16.809  64.745  1.00  0.00     0.035 C  
HETATM    2  C   UNL     1     -12.241  15.901  65.322  1.00  0.00     1.036 C  
ENDROOT
BRANCH   2   3
HETATM    3  C   UNL     1     -11.980  14.439  64.965  1.00  0.00    -0.413 C  
BRANCH   3   4
HETATM    4  C   UNL     1     -10.483  14.135  64.923  1.00  0.00    -0.461 C  
BRANCH   4   5
HETATM    5  C   UNL     1     -10.144  13.217  63.750  1.00  0.00     0.545 C  
BRANCH   5   6
HETATM    6  C   UNL     1     -11.283  12.241  63.463  1.00  0.00    -0.535 C  
BRANCH   6   7
HETATM    7  C   UNL     1     -10.760  10.810  63.342  1.00  0.00     0.163 C  
BRANCH   7   8
HETATM    8  C   UNL     1      -9.287  10.729  63.744  1.00  0.00    -0.295 C  
BRANCH   8   9
HETATM    9  C   UNL     1      -9.077   9.717  64.869  1.00  0.00    -0.284 C  
BRANCH   9  10
HETATM   10  C   UNL     1     -10.263   9.722  65.830  1.00  0.00    -0.245 C  
BRANCH  10  11
HETATM   11  C   UNL     1     -10.277   8.469  66.705  1.00  0.00    -0.370 C  
BRANCH  11  12
HETATM   12  C   UNL     1      -8.941   7.726  66.617  1.00  0.00    -0.175 C  
BRANCH  12  13
HETATM   13  C   UNL     1      -8.104   7.869  67.887  1.00  0.00    -0.129 C  
BRANCH  13  14
HETATM   14  C   UNL     1      -8.938   7.728  69.133  1.00  0.00    -0.145 C  
HETATM   15  O   UNL     1      -9.844   6.914  69.266  1.00  0.00    -0.155 OA 
BRANCH  14  16
HETATM   16  O   UNL     1      -8.506   8.596  70.086  1.00  0.00    -0.123 OA 
BRANCH  16  17
HETATM   17  C   UNL     1      -7.502   8.081  70.973  1.00  0.00    -0.071 C  
BRANCH  17  18
HETATM   18  C   UNL     1      -8.126   7.520  72.251  1.00  0.00    -0.103 C  
BRANCH  18  19
HETATM   19  O   UNL     1      -9.175   8.400  72.710  1.00  0.00    -0.260 OA 
BRANCH  19  20
HETATM   20  C   UNL     1     -10.353   7.795  72.998  1.00  0.00    -0.347 C  
HETATM   21  O   UNL     1     -10.564   7.066  73.957  1.00  0.00    -0.341 OA 
BRANCH  20  22
HETATM   22  C   UNL     1     -11.383   8.168  71.960  1.00  0.00    -0.378 C  
BRANCH  22  23
HETATM   23  C   UNL     1     -11.174   9.616  71.526  1.00  0.00    -0.377 C  
BRANCH  23  24
HETATM   24  C   UNL     1     -12.480  10.283  71.102  1.00  0.00    -0.495 C  
BRANCH  24  25
HETATM   25  C   UNL     1     -12.371  10.810  69.670  1.00  0.00    -0.262 C  
BRANCH  25  26
HETATM   26  C   UNL     1     -10.948  11.255  69.343  1.00  0.00    -0.282 C  
BRANCH  26  27
HETATM   27  C   UNL     1     -10.953  12.502  68.460  1.00  0.00    -0.280 C  
BRANCH  27  28
HETATM   28  C   UNL     1      -9.716  12.544  67.564  1.00  0.00    -0.196 C  
BRANCH  28  29
HETATM   29  C   UNL     1      -8.589  11.683  68.133  1.00  0.00    -0.158 C  
BRANCH  29  30
HETATM   30  C   UNL     1      -7.345  11.760  67.249  1.00  0.00    -0.141 C  
BRANCH  30  31
HETATM   31  C   UNL     1      -6.184  12.434  67.980  1.00  0.00    -0.082 C  
BRANCH  31  32
HETATM   32  C   UNL     1      -6.125  11.989  69.441  1.00  0.00    -0.098 C  
BRANCH  32  33
HETATM   33  C   UNL     1      -5.641  13.120  70.347  1.00  0.00    -0.158 C  
HETATM   34  C   UNL     1      -6.532  14.346  70.221  1.00  0.00    -0.130 C  
ENDBRANCH  32  33
ENDBRANCH  31  32
ENDBRANCH  30  31
ENDBRANCH  29  30
ENDBRANCH  28  29
ENDBRANCH  27  28
ENDBRANCH  26  27
ENDBRANCH  25  26
ENDBRANCH  24  25
ENDBRANCH  23  24
ENDBRANCH  22  23
ENDBRANCH  20  22
ENDBRANCH  19  20
ENDBRANCH  18  19
BRANCH  18  35
HETATM   35  C   UNL     1      -7.073   7.488  73.347  1.00  0.00    -0.079 C  
BRANCH  35  36
HETATM   36  O   UNL     1      -7.346   6.424  74.270  1.00  0.00    -0.089 OA 
BRANCH  36  37
HETATM   37  P   UNL     1      -7.214   4.864  73.531  1.00  0.00    -0.084 P  
HETATM   38  O   UNL     1      -5.873   4.588  74.226  1.00  0.00    -0.022 OA 
HETATM   39  O   UNL     1      -8.543   4.403  74.127  1.00  0.00    -0.100 OA 
BRANCH  37  40
HETATM   40  O   UNL     1      -7.082   3.305  72.793  1.00  0.00    -0.040 OA 
BRANCH  40  41
HETATM   41  C   UNL     1      -6.884   3.431  71.397  1.00  0.00    -0.031 C  
BRANCH  41  42
HETATM   42  C   UNL     1      -8.219   3.313  70.682  1.00  0.00    -0.056 C  
BRANCH  42  43
HETATM   43  N   UNL     1      -8.127   2.954  69.178  1.00  0.00    -0.054 N  
HETATM   44  C   UNL     1      -7.600   4.168  68.444  1.00  0.00    -0.066 C  
HETATM   45  C   UNL     1      -9.513   2.596  68.621  1.00  0.00    -0.125 C  
HETATM   46  C   UNL     1      -7.208   1.763  68.958  1.00  0.00    -0.039 C  
ENDBRANCH  42  43
ENDBRANCH  41  42
ENDBRANCH  40  41
ENDBRANCH  37  40
ENDBRANCH  36  37
ENDBRANCH  35  36
ENDBRANCH  18  35
ENDBRANCH  17  18
ENDBRANCH  16  17
ENDBRANCH  14  16
ENDBRANCH  13  14
ENDBRANCH  12  13
ENDBRANCH  11  12
ENDBRANCH  10  11
ENDBRANCH   9  10
ENDBRANCH   8   9
ENDBRANCH   7   8
ENDBRANCH   6   7
ENDBRANCH   5   6
ENDBRANCH   4   5
ENDBRANCH   3   4
ENDBRANCH   2   3
TORSDOF 36
ENDMDL
MODEL       61
REMARK 921   NORMALIZED FREE ENERGY PREDICTED BY IDOCK:   -1.93 KCAL/MOL
REMARK 922        TOTAL FREE ENERGY PREDICTED BY IDOCK:  -11.48 KCAL/MOL
REMARK 923 INTER-LIGAND FREE ENERGY PREDICTED BY IDOCK:   -8.55 KCAL/MOL
REMARK 924 INTRA-LIGAND FREE ENERGY PREDICTED BY IDOCK:   -2.93 KCAL/MOL
REMARK 927      BINDING AFFINITY PREDICTED BY RF-SCORE:    0.00 PKD
ROOT
HETATM    1  C   UNL     1     -10.919   5.887  69.307  1.00  0.00    -0.397 C  
HETATM    2  C   UNL     1     -10.775   6.966  70.366  1.00  0.00    -0.278 C  
ENDROOT
BRANCH   2   3
HETATM    3  C   UNL     1     -11.863   6.845  71.432  1.00  0.00    -0.373 C  
BRANCH   3   4
HETATM    4  C   UNL     1     -11.607   7.799  72.598  1.00  0.00    -0.398 C  
BRANCH   4   5
HETATM    5  C   UNL     1     -10.363   7.383  73.382  1.00  0.00    -0.411 C  
BRANCH   5   6
HETATM    6  C   UNL     1     -10.236   5.864  73.456  1.00  0.00    -0.226 C  
BRANCH   6   7
HETATM    7  C   UNL     1      -9.068   5.455  74.353  1.00  0.00    -0.117 C  
BRANCH   7   8
HETATM    8  C   UNL     1      -7.760   5.411  73.563  1.00  0.00    -0.096 C  
BRANCH   8   9
HETATM    9  C   UNL     1      -7.116   6.794  73.483  1.00  0.00    -0.075 C  
BRANCH   9  10
HETATM   10  C   UNL     1      -6.362   6.965  72.166  1.00  0.00    -0.045 C  
BRANCH  10  11
HETATM   11  C   UNL     1      -7.324   7.128  70.990  1.00  0.00    -0.075 C  
BRANCH  11  12
HETATM   12  C   UNL     1      -6.696   7.980  69.884  1.00  0.00    -0.037 C  
BRANCH  12  13
HETATM   13  C   UNL     1      -7.559   8.038  68.626  1.00  0.00    -0.100 C  
BRANCH  13  14
HETATM   14  C   UNL     1      -8.148   9.407  68.405  1.00  0.00    -0.109 C  
HETATM   15  O   UNL     1      -9.052   9.883  69.080  1.00  0.00    -0.146 OA 
BRANCH  14  16
HETATM   16  O   UNL     1      -7.500  10.038  67.390  1.00  0.00    -0.090 OA 
BRANCH  16  17
HETATM   17  C   UNL     1      -6.976   9.176  66.369  1.00  0.00    -0.080 C  
BRANCH  17  18
HETATM   18  C   UNL     1      -7.302   9.707  64.974  1.00  0.00    -0.117 C  
BRANCH  18  19
HETATM   19  O   UNL     1      -8.218  10.819  65.075  1.00  0.00    -0.121 OA 
BRANCH  19  20
HETATM   20  C   UNL     1      -9.529  10.504  64.940  1.00  0.00    -0.252 C  
HETATM   21  O   UNL     1     -10.213   9.931  65.776  1.00  0.00    -0.265 OA 
BRANCH  20  22
HETATM   22  C   UNL     1     -10.031  10.981  63.599  1.00  0.00    -0.415 C  
BRANCH  22  23
HETATM   23  C   UNL     1     -11.427  11.579  63.756  1.00  0.00    -0.380 C  
BRANCH  23  24
HETATM   24  C   UNL     1     -11.385  13.092  63.957  1.00  0.00    -0.458 C  
BRANCH  24  25
HETATM   25  C   UNL     1     -12.534  13.543  64.859  1.00  0.00    -0.429 C  
BRANCH  25  26
HETATM   26  C   UNL     1     -12.043  13.893  66.261  1.00  0.00    -0.484 C  
BRANCH  26  27
HETATM   27  C   UNL     1     -10.536  13.670  66.386  1.00  0.00    -0.284 C  
BRANCH  27  28
HETATM   28  C   UNL     1      -9.941  14.551  67.483  1.00  0.00    -0.224 C  
BRANCH  28  29
HETATM   29  C   UNL     1      -8.821  15.436  66.938  1.00  0.00    -0.281 C  
BRANCH  29  30
HETATM   30  C   UNL     1      -7.450  14.839  67.256  1.00  0.00    -0.173 C  
BRANCH  30  31
HETATM   31  C   UNL     1      -7.437  14.178  68.634  1.00  0.00    -0.125 C  
BRANCH  31  32
HETATM   32  C   UNL     1      -6.135  13.411  68.861  1.00  0.00    -0.086 C  
BRANCH  32  33
HETATM   33  C   UNL     1      -6.124  12.727  70.227  1.00  0.00    -0.067 C  
HETATM   34  C   UNL     1      -5.620  11.296  70.123  1.00  0.00    -0.109 C  
ENDBRANCH  32  33
ENDBRANCH  31  32
ENDBRANCH  30  31
ENDBRANCH  29  30
ENDBRANCH  28  29
ENDBRANCH  27  28
ENDBRANCH  26  27
ENDBRANCH  25  26
ENDBRANCH  24  25
ENDBRANCH  23  24
ENDBRANCH  22  23
ENDBRANCH  20  22
ENDBRANCH  19  20
ENDBRANCH  18  19
BRANCH  18  35
HETATM   35  C   UNL     1      -8.018   8.625  64.183  1.00  0.00    -0.149 C  
BRANCH  35  36
HETATM   36  O   UNL     1      -8.044   7.397  64.925  1.00  0.00    -0.128 OA 
BRANCH  36  37
HETATM   37  P   UNL     1      -7.758   6.017  63.921  1.00  0.00    -0.105 P  
HETATM   38  O   UNL     1      -6.768   6.794  63.041  1.00  0.00    -0.041 OA 
HETATM   39  O   UNL     1      -7.295   5.173  65.108  1.00  0.00    -0.066 OA 
BRANCH  37  40
HETATM   40  O   UNL     1      -7.472   4.637  62.917  1.00  0.00    -0.050 OA 
BRANCH  40  41
HETATM   41  C   UNL     1      -7.792   3.444  63.609  1.00  0.00    -0.080 C  
BRANCH  41  42
HETATM   42  C   UNL     1      -8.847   2.674  62.833  1.00  0.00    -0.085 C  
BRANCH  42  43
HETATM   43  N   UNL     1     -10.310   2.996  63.221  1.00  0.00    -0.166 N  
HETATM   44  C   UNL     1     -10.781   4.137  62.346  1.00  0.00    -0.103 C  
HETATM   45  C   UNL     1     -10.400   3.425  64.693  1.00  0.00     0.013 C  
HETATM   46  C   UNL     1     -11.203   1.779  63.029  1.00  0.00    -0.263 C  
ENDBRANCH  42  43
ENDBRANCH  41  42
ENDBRANCH  40  41
ENDBRANCH  37  40
ENDBRANCH  36  37
ENDBRANCH  35  36
ENDBRANCH  18  35
ENDBRANCH  17  18
ENDBRANCH  16  17
ENDBRANCH  14  16
ENDBRANCH  13  14
ENDBRANCH  12  13
ENDBRANCH  11  12
ENDBRANCH  10  11
ENDBRANCH   9  10
ENDBRANCH   8   9
ENDBRANCH   7   8
ENDBRANCH   6   7
ENDBRANCH   5   6
ENDBRANCH   4   5
ENDBRANCH   3   4
ENDBRANCH   2   3
TORSDOF 36
ENDMDL
MODEL       62
REMARK 921   NORMALIZED FREE ENERGY PREDICTED BY IDOCK:   -1.89 KCAL/MOL
REMARK 922        TOTAL FREE ENERGY PREDICTED BY IDOCK:  -11.36 KCAL/MOL
REMARK 923 INTER-LIGAND FREE ENERGY PREDICTED BY IDOCK:   -8.16 KCAL/MOL
REMARK 924 INTRA-LIGAND FREE ENERGY PREDICTED BY IDOCK:   -3.21 KCAL/MOL
REMARK 927      BINDING AFFINITY PREDICTED BY RF-SCORE:    0.00 PKD
ROOT
HETATM    1  C   UNL     1     -12.979  13.922  64.837  1.00  0.00    -0.095 C  
HETATM    2  C   UNL     1     -11.693  14.688  65.097  1.00  0.00    -0.364 C  
ENDROOT
BRANCH   2   3
HETATM    3  C   UNL     1     -10.925  14.097  66.278  1.00  0.00    -0.303 C  
BRANCH   3   4
HETATM    4  C   UNL     1     -11.876  13.551  67.342  1.00  0.00    -0.423 C  
BRANCH   4   5
HETATM    5  C   UNL     1     -12.055  14.554  68.482  1.00  0.00    -0.257 C  
BRANCH   5   6
HETATM    6  C   UNL     1     -11.295  15.849  68.206  1.00  0.00    -0.342 C  
BRANCH   6   7
HETATM    7  C   UNL     1      -9.909  15.818  68.850  1.00  0.00    -0.224 C  
BRANCH   7   8
HETATM    8  C   UNL     1      -9.321  17.225  68.952  1.00  0.00    -0.191 C  
BRANCH   8   9
HETATM    9  C   UNL     1      -8.407  17.529  67.765  1.00  0.00    -0.220 C  
BRANCH   9  10
HETATM   10  C   UNL     1      -7.190  16.607  67.769  1.00  0.00    -0.154 C  
BRANCH  10  11
HETATM   11  C   UNL     1      -6.646  16.410  69.183  1.00  0.00    -0.195 C  
BRANCH  11  12
HETATM   12  C   UNL     1      -5.960  15.047  69.319  1.00  0.00    -0.105 C  
BRANCH  12  13
HETATM   13  C   UNL     1      -6.954  13.907  69.527  1.00  0.00     0.021 C  
BRANCH  13  14
HETATM   14  C   UNL     1      -7.130  13.076  68.282  1.00  0.00    -0.103 C  
HETATM   15  O   UNL     1      -6.571  13.305  67.218  1.00  0.00    -0.218 OA 
BRANCH  14  16
HETATM   16  O   UNL     1      -7.954  12.024  68.535  1.00  0.00    -0.147 OA 
BRANCH  16  17
HETATM   17  C   UNL     1      -7.904  10.963  67.571  1.00  0.00    -0.114 C  
BRANCH  17  18
HETATM   18  C   UNL     1      -8.301   9.626  68.198  1.00  0.00    -0.117 C  
BRANCH  18  19
HETATM   19  O   UNL     1      -9.539   9.162  67.616  1.00  0.00    -0.144 OA 
BRANCH  19  20
HETATM   20  C   UNL     1      -9.755   9.544  66.333  1.00  0.00    -0.232 C  
HETATM   21  O   UNL     1     -10.554  10.395  65.970  1.00  0.00    -0.172 OA 
BRANCH  20  22
HETATM   22  C   UNL     1      -8.843   8.771  65.412  1.00  0.00    -0.221 C  
BRANCH  22  23
HETATM   23  C   UNL     1      -8.960   7.278  65.708  1.00  0.00    -0.052 C  
BRANCH  23  24
HETATM   24  C   UNL     1      -7.620   6.559  65.573  1.00  0.00    -0.088 C  
BRANCH  24  25
HETATM   25  C   UNL     1      -7.676   5.533  64.440  1.00  0.00    -0.095 C  
BRANCH  25  26
HETATM   26  C   UNL     1      -8.615   4.378  64.776  1.00  0.00    -0.132 C  
BRANCH  26  27
HETATM   27  C   UNL     1      -7.851   3.058  64.871  1.00  0.00    -0.082 C  
BRANCH  27  28
HETATM   28  C   UNL     1      -6.421   3.286  65.359  1.00  0.00    -0.032 C  
BRANCH  28  29
HETATM   29  C   UNL     1      -6.165   2.566  66.682  1.00  0.00    -0.024 C  
BRANCH  29  30
HETATM   30  C   UNL     1      -7.442   1.906  67.201  1.00  0.00    -0.060 C  
BRANCH  30  31
HETATM   31  C   UNL     1      -7.949   2.595  68.467  1.00  0.00    -0.061 C  
BRANCH  31  32
HETATM   32  C   UNL     1      -9.406   3.028  68.309  1.00  0.00    -0.253 C  
BRANCH  32  33
HETATM   33  C   UNL     1      -9.560   4.537  68.497  1.00  0.00    -0.212 C  
HETATM   34  C   UNL     1      -8.236   5.183  68.875  1.00  0.00    -0.088 C  
ENDBRANCH  32  33
ENDBRANCH  31  32
ENDBRANCH  30  31
ENDBRANCH  29  30
ENDBRANCH  28  29
ENDBRANCH  27  28
ENDBRANCH  26  27
ENDBRANCH  25  26
ENDBRANCH  24  25
ENDBRANCH  23  24
ENDBRANCH  22  23
ENDBRANCH  20  22
ENDBRANCH  19  20
ENDBRANCH  18  19
BRANCH  18  35
HETATM   35  C   UNL     1      -8.566   9.829  69.680  1.00  0.00    -0.191 C  
BRANCH  35  36
HETATM   36  O   UNL     1      -9.969   9.718  69.958  1.00  0.00    -0.227 OA 
BRANCH  36  37
HETATM   37  P   UNL     1     -10.281   8.875  71.436  1.00  0.00    -0.337 P  
HETATM   38  O   UNL     1     -11.741   9.347  71.462  1.00  0.00    -0.342 OA 
HETATM   39  O   UNL     1      -9.874   7.533  70.828  1.00  0.00    -0.179 OA 
BRANCH  37  40
HETATM   40  O   UNL     1     -10.592   8.032  72.915  1.00  0.00    -0.339 OA 
BRANCH  40  41
HETATM   41  C   UNL     1      -9.466   7.263  73.296  1.00  0.00    -0.195 C  
BRANCH  41  42
HETATM   42  C   UNL     1      -9.916   6.092  74.152  1.00  0.00    -0.252 C  
BRANCH  42  43
HETATM   43  N   UNL     1     -10.428   4.862  73.364  1.00  0.00    -0.193 N  
HETATM   44  C   UNL     1     -11.886   5.098  73.032  1.00  0.00    -0.057 C  
HETATM   45  C   UNL     1     -10.309   3.586  74.211  1.00  0.00    -0.193 C  
HETATM   46  C   UNL     1      -9.622   4.659  72.090  1.00  0.00    -0.151 C  
ENDBRANCH  42  43
ENDBRANCH  41  42
ENDBRANCH  40  41
ENDBRANCH  37  40
ENDBRANCH  36  37
ENDBRANCH  35  36
ENDBRANCH  18  35
ENDBRANCH  17  18
ENDBRANCH  16  17
ENDBRANCH  14  16
ENDBRANCH  13  14
ENDBRANCH  12  13
ENDBRANCH  11  12
ENDBRANCH  10  11
ENDBRANCH   9  10
ENDBRANCH   8   9
ENDBRANCH   7   8
ENDBRANCH   6   7
ENDBRANCH   5   6
ENDBRANCH   4   5
ENDBRANCH   3   4
ENDBRANCH   2   3
TORSDOF 36
ENDMDL
MODEL       63
REMARK 921   NORMALIZED FREE ENERGY PREDICTED BY IDOCK:   -1.85 KCAL/MOL
REMARK 922        TOTAL FREE ENERGY PREDICTED BY IDOCK:  -11.24 KCAL/MOL
REMARK 923 INTER-LIGAND FREE ENERGY PREDICTED BY IDOCK:   -9.15 KCAL/MOL
REMARK 924 INTRA-LIGAND FREE ENERGY PREDICTED BY IDOCK:   -2.10 KCAL/MOL
REMARK 927      BINDING AFFINITY PREDICTED BY RF-SCORE:    0.00 PKD
ROOT
HETATM    1  C   UNL     1     -11.512  13.377  69.745  1.00  0.00    -0.236 C  
HETATM    2  C   UNL     1     -10.616  13.535  68.529  1.00  0.00    -0.257 C  
ENDROOT
BRANCH   2   3
HETATM    3  C   UNL     1      -9.164  13.198  68.863  1.00  0.00     0.282 C  
BRANCH   3   4
HETATM    4  C   UNL     1      -8.201  13.843  67.868  1.00  0.00    -0.164 C  
BRANCH   4   5
HETATM    5  C   UNL     1      -6.923  13.014  67.728  1.00  0.00    -0.143 C  
BRANCH   5   6
HETATM    6  C   UNL     1      -6.037  13.151  68.963  1.00  0.00    -0.089 C  
BRANCH   6   7
HETATM    7  C   UNL     1      -6.446  12.150  70.044  1.00  0.00     0.048 C  
BRANCH   7   8
HETATM    8  C   UNL     1      -5.479  10.967  70.090  1.00  0.00    -0.071 C  
BRANCH   8   9
HETATM    9  C   UNL     1      -5.902   9.870  69.114  1.00  0.00    -0.034 C  
BRANCH   9  10
HETATM   10  C   UNL     1      -6.851   8.882  69.790  1.00  0.00    -0.046 C  
BRANCH  10  11
HETATM   11  C   UNL     1      -7.920   9.606  70.606  1.00  0.00    -0.077 C  
BRANCH  11  12
HETATM   12  C   UNL     1      -9.165   9.878  69.757  1.00  0.00    -0.252 C  
BRANCH  12  13
HETATM   13  C   UNL     1      -9.081   9.245  68.371  1.00  0.00    -0.128 C  
BRANCH  13  14
HETATM   14  C   UNL     1      -9.729  10.104  67.316  1.00  0.00    -0.167 C  
HETATM   15  O   UNL     1     -10.919  10.390  67.298  1.00  0.00    -0.288 OA 
BRANCH  14  16
HETATM   16  O   UNL     1      -8.795  10.540  66.429  1.00  0.00    -0.147 OA 
BRANCH  16  17
HETATM   17  C   UNL     1      -9.307  11.304  65.327  1.00  0.00    -0.203 C  
BRANCH  17  18
HETATM   18  C   UNL     1     -10.285  10.480  64.489  1.00  0.00    -0.285 C  
BRANCH  18  19
HETATM   19  O   UNL     1      -9.584   9.392  63.848  1.00  0.00     0.193 OA 
BRANCH  19  20
HETATM   20  C   UNL     1      -8.751   9.755  62.841  1.00  0.00    -0.229 C  
HETATM   21  O   UNL     1      -8.606  10.890  62.411  1.00  0.00    -0.252 OA 
BRANCH  20  22
HETATM   22  C   UNL     1      -8.008   8.542  62.335  1.00  0.00    -0.148 C  
BRANCH  22  23
HETATM   23  C   UNL     1      -6.666   8.424  63.052  1.00  0.00    -0.090 C  
BRANCH  23  24
HETATM   24  C   UNL     1      -6.223   6.972  63.207  1.00  0.00    -0.044 C  
BRANCH  24  25
HETATM   25  C   UNL     1      -6.384   6.515  64.658  1.00  0.00    -0.038 C  
BRANCH  25  26
HETATM   26  C   UNL     1      -6.697   7.688  65.583  1.00  0.00    -0.045 C  
BRANCH  26  27
HETATM   27  C   UNL     1      -6.807   7.227  67.036  1.00  0.00    -0.076 C  
BRANCH  27  28
HETATM   28  C   UNL     1      -7.022   5.717  67.117  1.00  0.00    -0.065 C  
BRANCH  28  29
HETATM   29  C   UNL     1      -8.009   5.355  68.226  1.00  0.00    -0.088 C  
BRANCH  29  30
HETATM   30  C   UNL     1      -9.112   4.439  67.699  1.00  0.00    -0.145 C  
BRANCH  30  31
HETATM   31  C   UNL     1     -10.258   5.243  67.087  1.00  0.00    -0.264 C  
BRANCH  31  32
HETATM   32  C   UNL     1     -10.713   6.354  68.034  1.00  0.00    -0.362 C  
BRANCH  32  33
HETATM   33  C   UNL     1     -10.963   5.816  69.442  1.00  0.00    -0.352 C  
HETATM   34  C   UNL     1     -11.876   6.741  70.231  1.00  0.00    -0.359 C  
ENDBRANCH  32  33
ENDBRANCH  31  32
ENDBRANCH  30  31
ENDBRANCH  29  30
ENDBRANCH  28  29
ENDBRANCH  27  28
ENDBRANCH  26  27
ENDBRANCH  25  26
ENDBRANCH  24  25
ENDBRANCH  23  24
ENDBRANCH  22  23
ENDBRANCH  20  22
ENDBRANCH  19  20
ENDBRANCH  18  19
BRANCH  18  35
HETATM   35  C   UNL     1     -10.846  11.352  63.377  1.00  0.00    -0.297 C  
BRANCH  35  36
HETATM   36  O   UNL     1     -12.131  11.870  63.749  1.00  0.00    -0.450 OA 
BRANCH  36  37
HETATM   37  P   UNL     1     -12.016  13.404  64.542  1.00  0.00    -0.440 P  
HETATM   38  O   UNL     1     -12.586  14.139  63.320  1.00  0.00    -0.766 OA 
HETATM   39  O   UNL     1     -12.905  12.943  65.696  1.00  0.00    -0.468 OA 
BRANCH  37  40
HETATM   40  O   UNL     1     -11.900  14.938  65.334  1.00  0.00    -0.299 OA 
BRANCH  40  41
HETATM   41  C   UNL     1     -10.550  15.355  65.416  1.00  0.00    -0.410 C  
BRANCH  41  42
HETATM   42  C   UNL     1     -10.457  16.839  65.107  1.00  0.00    -0.047 C  
BRANCH  42  43
HETATM   43  N   UNL     1     -10.084  17.737  66.311  1.00  0.00    -0.348 N  
HETATM   44  C   UNL     1     -10.620  19.126  66.036  1.00  0.00    -0.442 C  
HETATM   45  C   UNL     1      -8.558  17.815  66.477  1.00  0.00    -0.257 C  
HETATM   46  C   UNL     1     -10.671  17.188  67.602  1.00  0.00    -0.302 C  
ENDBRANCH  42  43
ENDBRANCH  41  42
ENDBRANCH  40  41
ENDBRANCH  37  40
ENDBRANCH  36  37
ENDBRANCH  35  36
ENDBRANCH  18  35
ENDBRANCH  17  18
ENDBRANCH  16  17
ENDBRANCH  14  16
ENDBRANCH  13  14
ENDBRANCH  12  13
ENDBRANCH  11  12
ENDBRANCH  10  11
ENDBRANCH   9  10
ENDBRANCH   8   9
ENDBRANCH   7   8
ENDBRANCH   6   7
ENDBRANCH   5   6
ENDBRANCH   4   5
ENDBRANCH   3   4
ENDBRANCH   2   3
TORSDOF 36
ENDMDL
MODEL       64
REMARK 921   NORMALIZED FREE ENERGY PREDICTED BY IDOCK:   -1.72 KCAL/MOL
REMARK 922        TOTAL FREE ENERGY PREDICTED BY IDOCK:  -10.82 KCAL/MOL
REMARK 923 INTER-LIGAND FREE ENERGY PREDICTED BY IDOCK:   -7.41 KCAL/MOL
REMARK 924 INTRA-LIGAND FREE ENERGY PREDICTED BY IDOCK:   -3.41 KCAL/MOL
REMARK 927      BINDING AFFINITY PREDICTED BY RF-SCORE:    0.00 PKD
ROOT
HETATM    1  C   UNL     1     -13.104  10.669  71.423  1.00  0.00    -0.499 C  
HETATM    2  C   UNL     1     -13.715  11.949  71.967  1.00  0.00    -0.010 C  
ENDROOT
BRANCH   2   3
HETATM    3  C   UNL     1     -12.765  13.133  71.794  1.00  0.00    -0.270 C  
BRANCH   3   4
HETATM    4  C   UNL     1     -12.233  13.214  70.364  1.00  0.00    -0.389 C  
BRANCH   4   5
HETATM    5  C   UNL     1     -11.341  14.441  70.181  1.00  0.00    -0.221 C  
BRANCH   5   6
HETATM    6  C   UNL     1     -12.151  15.651  69.722  1.00  0.00    -0.346 C  
BRANCH   6   7
HETATM    7  C   UNL     1     -11.510  16.307  68.499  1.00  0.00    -0.272 C  
BRANCH   7   8
HETATM    8  C   UNL     1     -10.026  15.954  68.403  1.00  0.00    -0.222 C  
BRANCH   8   9
HETATM    9  C   UNL     1      -9.149  17.171  68.696  1.00  0.00    -0.268 C  
BRANCH   9  10
HETATM   10  C   UNL     1      -8.119  17.376  67.587  1.00  0.00    -0.203 C  
BRANCH  10  11
HETATM   11  C   UNL     1      -6.709  17.038  68.067  1.00  0.00    -0.155 C  
BRANCH  11  12
HETATM   12  C   UNL     1      -6.701  15.730  68.864  1.00  0.00    -0.126 C  
BRANCH  12  13
HETATM   13  C   UNL     1      -6.759  14.496  67.968  1.00  0.00    -0.153 C  
BRANCH  13  14
HETATM   14  C   UNL     1      -6.142  13.289  68.626  1.00  0.00    -0.085 C  
HETATM   15  O   UNL     1      -6.345  12.960  69.788  1.00  0.00    -0.120 OA 
BRANCH  14  16
HETATM   16  O   UNL     1      -5.376  12.609  67.732  1.00  0.00    -0.091 OA 
BRANCH  16  17
HETATM   17  C   UNL     1      -6.104  11.843  66.761  1.00  0.00    -0.046 C  
BRANCH  17  18
HETATM   18  C   UNL     1      -6.829  10.665  67.413  1.00  0.00    -0.077 C  
BRANCH  18  19
HETATM   19  O   UNL     1      -6.126   9.438  67.123  1.00  0.00    -0.061 OA 
BRANCH  19  20
HETATM   20  C   UNL     1      -6.020   8.573  68.162  1.00  0.00    -0.046 C  
HETATM   21  O   UNL     1      -6.536   8.714  69.262  1.00  0.00    -0.048 OA 
BRANCH  20  22
HETATM   22  C   UNL     1      -5.178   7.389  67.754  1.00  0.00    -0.025 C  
BRANCH  22  23
HETATM   23  C   UNL     1      -5.961   6.510  66.783  1.00  0.00    -0.025 C  
BRANCH  23  24
HETATM   24  C   UNL     1      -5.576   6.774  65.330  1.00  0.00    -0.030 C  
BRANCH  24  25
HETATM   25  C   UNL     1      -6.102   5.659  64.426  1.00  0.00    -0.025 C  
BRANCH  25  26
HETATM   26  C   UNL     1      -7.304   4.954  65.048  1.00  0.00    -0.071 C  
BRANCH  26  27
HETATM   27  C   UNL     1      -8.260   4.445  63.970  1.00  0.00    -0.102 C  
BRANCH  27  28
HETATM   28  C   UNL     1      -9.515   3.837  64.594  1.00  0.00    -0.165 C  
BRANCH  28  29
HETATM   29  C   UNL     1      -9.313   3.548  66.080  1.00  0.00    -0.168 C  
BRANCH  29  30
HETATM   30  C   UNL     1     -10.446   4.149  66.912  1.00  0.00     0.603 C  
BRANCH  30  31
HETATM   31  C   UNL     1     -11.024   5.397  66.246  1.00  0.00    -0.053 C  
BRANCH  31  32
HETATM   32  C   UNL     1     -10.764   6.640  67.096  1.00  0.00    -0.440 C  
BRANCH  32  33
HETATM   33  C   UNL     1     -10.940   6.342  68.585  1.00  0.00    -0.423 C  
HETATM   34  C   UNL     1     -10.413   7.483  69.441  1.00  0.00    -0.222 C  
ENDBRANCH  32  33
ENDBRANCH  31  32
ENDBRANCH  30  31
ENDBRANCH  29  30
ENDBRANCH  28  29
ENDBRANCH  27  28
ENDBRANCH  26  27
ENDBRANCH  25  26
ENDBRANCH  24  25
ENDBRANCH  23  24
ENDBRANCH  22  23
ENDBRANCH  20  22
ENDBRANCH  19  20
ENDBRANCH  18  19
BRANCH  18  35
HETATM   35  C   UNL     1      -8.213  10.530  66.800  1.00  0.00    -0.126 C  
BRANCH  35  36
HETATM   36  O   UNL     1      -8.133   9.880  65.524  1.00  0.00    -0.118 OA 
BRANCH  36  37
HETATM   37  P   UNL     1      -9.457  10.296  64.491  1.00  0.00    -0.319 P  
HETATM   38  O   UNL     1     -10.330  10.708  65.685  1.00  0.00    -0.255 OA 
HETATM   39  O   UNL     1      -8.615  11.309  63.716  1.00  0.00     0.137 OA 
BRANCH  37  40
HETATM   40  O   UNL     1     -10.782  10.712  63.459  1.00  0.00    -0.016 OA 
BRANCH  40  41
HETATM   41  C   UNL     1     -11.650  11.624  64.106  1.00  0.00    -0.254 C  
BRANCH  41  42
HETATM   42  C   UNL     1     -11.309  13.041  63.678  1.00  0.00    -0.339 C  
BRANCH  42  43
HETATM   43  N   UNL     1     -11.506  14.121  64.769  1.00  0.00    -0.365 N  
HETATM   44  C   UNL     1     -10.149  14.436  65.360  1.00  0.00    -0.359 C  
HETATM   45  C   UNL     1     -12.429  13.604  65.884  1.00  0.00    -0.452 C  
HETATM   46  C   UNL     1     -12.132  15.377  64.183  1.00  0.00    -0.088 C  
ENDBRANCH  42  43
ENDBRANCH  41  42
ENDBRANCH  40  41
ENDBRANCH  37  40
ENDBRANCH  36  37
ENDBRANCH  35  36
ENDBRANCH  18  35
ENDBRANCH  17  18
ENDBRANCH  16  17
ENDBRANCH  14  16
ENDBRANCH  13  14
ENDBRANCH  12  13
ENDBRANCH  11  12
ENDBRANCH  10  11
ENDBRANCH   9  10
ENDBRANCH   8   9
ENDBRANCH   7   8
ENDBRANCH   6   7
ENDBRANCH   5   6
ENDBRANCH   4   5
ENDBRANCH   3   4
ENDBRANCH   2   3
TORSDOF 36
ENDMDL
MODEL       65
REMARK 921   NORMALIZED FREE ENERGY PREDICTED BY IDOCK:   -1.68 KCAL/MOL
REMARK 922        TOTAL FREE ENERGY PREDICTED BY IDOCK:  -10.69 KCAL/MOL
REMARK 923 INTER-LIGAND FREE ENERGY PREDICTED BY IDOCK:   -6.73 KCAL/MOL
REMARK 924 INTRA-LIGAND FREE ENERGY PREDICTED BY IDOCK:   -3.96 KCAL/MOL
REMARK 927      BINDING AFFINITY PREDICTED BY RF-SCORE:    0.00 PKD
ROOT
HETATM    1  C   UNL     1     -10.690   3.766  64.002  1.00  0.00    -0.256 C  
HETATM    2  C   UNL     1     -10.303   4.211  65.402  1.00  0.00    -0.166 C  
ENDROOT
BRANCH   2   3
HETATM    3  C   UNL     1      -8.909   3.709  65.777  1.00  0.00    -0.127 C  
BRANCH   3   4
HETATM    4  C   UNL     1      -8.504   2.506  64.929  1.00  0.00    -0.096 C  
BRANCH   4   5
HETATM    5  C   UNL     1      -7.116   2.707  64.321  1.00  0.00    -0.049 C  
BRANCH   5   6
HETATM    6  C   UNL     1      -7.207   3.282  62.910  1.00  0.00    -0.048 C  
BRANCH   6   7
HETATM    7  C   UNL     1      -7.519   4.778  62.947  1.00  0.00    -0.052 C  
BRANCH   7   8
HETATM    8  C   UNL     1      -6.288   5.603  62.569  1.00  0.00    -0.022 C  
BRANCH   8   9
HETATM    9  C   UNL     1      -6.656   7.067  62.330  1.00  0.00    -0.052 C  
BRANCH   9  10
HETATM   10  C   UNL     1      -7.944   7.428  63.067  1.00  0.00    -0.105 C  
BRANCH  10  11
HETATM   11  C   UNL     1      -7.652   8.019  64.444  1.00  0.00    -0.116 C  
BRANCH  11  12
HETATM   12  C   UNL     1      -8.604   7.448  65.498  1.00  0.00    -0.093 C  
BRANCH  12  13
HETATM   13  C   UNL     1      -8.631   8.279  66.778  1.00  0.00    -0.131 C  
BRANCH  13  14
HETATM   14  C   UNL     1      -9.200   9.655  66.548  1.00  0.00    -0.158 C  
HETATM   15  O   UNL     1     -10.262   9.874  65.980  1.00  0.00    -0.254 OA 
BRANCH  14  16
HETATM   16  O   UNL     1      -8.388  10.596  67.101  1.00  0.00    -0.123 OA 
BRANCH  16  17
HETATM   17  C   UNL     1      -8.567  10.808  68.508  1.00  0.00    -0.148 C  
BRANCH  17  18
HETATM   18  C   UNL     1      -7.258  10.600  69.271  1.00  0.00    -0.113 C  
BRANCH  18  19
HETATM   19  O   UNL     1      -7.530   9.981  70.548  1.00  0.00    -0.269 OA 
BRANCH  19  20
HETATM   20  C   UNL     1      -7.912   8.682  70.491  1.00  0.00    -0.106 C  
HETATM   21  O   UNL     1      -7.347   7.800  69.861  1.00  0.00    -0.075 OA 
BRANCH  20  22
HETATM   22  C   UNL     1      -9.142   8.477  71.342  1.00  0.00    -0.266 C  
BRANCH  22  23
HETATM   23  C   UNL     1      -8.822   7.518  72.486  1.00  0.00    -0.171 C  
BRANCH  23  24
HETATM   24  C   UNL     1      -7.856   8.130  73.496  1.00  0.00    -0.235 C  
BRANCH  24  25
HETATM   25  C   UNL     1      -7.152   7.033  74.296  1.00  0.00    -0.093 C  
BRANCH  25  26
HETATM   26  C   UNL     1      -7.469   5.646  73.743  1.00  0.00    -0.090 C  
BRANCH  26  27
HETATM   27  C   UNL     1      -6.255   4.724  73.846  1.00  0.00    -0.050 C  
BRANCH  27  28
HETATM   28  C   UNL     1      -5.969   4.042  72.509  1.00  0.00    -0.012 C  
BRANCH  28  29
HETATM   29  C   UNL     1      -7.088   4.303  71.502  1.00  0.00    -0.042 C  
BRANCH  29  30
HETATM   30  C   UNL     1      -7.798   3.003  71.125  1.00  0.00    -0.050 C  
BRANCH  30  31
HETATM   31  C   UNL     1      -9.309   3.116  71.325  1.00  0.00    -0.207 C  
BRANCH  31  32
HETATM   32  C   UNL     1      -9.703   2.716  72.747  1.00  0.00    -0.181 C  
BRANCH  32  33
HETATM   33  C   UNL     1     -11.092   3.243  73.107  1.00  0.00    -0.164 C  
HETATM   34  C   UNL     1     -11.062   4.741  73.369  1.00  0.00    -0.422 C  
ENDBRANCH  32  33
ENDBRANCH  31  32
ENDBRANCH  30  31
ENDBRANCH  29  30
ENDBRANCH  28  29
ENDBRANCH  27  28
ENDBRANCH  26  27
ENDBRANCH  25  26
ENDBRANCH  24  25
ENDBRANCH  23  24
ENDBRANCH  22  23
ENDBRANCH  20  22
ENDBRANCH  19  20
ENDBRANCH  18  19
BRANCH  18  35
HETATM   35  C   UNL     1      -6.633  11.953  69.567  1.00  0.00    -0.093 C  
BRANCH  35  36
HETATM   36  O   UNL     1      -6.119  12.540  68.363  1.00  0.00    -0.053 OA 
BRANCH  36  37
HETATM   37  P   UNL     1      -6.465  14.232  68.258  1.00  0.00    -0.149 P  
HETATM   38  O   UNL     1      -7.370  14.028  67.035  1.00  0.00     0.029 OA 
HETATM   39  O   UNL     1      -7.022  14.268  69.681  1.00  0.00    -0.122 OA 
BRANCH  37  40
HETATM   40  O   UNL     1      -6.810  15.924  68.154  1.00  0.00    -0.112 OA 
BRANCH  40  41
HETATM   41  C   UNL     1      -8.149  16.134  67.747  1.00  0.00    -0.146 C  
BRANCH  41  42
HETATM   42  C   UNL     1      -8.743  17.293  68.530  1.00  0.00    -0.273 C  
BRANCH  42  43
HETATM   43  N   UNL     1      -9.019  18.571  67.702  1.00  0.00    -0.269 N  
HETATM   44  C   UNL     1      -9.733  18.156  66.433  1.00  0.00    -0.327 C  
HETATM   45  C   UNL     1      -7.703  19.270  67.329  1.00  0.00    -0.245 C  
HETATM   46  C   UNL     1      -9.869  19.556  68.490  1.00  0.00    -0.429 C  
ENDBRANCH  42  43
ENDBRANCH  41  42
ENDBRANCH  40  41
ENDBRANCH  37  40
ENDBRANCH  36  37
ENDBRANCH  35  36
ENDBRANCH  18  35
ENDBRANCH  17  18
ENDBRANCH  16  17
ENDBRANCH  14  16
ENDBRANCH  13  14
ENDBRANCH  12  13
ENDBRANCH  11  12
ENDBRANCH  10  11
ENDBRANCH   9  10
ENDBRANCH   8   9
ENDBRANCH   7   8
ENDBRANCH   6   7
ENDBRANCH   5   6
ENDBRANCH   4   5
ENDBRANCH   3   4
ENDBRANCH   2   3
TORSDOF 36
ENDMDL
MODEL       66
REMARK 921   NORMALIZED FREE ENERGY PREDICTED BY IDOCK:   -1.67 KCAL/MOL
REMARK 922        TOTAL FREE ENERGY PREDICTED BY IDOCK:  -10.67 KCAL/MOL
REMARK 923 INTER-LIGAND FREE ENERGY PREDICTED BY IDOCK:   -8.59 KCAL/MOL
REMARK 924 INTRA-LIGAND FREE ENERGY PREDICTED BY IDOCK:   -2.08 KCAL/MOL
REMARK 927      BINDING AFFINITY PREDICTED BY RF-SCORE:    0.00 PKD
ROOT
HETATM    1  C   UNL     1     -12.465  15.205  64.886  1.00  0.00     0.086 C  
HETATM    2  C   UNL     1     -11.241  16.089  65.065  1.00  0.00    -0.266 C  
ENDROOT
BRANCH   2   3
HETATM    3  C   UNL     1     -10.475  15.724  66.335  1.00  0.00    -0.307 C  
BRANCH   3   4
HETATM    4  C   UNL     1     -11.358  15.857  67.574  1.00  0.00    -0.098 C  
BRANCH   4   5
HETATM    5  C   UNL     1     -10.786  16.890  68.545  1.00  0.00    -0.335 C  
BRANCH   5   6
HETATM    6  C   UNL     1      -9.494  17.499  68.007  1.00  0.00    -0.280 C  
BRANCH   6   7
HETATM    7  C   UNL     1      -8.274  16.900  68.707  1.00  0.00    -0.244 C  
BRANCH   7   8
HETATM    8  C   UNL     1      -7.189  17.957  68.919  1.00  0.00    -0.258 C  
BRANCH   8   9
HETATM    9  C   UNL     1      -6.106  17.859  67.845  1.00  0.00    -0.156 C  
BRANCH   9  10
HETATM   10  C   UNL     1      -5.388  16.514  67.922  1.00  0.00    -0.131 C  
BRANCH  10  11
HETATM   11  C   UNL     1      -5.307  16.007  69.360  1.00  0.00    -0.114 C  
BRANCH  11  12
HETATM   12  C   UNL     1      -5.176  14.482  69.396  1.00  0.00    -0.086 C  
BRANCH  12  13
HETATM   13  C   UNL     1      -6.509  13.772  69.174  1.00  0.00    -0.109 C  
BRANCH  13  14
HETATM   14  C   UNL     1      -6.510  12.948  67.913  1.00  0.00    -0.127 C  
HETATM   15  O   UNL     1      -5.666  13.042  67.030  1.00  0.00    -0.298 OA 
BRANCH  14  16
HETATM   16  O   UNL     1      -7.546  12.069  67.928  1.00  0.00    -0.106 OA 
BRANCH  16  17
HETATM   17  C   UNL     1      -7.403  10.939  67.056  1.00  0.00    -0.118 C  
BRANCH  17  18
HETATM   18  C   UNL     1      -8.460   9.874  67.351  1.00  0.00    -0.118 C  
BRANCH  18  19
HETATM   19  O   UNL     1      -9.380   9.778  66.242  1.00  0.00    -0.161 OA 
BRANCH  19  20
HETATM   20  C   UNL     1      -8.806   9.759  65.014  1.00  0.00    -0.191 C  
HETATM   21  O   UNL     1      -8.872  10.653  64.183  1.00  0.00    -0.181 OA 
BRANCH  20  22
HETATM   22  C   UNL     1      -8.051   8.465  64.826  1.00  0.00    -0.155 C  
BRANCH  22  23
HETATM   23  C   UNL     1      -8.886   7.301  65.353  1.00  0.00     0.078 C  
BRANCH  23  24
HETATM   24  C   UNL     1      -8.037   6.276  66.100  1.00  0.00    -0.116 C  
BRANCH  24  25
HETATM   25  C   UNL     1      -7.775   5.055  65.217  1.00  0.00    -0.087 C  
BRANCH  25  26
HETATM   26  C   UNL     1      -9.075   4.366  64.813  1.00  0.00    -0.152 C  
BRANCH  26  27
HETATM   27  C   UNL     1      -9.204   2.998  65.482  1.00  0.00    -0.135 C  
BRANCH  27  28
HETATM   28  C   UNL     1      -8.376   2.936  66.765  1.00  0.00    -0.094 C  
BRANCH  28  29
HETATM   29  C   UNL     1      -9.271   2.845  67.999  1.00  0.00    -0.248 C  
BRANCH  29  30
HETATM   30  C   UNL     1      -9.658   4.238  68.497  1.00  0.00    -0.202 C  
BRANCH  30  31
HETATM   31  C   UNL     1      -9.630   4.311  70.023  1.00  0.00    -0.274 C  
BRANCH  31  32
HETATM   32  C   UNL     1      -8.514   5.237  70.506  1.00  0.00    -0.120 C  
BRANCH  32  33
HETATM   33  C   UNL     1      -8.625   6.620  69.867  1.00  0.00    -0.140 C  
HETATM   34  C   UNL     1      -7.264   7.128  69.415  1.00  0.00    -0.084 C  
ENDBRANCH  32  33
ENDBRANCH  31  32
ENDBRANCH  30  31
ENDBRANCH  29  30
ENDBRANCH  28  29
ENDBRANCH  27  28
ENDBRANCH  26  27
ENDBRANCH  25  26
ENDBRANCH  24  25
ENDBRANCH  23  24
ENDBRANCH  22  23
ENDBRANCH  20  22
ENDBRANCH  19  20
ENDBRANCH  18  19
BRANCH  18  35
HETATM   35  C   UNL     1      -9.277  10.303  68.559  1.00  0.00    -0.144 C  
BRANCH  35  36
HETATM   36  O   UNL     1     -10.132  11.403  68.219  1.00  0.00    -0.182 OA 
BRANCH  36  37
HETATM   37  P   UNL     1     -11.439  11.588  69.338  1.00  0.00    -0.336 P  
HETATM   38  O   UNL     1     -11.500  13.103  69.101  1.00  0.00    -0.273 OA 
HETATM   39  O   UNL     1     -12.322  10.611  68.561  1.00  0.00    -0.317 OA 
BRANCH  37  40
HETATM   40  O   UNL     1     -12.746  11.772  70.456  1.00  0.00    -0.173 OA 
BRANCH  40  41
HETATM   41  C   UNL     1     -13.007  10.551  71.122  1.00  0.00    -0.411 C  
BRANCH  41  42
HETATM   42  C   UNL     1     -11.774   9.665  71.061  1.00  0.00    -0.353 C  
BRANCH  42  43
HETATM   43  N   UNL     1     -11.950   8.254  71.673  1.00  0.00    -0.288 N  
HETATM   44  C   UNL     1     -13.266   8.234  72.421  1.00  0.00    -0.152 C  
HETATM   45  C   UNL     1     -10.811   7.945  72.658  1.00  0.00    -0.364 C  
HETATM   46  C   UNL     1     -11.940   7.187  70.590  1.00  0.00    -0.269 C  
ENDBRANCH  42  43
ENDBRANCH  41  42
ENDBRANCH  40  41
ENDBRANCH  37  40
ENDBRANCH  36  37
ENDBRANCH  35  36
ENDBRANCH  18  35
ENDBRANCH  17  18
ENDBRANCH  16  17
ENDBRANCH  14  16
ENDBRANCH  13  14
ENDBRANCH  12  13
ENDBRANCH  11  12
ENDBRANCH  10  11
ENDBRANCH   9  10
ENDBRANCH   8   9
ENDBRANCH   7   8
ENDBRANCH   6   7
ENDBRANCH   5   6
ENDBRANCH   4   5
ENDBRANCH   3   4
ENDBRANCH   2   3
TORSDOF 36
ENDMDL
MODEL       67
REMARK 921   NORMALIZED FREE ENERGY PREDICTED BY IDOCK:   -1.66 KCAL/MOL
REMARK 922        TOTAL FREE ENERGY PREDICTED BY IDOCK:  -10.64 KCAL/MOL
REMARK 923 INTER-LIGAND FREE ENERGY PREDICTED BY IDOCK:   -6.81 KCAL/MOL
REMARK 924 INTRA-LIGAND FREE ENERGY PREDICTED BY IDOCK:   -3.82 KCAL/MOL
REMARK 927      BINDING AFFINITY PREDICTED BY RF-SCORE:    0.00 PKD
ROOT
HETATM    1  C   UNL     1     -10.831   4.123  63.956  1.00  0.00    -0.028 C  
HETATM    2  C   UNL     1     -10.811   4.475  65.434  1.00  0.00    -0.096 C  
ENDROOT
BRANCH   2   3
HETATM    3  C   UNL     1      -9.574   3.904  66.124  1.00  0.00    -0.193 C  
BRANCH   3   4
HETATM    4  C   UNL     1      -9.139   2.587  65.484  1.00  0.00    -0.116 C  
BRANCH   4   5
HETATM    5  C   UNL     1      -7.619   2.434  65.528  1.00  0.00    -0.072 C  
BRANCH   5   6
HETATM    6  C   UNL     1      -6.978   2.885  64.218  1.00  0.00    -0.045 C  
BRANCH   6   7
HETATM    7  C   UNL     1      -6.855   4.408  64.165  1.00  0.00    -0.045 C  
BRANCH   7   8
HETATM    8  C   UNL     1      -5.390   4.836  64.066  1.00  0.00    -0.013 C  
BRANCH   8   9
HETATM    9  C   UNL     1      -5.245   6.124  63.257  1.00  0.00    -0.018 C  
BRANCH   9  10
HETATM   10  C   UNL     1      -6.591   6.831  63.119  1.00  0.00    -0.043 C  
BRANCH  10  11
HETATM   11  C   UNL     1      -6.943   7.612  64.384  1.00  0.00    -0.060 C  
BRANCH  11  12
HETATM   12  C   UNL     1      -8.383   7.328  64.820  1.00  0.00     0.011 C  
BRANCH  12  13
HETATM   13  C   UNL     1      -8.923   8.380  65.785  1.00  0.00    -0.207 C  
BRANCH  13  14
HETATM   14  C   UNL     1      -9.109   9.719  65.119  1.00  0.00    -0.222 C  
HETATM   15  O   UNL     1      -9.774   9.896  64.107  1.00  0.00    -0.234 OA 
BRANCH  14  16
HETATM   16  O   UNL     1      -8.472  10.687  65.830  1.00  0.00    -0.169 OA 
BRANCH  16  17
HETATM   17  C   UNL     1      -9.108  11.061  67.060  1.00  0.00    -0.147 C  
BRANCH  17  18
HETATM   18  C   UNL     1      -8.155  10.910  68.246  1.00  0.00    -0.124 C  
BRANCH  18  19
HETATM   19  O   UNL     1      -8.892  10.496  69.416  1.00  0.00    -0.152 OA 
BRANCH  19  20
HETATM   20  C   UNL     1      -9.314   9.208  69.409  1.00  0.00    -0.160 C  
HETATM   21  O   UNL     1      -8.594   8.222  69.489  1.00  0.00    -0.131 OA 
BRANCH  20  22
HETATM   22  C   UNL     1     -10.819   9.167  69.303  1.00  0.00    -0.150 C  
BRANCH  22  23
HETATM   23  C   UNL     1     -11.389   8.287  70.413  1.00  0.00    -0.177 C  
BRANCH  23  24
HETATM   24  C   UNL     1     -11.163   8.890  71.797  1.00  0.00    -0.432 C  
BRANCH  24  25
HETATM   25  C   UNL     1     -11.140   7.792  72.862  1.00  0.00    -0.457 C  
BRANCH  25  26
HETATM   26  C   UNL     1     -10.976   6.409  72.237  1.00  0.00    -0.289 C  
BRANCH  26  27
HETATM   27  C   UNL     1     -10.306   5.443  73.212  1.00  0.00    -0.235 C  
BRANCH  27  28
HETATM   28  C   UNL     1      -9.096   4.767  72.571  1.00  0.00    -0.142 C  
BRANCH  28  29
HETATM   29  C   UNL     1      -8.951   5.165  71.102  1.00  0.00    -0.162 C  
BRANCH  29  30
HETATM   30  C   UNL     1      -9.418   4.037  70.183  1.00  0.00    -0.258 C  
BRANCH  30  31
HETATM   31  C   UNL     1      -8.237   3.217  69.665  1.00  0.00    -0.072 C  
BRANCH  31  32
HETATM   32  C   UNL     1      -7.299   4.080  68.821  1.00  0.00    -0.055 C  
BRANCH  32  33
HETATM   33  C   UNL     1      -5.845   3.912  69.260  1.00  0.00    -0.022 C  
HETATM   34  C   UNL     1      -5.435   5.002  70.238  1.00  0.00    -0.008 C  
ENDBRANCH  32  33
ENDBRANCH  31  32
ENDBRANCH  30  31
ENDBRANCH  29  30
ENDBRANCH  28  29
ENDBRANCH  27  28
ENDBRANCH  26  27
ENDBRANCH  25  26
ENDBRANCH  24  25
ENDBRANCH  23  24
ENDBRANCH  22  23
ENDBRANCH  20  22
ENDBRANCH  19  20
ENDBRANCH  18  19
BRANCH  18  35
HETATM   35  C   UNL     1      -7.544  12.263  68.570  1.00  0.00    -0.118 C  
BRANCH  35  36
HETATM   36  O   UNL     1      -6.962  12.844  67.395  1.00  0.00    -0.155 OA 
BRANCH  36  37
HETATM   37  P   UNL     1      -7.249  14.547  67.293  1.00  0.00     0.341 P  
HETATM   38  O   UNL     1      -8.627  14.332  66.653  1.00  0.00    -0.141 OA 
HETATM   39  O   UNL     1      -7.076  14.728  68.801  1.00  0.00    -0.102 OA 
BRANCH  37  40
HETATM   40  O   UNL     1      -7.536  16.251  67.192  1.00  0.00    -0.161 OA 
BRANCH  40  41
HETATM   41  C   UNL     1      -8.873  16.551  67.545  1.00  0.00    -0.191 C  
BRANCH  41  42
HETATM   42  C   UNL     1      -8.894  17.749  68.479  1.00  0.00    -0.283 C  
BRANCH  42  43
HETATM   43  N   UNL     1      -9.590  19.010  67.912  1.00  0.00    -0.307 N  
HETATM   44  C   UNL     1      -8.526  19.884  67.284  1.00  0.00    -0.324 C  
HETATM   45  C   UNL     1     -10.284  19.798  69.034  1.00  0.00    -0.266 C  
HETATM   46  C   UNL     1     -10.643  18.633  66.881  1.00  0.00    -0.385 C  
ENDBRANCH  42  43
ENDBRANCH  41  42
ENDBRANCH  40  41
ENDBRANCH  37  40
ENDBRANCH  36  37
ENDBRANCH  35  36
ENDBRANCH  18  35
ENDBRANCH  17  18
ENDBRANCH  16  17
ENDBRANCH  14  16
ENDBRANCH  13  14
ENDBRANCH  12  13
ENDBRANCH  11  12
ENDBRANCH  10  11
ENDBRANCH   9  10
ENDBRANCH   8   9
ENDBRANCH   7   8
ENDBRANCH   6   7
ENDBRANCH   5   6
ENDBRANCH   4   5
ENDBRANCH   3   4
ENDBRANCH   2   3
TORSDOF 36
ENDMDL
MODEL       68
REMARK 921   NORMALIZED FREE ENERGY PREDICTED BY IDOCK:   -1.57 KCAL/MOL
REMARK 922        TOTAL FREE ENERGY PREDICTED BY IDOCK:  -10.36 KCAL/MOL
REMARK 923 INTER-LIGAND FREE ENERGY PREDICTED BY IDOCK:   -8.11 KCAL/MOL
REMARK 924 INTRA-LIGAND FREE ENERGY PREDICTED BY IDOCK:   -2.25 KCAL/MOL
REMARK 927      BINDING AFFINITY PREDICTED BY RF-SCORE:    0.00 PKD
ROOT
HETATM    1  C   UNL     1      -7.806   8.926  71.204  1.00  0.00    -0.172 C  
HETATM    2  C   UNL     1      -6.875   7.843  70.685  1.00  0.00    -0.041 C  
ENDROOT
BRANCH   2   3
HETATM    3  C   UNL     1      -7.642   6.782  69.899  1.00  0.00    -0.100 C  
BRANCH   3   4
HETATM    4  C   UNL     1      -9.134   6.818  70.226  1.00  0.00    -0.153 C  
BRANCH   4   5
HETATM    5  C   UNL     1      -9.555   5.566  70.996  1.00  0.00    -0.217 C  
BRANCH   5   6
HETATM    6  C   UNL     1     -10.915   5.756  71.662  1.00  0.00    -0.308 C  
BRANCH   6   7
HETATM    7  C   UNL     1     -11.505   7.125  71.321  1.00  0.00    -0.314 C  
BRANCH   7   8
HETATM    8  C   UNL     1     -11.770   7.938  72.589  1.00  0.00    -0.398 C  
BRANCH   8   9
HETATM    9  C   UNL     1     -13.048   8.764  72.458  1.00  0.00    -0.392 C  
BRANCH   9  10
HETATM   10  C   UNL     1     -12.740  10.157  71.914  1.00  0.00    -0.493 C  
BRANCH  10  11
HETATM   11  C   UNL     1     -12.400  10.111  70.425  1.00  0.00    -0.268 C  
BRANCH  11  12
HETATM   12  C   UNL     1     -10.924  10.445  70.191  1.00  0.00    -0.365 C  
BRANCH  12  13
HETATM   13  C   UNL     1     -10.731  11.577  69.184  1.00  0.00    -0.210 C  
BRANCH  13  14
HETATM   14  C   UNL     1     -11.402  11.285  67.867  1.00  0.00    -0.299 C  
HETATM   15  O   UNL     1     -12.468  11.775  67.516  1.00  0.00     0.038 OA 
BRANCH  14  16
HETATM   16  O   UNL     1     -10.632  10.445  67.126  1.00  0.00    -0.241 OA 
BRANCH  16  17
HETATM   17  C   UNL     1      -9.771  11.085  66.173  1.00  0.00    -0.217 C  
BRANCH  17  18
HETATM   18  C   UNL     1      -9.299  12.448  66.680  1.00  0.00    -0.227 C  
BRANCH  18  19
HETATM   19  O   UNL     1      -9.488  13.445  65.652  1.00  0.00    -0.058 OA 
BRANCH  19  20
HETATM   20  C   UNL     1     -10.376  13.114  64.682  1.00  0.00    -0.361 C  
HETATM   21  O   UNL     1     -10.110  12.529  63.643  1.00  0.00    -0.380 OA 
BRANCH  20  22
HETATM   22  C   UNL     1     -11.759  13.565  65.085  1.00  0.00    -0.341 C  
BRANCH  22  23
HETATM   23  C   UNL     1     -12.184  14.753  64.225  1.00  0.00    -0.402 C  
BRANCH  23  24
HETATM   24  C   UNL     1     -11.941  16.086  64.927  1.00  0.00     0.416 C  
BRANCH  24  25
HETATM   25  C   UNL     1     -10.466  16.479  64.832  1.00  0.00     0.101 C  
BRANCH  25  26
HETATM   26  C   UNL     1      -9.912  16.907  66.189  1.00  0.00    -0.332 C  
BRANCH  26  27
HETATM   27  C   UNL     1     -10.700  16.265  67.330  1.00  0.00    -0.287 C  
BRANCH  27  28
HETATM   28  C   UNL     1     -10.024  16.522  68.676  1.00  0.00    -0.248 C  
BRANCH  28  29
HETATM   29  C   UNL     1      -9.217  17.820  68.653  1.00  0.00    -0.264 C  
BRANCH  29  30
HETATM   30  C   UNL     1      -7.723  17.537  68.802  1.00  0.00    -0.252 C  
BRANCH  30  31
HETATM   31  C   UNL     1      -7.415  16.053  68.602  1.00  0.00    -0.166 C  
BRANCH  31  32
HETATM   32  C   UNL     1      -6.933  15.414  69.904  1.00  0.00    -0.095 C  
BRANCH  32  33
HETATM   33  C   UNL     1      -5.824  14.395  69.645  1.00  0.00    -0.105 C  
HETATM   34  C   UNL     1      -5.830  13.295  70.695  1.00  0.00    -0.150 C  
ENDBRANCH  32  33
ENDBRANCH  31  32
ENDBRANCH  30  31
ENDBRANCH  29  30
ENDBRANCH  28  29
ENDBRANCH  27  28
ENDBRANCH  26  27
ENDBRANCH  25  26
ENDBRANCH  24  25
ENDBRANCH  23  24
ENDBRANCH  22  23
ENDBRANCH  20  22
ENDBRANCH  19  20
ENDBRANCH  18  19
BRANCH  18  35
HETATM   35  C   UNL     1      -7.806  12.386  66.958  1.00  0.00    -0.085 C  
BRANCH  35  36
HETATM   36  O   UNL     1      -7.526  11.407  67.968  1.00  0.00    -0.091 OA 
BRANCH  36  37
HETATM   37  P   UNL     1      -6.516  10.130  67.382  1.00  0.00    -0.068 P  
HETATM   38  O   UNL     1      -7.617   9.084  67.603  1.00  0.00    -0.091 OA 
HETATM   39  O   UNL     1      -6.317  10.824  66.035  1.00  0.00    -0.122 OA 
BRANCH  37  40
HETATM   40  O   UNL     1      -5.505   8.854  66.796  1.00  0.00    -0.039 OA 
BRANCH  40  41
HETATM   41  C   UNL     1      -6.149   7.602  66.944  1.00  0.00    -0.048 C  
BRANCH  41  42
HETATM   42  C   UNL     1      -5.690   6.660  65.845  1.00  0.00    -0.025 C  
BRANCH  42  43
HETATM   43  N   UNL     1      -6.522   6.719  64.541  1.00  0.00    -0.041 N  
HETATM   44  C   UNL     1      -7.902   6.179  64.848  1.00  0.00    -0.108 C  
HETATM   45  C   UNL     1      -5.879   5.852  63.447  1.00  0.00    -0.021 C  
HETATM   46  C   UNL     1      -6.616   8.144  64.019  1.00  0.00    -0.067 C  
ENDBRANCH  42  43
ENDBRANCH  41  42
ENDBRANCH  40  41
ENDBRANCH  37  40
ENDBRANCH  36  37
ENDBRANCH  35  36
ENDBRANCH  18  35
ENDBRANCH  17  18
ENDBRANCH  16  17
ENDBRANCH  14  16
ENDBRANCH  13  14
ENDBRANCH  12  13
ENDBRANCH  11  12
ENDBRANCH  10  11
ENDBRANCH   9  10
ENDBRANCH   8   9
ENDBRANCH   7   8
ENDBRANCH   6   7
ENDBRANCH   5   6
ENDBRANCH   4   5
ENDBRANCH   3   4
ENDBRANCH   2   3
TORSDOF 36
ENDMDL
MODEL       69
REMARK 921   NORMALIZED FREE ENERGY PREDICTED BY IDOCK:   -1.37 KCAL/MOL
REMARK 922        TOTAL FREE ENERGY PREDICTED BY IDOCK:   -9.75 KCAL/MOL
REMARK 923 INTER-LIGAND FREE ENERGY PREDICTED BY IDOCK:   -7.86 KCAL/MOL
REMARK 924 INTRA-LIGAND FREE ENERGY PREDICTED BY IDOCK:   -1.89 KCAL/MOL
REMARK 927      BINDING AFFINITY PREDICTED BY RF-SCORE:    0.00 PKD
ROOT
HETATM    1  C   UNL     1     -13.211   9.956  71.613  1.00  0.00    -0.519 C  
HETATM    2  C   UNL     1     -13.823  11.280  72.038  1.00  0.00     0.275 C  
ENDROOT
BRANCH   2   3
HETATM    3  C   UNL     1     -12.805  12.415  71.951  1.00  0.00    -0.315 C  
BRANCH   3   4
HETATM    4  C   UNL     1     -12.379  12.670  70.507  1.00  0.00    -0.350 C  
BRANCH   4   5
HETATM    5  C   UNL     1     -11.594  13.976  70.391  1.00  0.00    -0.206 C  
BRANCH   5   6
HETATM    6  C   UNL     1     -12.529  15.176  70.265  1.00  0.00    -0.388 C  
BRANCH   6   7
HETATM    7  C   UNL     1     -12.244  15.960  68.984  1.00  0.00     0.036 C  
BRANCH   7   8
HETATM    8  C   UNL     1     -10.745  15.989  68.682  1.00  0.00    -0.281 C  
BRANCH   8   9
HETATM    9  C   UNL     1     -10.241  17.423  68.528  1.00  0.00    -0.369 C  
BRANCH   9  10
HETATM   10  C   UNL     1      -9.715  17.664  67.115  1.00  0.00    -0.291 C  
BRANCH  10  11
HETATM   11  C   UNL     1      -8.243  18.072  67.130  1.00  0.00    -0.231 C  
BRANCH  11  12
HETATM   12  C   UNL     1      -7.523  17.476  68.342  1.00  0.00    -0.247 C  
BRANCH  12  13
HETATM   13  C   UNL     1      -7.302  15.971  68.213  1.00  0.00    -0.129 C  
BRANCH  13  14
HETATM   14  C   UNL     1      -6.214  15.477  69.131  1.00  0.00    -0.116 C  
HETATM   15  O   UNL     1      -6.108  15.799  70.307  1.00  0.00    -0.144 OA 
BRANCH  14  16
HETATM   16  O   UNL     1      -5.411  14.598  68.474  1.00  0.00    -0.090 OA 
BRANCH  16  17
HETATM   17  C   UNL     1      -6.075  13.444  67.940  1.00  0.00    -0.146 C  
BRANCH  17  18
HETATM   18  C   UNL     1      -7.131  12.913  68.910  1.00  0.00    -0.063 C  
BRANCH  18  19
HETATM   19  O   UNL     1      -6.799  11.564  69.303  1.00  0.00    -0.105 OA 
BRANCH  19  20
HETATM   20  C   UNL     1      -5.922  11.460  70.332  1.00  0.00    -0.142 C  
HETATM   21  O   UNL     1      -5.474  12.394  70.983  1.00  0.00    -0.224 OA 
BRANCH  20  22
HETATM   22  C   UNL     1      -5.588  10.008  70.571  1.00  0.00    -0.064 C  
BRANCH  22  23
HETATM   23  C   UNL     1      -6.150   9.565  71.919  1.00  0.00     0.123 C  
BRANCH  23  24
HETATM   24  C   UNL     1      -7.120   8.395  71.781  1.00  0.00    -0.098 C  
BRANCH  24  25
HETATM   25  C   UNL     1      -8.564   8.876  71.927  1.00  0.00    -0.060 C  
BRANCH  25  26
HETATM   26  C   UNL     1      -9.509   8.099  71.015  1.00  0.00    -0.185 C  
BRANCH  26  27
HETATM   27  C   UNL     1     -10.684   7.523  71.805  1.00  0.00    -0.243 C  
BRANCH  27  28
HETATM   28  C   UNL     1     -11.214   6.249  71.149  1.00  0.00    -0.365 C  
BRANCH  28  29
HETATM   29  C   UNL     1     -11.362   6.423  69.638  1.00  0.00    -0.479 C  
BRANCH  29  30
HETATM   30  C   UNL     1     -10.270   5.659  68.891  1.00  0.00    -0.279 C  
BRANCH  30  31
HETATM   31  C   UNL     1      -9.791   4.448  69.691  1.00  0.00    -0.272 C  
BRANCH  31  32
HETATM   32  C   UNL     1      -8.303   4.563  70.020  1.00  0.00    -0.077 C  
BRANCH  32  33
HETATM   33  C   UNL     1      -8.046   4.348  71.511  1.00  0.00    -0.091 C  
HETATM   34  C   UNL     1      -8.799   3.133  72.030  1.00  0.00    -0.119 C  
ENDBRANCH  32  33
ENDBRANCH  31  32
ENDBRANCH  30  31
ENDBRANCH  29  30
ENDBRANCH  28  29
ENDBRANCH  27  28
ENDBRANCH  26  27
ENDBRANCH  25  26
ENDBRANCH  24  25
ENDBRANCH  23  24
ENDBRANCH  22  23
ENDBRANCH  20  22
ENDBRANCH  19  20
ENDBRANCH  18  19
BRANCH  18  35
HETATM   35  C   UNL     1      -8.472  12.842  68.198  1.00  0.00    -0.176 C  
BRANCH  35  36
HETATM   36  O   UNL     1      -9.293  11.819  68.779  1.00  0.00    -0.130 OA 
BRANCH  36  37
HETATM   37  P   UNL     1      -9.997  10.786  67.583  1.00  0.00    -0.183 P  
HETATM   38  O   UNL     1      -9.522  11.693  66.440  1.00  0.00    -0.205 OA 
HETATM   39  O   UNL     1      -9.180   9.583  68.054  1.00  0.00    -0.130 OA 
BRANCH  37  40
HETATM   40  O   UNL     1     -10.701   9.752  66.388  1.00  0.00    -0.089 OA 
BRANCH  40  41
HETATM   41  C   UNL     1      -9.740   9.393  65.413  1.00  0.00    -0.178 C  
BRANCH  41  42
HETATM   42  C   UNL     1      -8.620   8.604  66.070  1.00  0.00    -0.155 C  
BRANCH  42  43
HETATM   43  N   UNL     1      -7.385   8.348  65.173  1.00  0.00    -0.079 N  
HETATM   44  C   UNL     1      -6.691   9.674  64.951  1.00  0.00    -0.104 C  
HETATM   45  C   UNL     1      -7.811   7.774  63.813  1.00  0.00    -0.132 C  
HETATM   46  C   UNL     1      -6.435   7.356  65.826  1.00  0.00    -0.045 C  
ENDBRANCH  42  43
ENDBRANCH  41  42
ENDBRANCH  40  41
ENDBRANCH  37  40
ENDBRANCH  36  37
ENDBRANCH  35  36
ENDBRANCH  18  35
ENDBRANCH  17  18
ENDBRANCH  16  17
ENDBRANCH  14  16
ENDBRANCH  13  14
ENDBRANCH  12  13
ENDBRANCH  11  12
ENDBRANCH  10  11
ENDBRANCH   9  10
ENDBRANCH   8   9
ENDBRANCH   7   8
ENDBRANCH   6   7
ENDBRANCH   5   6
ENDBRANCH   4   5
ENDBRANCH   3   4
ENDBRANCH   2   3
TORSDOF 36
ENDMDL
MODEL       70
REMARK 921   NORMALIZED FREE ENERGY PREDICTED BY IDOCK:   -1.29 KCAL/MOL
REMARK 922        TOTAL FREE ENERGY PREDICTED BY IDOCK:   -9.50 KCAL/MOL
REMARK 923 INTER-LIGAND FREE ENERGY PREDICTED BY IDOCK:   -7.45 KCAL/MOL
REMARK 924 INTRA-LIGAND FREE ENERGY PREDICTED BY IDOCK:   -2.05 KCAL/MOL
REMARK 927      BINDING AFFINITY PREDICTED BY RF-SCORE:    0.00 PKD
ROOT
HETATM    1  C   UNL     1     -12.784  14.150  64.643  1.00  0.00    -0.159 C  
HETATM    2  C   UNL     1     -11.600  15.096  64.736  1.00  0.00    -0.364 C  
ENDROOT
BRANCH   2   3
HETATM    3  C   UNL     1     -10.780  14.836  65.999  1.00  0.00    -0.314 C  
BRANCH   3   4
HETATM    4  C   UNL     1     -11.581  15.159  67.258  1.00  0.00    -0.231 C  
BRANCH   4   5
HETATM    5  C   UNL     1     -11.006  16.381  67.974  1.00  0.00    -0.327 C  
BRANCH   5   6
HETATM    6  C   UNL     1      -9.874  17.013  67.169  1.00  0.00    -0.269 C  
BRANCH   6   7
HETATM    7  C   UNL     1      -8.516  16.708  67.801  1.00  0.00    -0.191 C  
BRANCH   7   8
HETATM    8  C   UNL     1      -7.559  17.890  67.641  1.00  0.00    -0.215 C  
BRANCH   8   9
HETATM    9  C   UNL     1      -6.434  17.561  66.662  1.00  0.00    -0.252 C  
BRANCH   9  10
HETATM   10  C   UNL     1      -5.674  16.315  67.109  1.00  0.00    -0.085 C  
BRANCH  10  11
HETATM   11  C   UNL     1      -5.860  16.055  68.603  1.00  0.00    -0.104 C  
BRANCH  11  12
HETATM   12  C   UNL     1      -5.667  14.571  68.928  1.00  0.00    -0.086 C  
BRANCH  12  13
HETATM   13  C   UNL     1      -6.871  13.721  68.531  1.00  0.00    -0.097 C  
BRANCH  13  14
HETATM   14  C   UNL     1      -6.504  12.649  67.538  1.00  0.00    -0.158 C  
HETATM   15  O   UNL     1      -5.458  12.629  66.903  1.00  0.00    -0.335 OA 
BRANCH  14  16
HETATM   16  O   UNL     1      -7.477  11.700  67.493  1.00  0.00    -0.108 OA 
BRANCH  16  17
HETATM   17  C   UNL     1      -7.031  10.382  67.142  1.00  0.00    -0.088 C  
BRANCH  17  18
HETATM   18  C   UNL     1      -8.101   9.335  67.450  1.00  0.00    -0.110 C  
BRANCH  18  19
HETATM   19  O   UNL     1      -8.969   9.172  66.307  1.00  0.00    -0.142 OA 
BRANCH  19  20
HETATM   20  C   UNL     1      -8.340   8.898  65.138  1.00  0.00    -0.161 C  
HETATM   21  O   UNL     1      -8.179   9.685  64.216  1.00  0.00    -0.135 OA 
BRANCH  20  22
HETATM   22  C   UNL     1      -7.849   7.471  65.146  1.00  0.00    -0.122 C  
BRANCH  22  23
HETATM   23  C   UNL     1      -8.917   6.563  65.751  1.00  0.00    -0.060 C  
BRANCH  23  24
HETATM   24  C   UNL     1      -8.359   5.683  66.866  1.00  0.00    -0.108 C  
BRANCH  24  25
HETATM   25  C   UNL     1      -7.988   4.303  66.322  1.00  0.00    -0.098 C  
BRANCH  25  26
HETATM   26  C   UNL     1      -9.226   3.442  66.087  1.00  0.00    -0.169 C  
BRANCH  26  27
HETATM   27  C   UNL     1      -9.054   2.053  66.700  1.00  0.00    -0.072 C  
BRANCH  27  28
HETATM   28  C   UNL     1      -8.182   2.111  67.953  1.00  0.00    -0.075 C  
BRANCH  28  29
HETATM   29  C   UNL     1      -9.022   1.962  69.221  1.00  0.00    -0.148 C  
BRANCH  29  30
HETATM   30  C   UNL     1      -9.301   3.325  69.854  1.00  0.00    -0.234 C  
BRANCH  30  31
HETATM   31  C   UNL     1      -8.931   3.336  71.336  1.00  0.00    -0.154 C  
BRANCH  31  32
HETATM   32  C   UNL     1     -10.118   3.776  72.193  1.00  0.00    -0.220 C  
BRANCH  32  33
HETATM   33  C   UNL     1     -10.236   5.299  72.237  1.00  0.00    -0.250 C  
HETATM   34  C   UNL     1     -11.670   5.747  71.997  1.00  0.00    -0.175 C  
ENDBRANCH  32  33
ENDBRANCH  31  32
ENDBRANCH  30  31
ENDBRANCH  29  30
ENDBRANCH  28  29
ENDBRANCH  27  28
ENDBRANCH  26  27
ENDBRANCH  25  26
ENDBRANCH  24  25
ENDBRANCH  23  24
ENDBRANCH  22  23
ENDBRANCH  20  22
ENDBRANCH  19  20
ENDBRANCH  18  19
BRANCH  18  35
HETATM   35  C   UNL     1      -8.972   9.833  68.591  1.00  0.00    -0.130 C  
BRANCH  35  36
HETATM   36  O   UNL     1     -10.130  10.508  68.079  1.00  0.00    -0.158 OA 
BRANCH  36  37
HETATM   37  P   UNL     1     -11.400  10.613  69.249  1.00  0.00    -0.290 P  
HETATM   38  O   UNL     1     -11.634   9.097  69.212  1.00  0.00     0.282 OA 
HETATM   39  O   UNL     1     -10.479  11.264  70.280  1.00  0.00     0.564 OA 
BRANCH  37  40
HETATM   40  O   UNL     1     -12.670  10.718  70.419  1.00  0.00    -0.327 OA 
BRANCH  40  41
HETATM   41  C   UNL     1     -12.457  11.816  71.288  1.00  0.00    -0.246 C  
BRANCH  41  42
HETATM   42  C   UNL     1     -12.837  13.105  70.581  1.00  0.00    -0.029 C  
BRANCH  42  43
HETATM   43  N   UNL     1     -12.793  14.375  71.465  1.00  0.00    -0.322 N  
HETATM   44  C   UNL     1     -13.889  15.306  70.993  1.00  0.00    -0.335 C  
HETATM   45  C   UNL     1     -11.439  15.087  71.326  1.00  0.00    -0.311 C  
HETATM   46  C   UNL     1     -12.993  14.024  72.931  1.00  0.00    -0.336 C  
ENDBRANCH  42  43
ENDBRANCH  41  42
ENDBRANCH  40  41
ENDBRANCH  37  40
ENDBRANCH  36  37
ENDBRANCH  35  36
ENDBRANCH  18  35
ENDBRANCH  17  18
ENDBRANCH  16  17
ENDBRANCH  14  16
ENDBRANCH  13  14
ENDBRANCH  12  13
ENDBRANCH  11  12
ENDBRANCH  10  11
ENDBRANCH   9  10
ENDBRANCH   8   9
ENDBRANCH   7   8
ENDBRANCH   6   7
ENDBRANCH   5   6
ENDBRANCH   4   5
ENDBRANCH   3   4
ENDBRANCH   2   3
TORSDOF 36
ENDMDL
MODEL       71
REMARK 921   NORMALIZED FREE ENERGY PREDICTED BY IDOCK:   -1.26 KCAL/MOL
REMARK 922        TOTAL FREE ENERGY PREDICTED BY IDOCK:   -9.41 KCAL/MOL
REMARK 923 INTER-LIGAND FREE ENERGY PREDICTED BY IDOCK:   -7.17 KCAL/MOL
REMARK 924 INTRA-LIGAND FREE ENERGY PREDICTED BY IDOCK:   -2.24 KCAL/MOL
REMARK 927      BINDING AFFINITY PREDICTED BY RF-SCORE:    0.00 PKD
ROOT
HETATM    1  C   UNL     1      -9.501   4.373  69.945  1.00  0.00    -0.253 C  
HETATM    2  C   UNL     1     -10.696   5.243  69.595  1.00  0.00    -0.155 C  
ENDROOT
BRANCH   2   3
HETATM    3  C   UNL     1     -10.284   6.420  68.713  1.00  0.00    -0.206 C  
BRANCH   3   4
HETATM    4  C   UNL     1      -9.006   6.112  67.935  1.00  0.00    -0.112 C  
BRANCH   4   5
HETATM    5  C   UNL     1      -7.951   7.194  68.166  1.00  0.00    -0.119 C  
BRANCH   5   6
HETATM    6  C   UNL     1      -6.786   6.662  68.997  1.00  0.00    -0.052 C  
BRANCH   6   7
HETATM    7  C   UNL     1      -5.453   6.906  68.289  1.00  0.00    -0.017 C  
BRANCH   7   8
HETATM    8  C   UNL     1      -5.673   7.307  66.829  1.00  0.00    -0.023 C  
BRANCH   8   9
HETATM    9  C   UNL     1      -5.944   6.083  65.956  1.00  0.00    -0.028 C  
BRANCH   9  10
HETATM   10  C   UNL     1      -6.387   6.505  64.557  1.00  0.00    -0.038 C  
BRANCH  10  11
HETATM   11  C   UNL     1      -7.581   7.457  64.613  1.00  0.00    -0.105 C  
BRANCH  11  12
HETATM   12  C   UNL     1      -7.117   8.916  64.612  1.00  0.00    -0.088 C  
BRANCH  12  13
HETATM   13  C   UNL     1      -8.246   9.892  64.931  1.00  0.00    -0.146 C  
BRANCH  13  14
HETATM   14  C   UNL     1      -9.182   9.352  65.982  1.00  0.00    -0.200 C  
HETATM   15  O   UNL     1     -10.159   8.656  65.739  1.00  0.00     0.024 OA 
BRANCH  14  16
HETATM   16  O   UNL     1      -8.753   9.713  67.221  1.00  0.00    -0.131 OA 
BRANCH  16  17
HETATM   17  C   UNL     1      -9.713  10.422  68.018  1.00  0.00    -0.150 C  
BRANCH  17  18
HETATM   18  C   UNL     1      -9.682  11.921  67.720  1.00  0.00    -0.189 C  
BRANCH  18  19
HETATM   19  O   UNL     1     -10.412  12.193  66.504  1.00  0.00    -0.219 OA 
BRANCH  19  20
HETATM   20  C   UNL     1     -11.139  13.337  66.510  1.00  0.00    -0.294 C  
HETATM   21  O   UNL     1     -11.186  14.154  65.601  1.00  0.00    -0.300 OA 
BRANCH  20  22
HETATM   22  C   UNL     1     -11.901  13.450  67.807  1.00  0.00    -0.395 C  
BRANCH  22  23
HETATM   23  C   UNL     1     -11.566  14.774  68.488  1.00  0.00    -0.348 C  
BRANCH  23  24
HETATM   24  C   UNL     1     -11.749  14.705  70.002  1.00  0.00    -0.348 C  
BRANCH  24  25
HETATM   25  C   UNL     1     -12.838  13.695  70.363  1.00  0.00    -0.108 C  
BRANCH  25  26
HETATM   26  C   UNL     1     -12.381  12.750  71.471  1.00  0.00     0.039 C  
BRANCH  26  27
HETATM   27  C   UNL     1     -13.208  11.465  71.473  1.00  0.00    -0.333 C  
BRANCH  27  28
HETATM   28  C   UNL     1     -12.507  10.361  70.684  1.00  0.00    -0.437 C  
BRANCH  28  29
HETATM   29  C   UNL     1     -11.449   9.658  71.532  1.00  0.00    -0.439 C  
BRANCH  29  30
HETATM   30  C   UNL     1     -10.253   9.240  70.678  1.00  0.00    -0.335 C  
BRANCH  30  31
HETATM   31  C   UNL     1      -9.218   8.478  71.505  1.00  0.00    -0.288 C  
BRANCH  31  32
HETATM   32  C   UNL     1      -9.583   8.495  72.989  1.00  0.00    -0.095 C  
BRANCH  32  33
HETATM   33  C   UNL     1      -8.983   7.296  73.722  1.00  0.00    -0.251 C  
HETATM   34  C   UNL     1      -8.828   6.103  72.792  1.00  0.00    -0.123 C  
ENDBRANCH  32  33
ENDBRANCH  31  32
ENDBRANCH  30  31
ENDBRANCH  29  30
ENDBRANCH  28  29
ENDBRANCH  27  28
ENDBRANCH  26  27
ENDBRANCH  25  26
ENDBRANCH  24  25
ENDBRANCH  23  24
ENDBRANCH  22  23
ENDBRANCH  20  22
ENDBRANCH  19  20
ENDBRANCH  18  19
BRANCH  18  35
HETATM   35  C   UNL     1      -8.245  12.350  67.470  1.00  0.00    -0.173 C  
BRANCH  35  36
HETATM   36  O   UNL     1      -8.198  13.383  66.476  1.00  0.00     0.216 OA 
BRANCH  36  37
HETATM   37  P   UNL     1      -7.635  14.888  67.119  1.00  0.00     0.145 P  
HETATM   38  O   UNL     1      -8.495  15.693  66.135  1.00  0.00    -0.256 OA 
HETATM   39  O   UNL     1      -8.124  14.540  68.525  1.00  0.00    -0.136 OA 
BRANCH  37  40
HETATM   40  O   UNL     1      -7.072  16.392  67.762  1.00  0.00    -0.121 OA 
BRANCH  40  41
HETATM   41  C   UNL     1      -7.956  17.442  67.417  1.00  0.00    -0.198 C  
BRANCH  41  42
HETATM   42  C   UNL     1      -8.681  17.926  68.661  1.00  0.00    -0.264 C  
BRANCH  42  43
HETATM   43  N   UNL     1      -8.794  19.464  68.798  1.00  0.00    -0.368 N  
HETATM   44  C   UNL     1      -7.954  19.886  69.983  1.00  0.00     0.820 C  
HETATM   45  C   UNL     1     -10.252  19.881  69.045  1.00  0.00    -0.242 C  
HETATM   46  C   UNL     1      -8.312  20.159  67.533  1.00  0.00    -0.332 C  
ENDBRANCH  42  43
ENDBRANCH  41  42
ENDBRANCH  40  41
ENDBRANCH  37  40
ENDBRANCH  36  37
ENDBRANCH  35  36
ENDBRANCH  18  35
ENDBRANCH  17  18
ENDBRANCH  16  17
ENDBRANCH  14  16
ENDBRANCH  13  14
ENDBRANCH  12  13
ENDBRANCH  11  12
ENDBRANCH  10  11
ENDBRANCH   9  10
ENDBRANCH   8   9
ENDBRANCH   7   8
ENDBRANCH   6   7
ENDBRANCH   5   6
ENDBRANCH   4   5
ENDBRANCH   3   4
ENDBRANCH   2   3
TORSDOF 36
ENDMDL
MODEL       72
REMARK 921   NORMALIZED FREE ENERGY PREDICTED BY IDOCK:   -1.24 KCAL/MOL
REMARK 922        TOTAL FREE ENERGY PREDICTED BY IDOCK:   -9.33 KCAL/MOL
REMARK 923 INTER-LIGAND FREE ENERGY PREDICTED BY IDOCK:   -9.26 KCAL/MOL
REMARK 924 INTRA-LIGAND FREE ENERGY PREDICTED BY IDOCK:   -0.07 KCAL/MOL
REMARK 927      BINDING AFFINITY PREDICTED BY RF-SCORE:    0.00 PKD
ROOT
HETATM    1  C   UNL     1      -9.623   4.619  70.454  1.00  0.00    -0.271 C  
HETATM    2  C   UNL     1     -10.822   5.545  70.573  1.00  0.00    -0.266 C  
ENDROOT
BRANCH   2   3
HETATM    3  C   UNL     1     -10.618   6.822  69.759  1.00  0.00    -0.263 C  
BRANCH   3   4
HETATM    4  C   UNL     1      -9.457   6.676  68.778  1.00  0.00    -0.129 C  
BRANCH   4   5
HETATM    5  C   UNL     1      -8.505   7.868  68.876  1.00  0.00    -0.128 C  
BRANCH   5   6
HETATM    6  C   UNL     1      -7.346   7.575  69.826  1.00  0.00    -0.082 C  
BRANCH   6   7
HETATM    7  C   UNL     1      -6.016   8.026  69.222  1.00  0.00    -0.034 C  
BRANCH   7   8
HETATM    8  C   UNL     1      -6.161   8.307  67.726  1.00  0.00    -0.048 C  
BRANCH   8   9
HETATM    9  C   UNL     1      -6.194   7.009  66.921  1.00  0.00    -0.041 C  
BRANCH   9  10
HETATM   10  C   UNL     1      -6.229   7.301  65.423  1.00  0.00    -0.038 C  
BRANCH  10  11
HETATM   11  C   UNL     1      -7.310   8.326  65.081  1.00  0.00    -0.081 C  
BRANCH  11  12
HETATM   12  C   UNL     1      -6.884   9.733  65.509  1.00  0.00    -0.095 C  
BRANCH  12  13
HETATM   13  C   UNL     1      -8.040  10.730  65.482  1.00  0.00    -0.084 C  
BRANCH  13  14
HETATM   14  C   UNL     1      -9.368  10.065  65.732  1.00  0.00    -0.189 C  
HETATM   15  O   UNL     1     -10.047   9.538  64.860  1.00  0.00     0.055 OA 
BRANCH  14  16
HETATM   16  O   UNL     1      -9.667  10.099  67.057  1.00  0.00    -0.169 OA 
BRANCH  16  17
HETATM   17  C   UNL     1     -10.821  10.878  67.404  1.00  0.00    -0.279 C  
BRANCH  17  18
HETATM   18  C   UNL     1     -10.521  12.375  67.332  1.00  0.00    -0.215 C  
BRANCH  18  19
HETATM   19  O   UNL     1     -10.604  12.825  65.963  1.00  0.00    -0.262 OA 
BRANCH  19  20
HETATM   20  C   UNL     1     -10.677  14.169  65.798  1.00  0.00    -0.299 C  
HETATM   21  O   UNL     1     -10.229  14.796  64.849  1.00  0.00    -0.388 OA 
BRANCH  20  22
HETATM   22  C   UNL     1     -11.415  14.784  66.963  1.00  0.00    -0.362 C  
BRANCH  22  23
HETATM   23  C   UNL     1     -10.621  15.969  67.507  1.00  0.00    -0.313 C  
BRANCH  23  24
HETATM   24  C   UNL     1     -11.129  16.423  68.873  1.00  0.00    -0.328 C  
BRANCH  24  25
HETATM   25  C   UNL     1     -12.377  15.633  69.269  1.00  0.00    -0.063 C  
BRANCH  25  26
HETATM   26  C   UNL     1     -12.212  14.976  70.637  1.00  0.00    -0.381 C  
BRANCH  26  27
HETATM   27  C   UNL     1     -12.911  13.618  70.682  1.00  0.00    -0.224 C  
BRANCH  27  28
HETATM   28  C   UNL     1     -11.956  12.497  70.276  1.00  0.00    -0.364 C  
BRANCH  28  29
HETATM   29  C   UNL     1     -12.479  11.133  70.725  1.00  0.00    -0.479 C  
BRANCH  29  30
HETATM   30  C   UNL     1     -11.341  10.117  70.823  1.00  0.00    -0.436 C  
BRANCH  30  31
HETATM   31  C   UNL     1     -11.719   8.943  71.724  1.00  0.00    -0.432 C  
BRANCH  31  32
HETATM   32  C   UNL     1     -13.103   9.149  72.340  1.00  0.00    -0.493 C  
BRANCH  32  33
HETATM   33  C   UNL     1     -13.733   7.819  72.750  1.00  0.00     0.598 C  
HETATM   34  C   UNL     1     -14.382   7.128  71.561  1.00  0.00    -0.503 C  
ENDBRANCH  32  33
ENDBRANCH  31  32
ENDBRANCH  30  31
ENDBRANCH  29  30
ENDBRANCH  28  29
ENDBRANCH  27  28
ENDBRANCH  26  27
ENDBRANCH  25  26
ENDBRANCH  24  25
ENDBRANCH  23  24
ENDBRANCH  22  23
ENDBRANCH  20  22
ENDBRANCH  19  20
ENDBRANCH  18  19
BRANCH  18  35
HETATM   35  C   UNL     1      -9.091  12.620  67.786  1.00  0.00    -0.192 C  
BRANCH  35  36
HETATM   36  O   UNL     1      -8.537  13.753  67.102  1.00  0.00    -0.206 OA 
BRANCH  36  37
HETATM   37  P   UNL     1      -7.148  14.393  67.911  1.00  0.00    -0.187 P  
HETATM   38  O   UNL     1      -6.984  15.506  66.867  1.00  0.00    -0.223 OA 
HETATM   39  O   UNL     1      -7.928  14.609  69.208  1.00  0.00    -0.135 OA 
BRANCH  37  40
HETATM   40  O   UNL     1      -5.759  15.033  68.721  1.00  0.00    -0.083 OA 
BRANCH  40  41
HETATM   41  C   UNL     1      -5.512  16.364  68.308  1.00  0.00    -0.103 C  
BRANCH  41  42
HETATM   42  C   UNL     1      -5.716  17.306  69.481  1.00  0.00    -0.215 C  
BRANCH  42  43
HETATM   43  N   UNL     1      -6.407  18.647  69.133  1.00  0.00    -0.252 N  
HETATM   44  C   UNL     1      -6.402  19.508  70.378  1.00  0.00    -0.082 C  
HETATM   45  C   UNL     1      -7.861  18.411  68.696  1.00  0.00    -0.299 C  
HETATM   46  C   UNL     1      -5.682  19.354  67.998  1.00  0.00    -0.199 C  
ENDBRANCH  42  43
ENDBRANCH  41  42
ENDBRANCH  40  41
ENDBRANCH  37  40
ENDBRANCH  36  37
ENDBRANCH  35  36
ENDBRANCH  18  35
ENDBRANCH  17  18
ENDBRANCH  16  17
ENDBRANCH  14  16
ENDBRANCH  13  14
ENDBRANCH  12  13
ENDBRANCH  11  12
ENDBRANCH  10  11
ENDBRANCH   9  10
ENDBRANCH   8   9
ENDBRANCH   7   8
ENDBRANCH   6   7
ENDBRANCH   5   6
ENDBRANCH   4   5
ENDBRANCH   3   4
ENDBRANCH   2   3
TORSDOF 36
ENDMDL
MODEL       73
REMARK 921   NORMALIZED FREE ENERGY PREDICTED BY IDOCK:   -1.21 KCAL/MOL
REMARK 922        TOTAL FREE ENERGY PREDICTED BY IDOCK:   -9.24 KCAL/MOL
REMARK 923 INTER-LIGAND FREE ENERGY PREDICTED BY IDOCK:   -8.50 KCAL/MOL
REMARK 924 INTRA-LIGAND FREE ENERGY PREDICTED BY IDOCK:   -0.74 KCAL/MOL
REMARK 927      BINDING AFFINITY PREDICTED BY RF-SCORE:    0.00 PKD
ROOT
HETATM    1  C   UNL     1     -11.866   5.833  71.394  1.00  0.00     0.269 C  
HETATM    2  C   UNL     1     -12.263   7.212  71.891  1.00  0.00    -0.358 C  
ENDROOT
BRANCH   2   3
HETATM    3  C   UNL     1     -11.325   8.288  71.348  1.00  0.00    -0.309 C  
BRANCH   3   4
HETATM    4  C   UNL     1      -9.864   7.948  71.635  1.00  0.00    -0.212 C  
BRANCH   4   5
HETATM    5  C   UNL     1      -9.598   7.904  73.139  1.00  0.00    -0.352 C  
BRANCH   5   6
HETATM    6  C   UNL     1      -9.284   6.485  73.605  1.00  0.00    -0.150 C  
BRANCH   6   7
HETATM    7  C   UNL     1      -7.776   6.276  73.746  1.00  0.00    -0.093 C  
BRANCH   7   8
HETATM    8  C   UNL     1      -7.289   5.156  72.826  1.00  0.00    -0.094 C  
BRANCH   8   9
HETATM    9  C   UNL     1      -8.279   4.906  71.689  1.00  0.00    -0.114 C  
BRANCH   9  10
HETATM   10  C   UNL     1      -7.572   4.298  70.480  1.00  0.00    -0.052 C  
BRANCH  10  11
HETATM   11  C   UNL     1      -6.997   5.380  69.568  1.00  0.00    -0.062 C  
BRANCH  11  12
HETATM   12  C   UNL     1      -7.620   5.305  68.171  1.00  0.00    -0.080 C  
BRANCH  12  13
HETATM   13  C   UNL     1      -8.708   6.354  67.955  1.00  0.00    -0.115 C  
BRANCH  13  14
HETATM   14  C   UNL     1      -8.836   6.748  66.507  1.00  0.00    -0.143 C  
HETATM   15  O   UNL     1      -8.977   5.952  65.588  1.00  0.00    -0.152 OA 
BRANCH  14  16
HETATM   16  O   UNL     1      -8.819   8.102  66.387  1.00  0.00    -0.138 OA 
BRANCH  16  17
HETATM   17  C   UNL     1      -7.876   8.779  67.231  1.00  0.00    -0.097 C  
BRANCH  17  18
HETATM   18  C   UNL     1      -8.584   9.556  68.341  1.00  0.00    -0.120 C  
BRANCH  18  19
HETATM   19  O   UNL     1      -9.878  10.000  67.878  1.00  0.00    -0.142 OA 
BRANCH  19  20
HETATM   20  C   UNL     1     -10.360  11.112  68.487  1.00  0.00    -0.193 C  
HETATM   21  O   UNL     1     -10.667  11.200  69.667  1.00  0.00    -0.198 OA 
BRANCH  20  22
HETATM   22  C   UNL     1     -10.449  12.240  67.489  1.00  0.00    -0.230 C  
BRANCH  22  23
HETATM   23  C   UNL     1     -11.351  11.831  66.328  1.00  0.00    -0.350 C  
BRANCH  23  24
HETATM   24  C   UNL     1     -12.478  12.834  66.095  1.00  0.00     0.010 C  
BRANCH  24  25
HETATM   25  C   UNL     1     -12.882  12.852  64.621  1.00  0.00    -0.323 C  
BRANCH  25  26
HETATM   26  C   UNL     1     -11.664  12.960  63.707  1.00  0.00    -0.557 C  
BRANCH  26  27
HETATM   27  C   UNL     1     -10.457  13.512  64.465  1.00  0.00    -0.426 C  
BRANCH  27  28
HETATM   28  C   UNL     1     -10.556  15.027  64.625  1.00  0.00    -0.185 C  
BRANCH  28  29
HETATM   29  C   UNL     1      -9.492  15.555  65.586  1.00  0.00    -0.271 C  
BRANCH  29  30
HETATM   30  C   UNL     1      -9.694  17.045  65.859  1.00  0.00    -0.170 C  
BRANCH  30  31
HETATM   31  C   UNL     1      -9.813  17.325  67.356  1.00  0.00    -0.272 C  
BRANCH  31  32
HETATM   32  C   UNL     1     -10.661  18.571  67.614  1.00  0.00    -0.450 C  
BRANCH  32  33
HETATM   33  C   UNL     1      -9.785  19.788  67.906  1.00  0.00    -0.503 C  
HETATM   34  C   UNL     1      -9.078  20.272  66.650  1.00  0.00    -0.395 C  
ENDBRANCH  32  33
ENDBRANCH  31  32
ENDBRANCH  30  31
ENDBRANCH  29  30
ENDBRANCH  28  29
ENDBRANCH  27  28
ENDBRANCH  26  27
ENDBRANCH  25  26
ENDBRANCH  24  25
ENDBRANCH  23  24
ENDBRANCH  22  23
ENDBRANCH  20  22
ENDBRANCH  19  20
ENDBRANCH  18  19
BRANCH  18  35
HETATM   35  C   UNL     1      -7.784  10.807  68.662  1.00  0.00    -0.114 C  
BRANCH  35  36
HETATM   36  O   UNL     1      -7.352  11.449  67.454  1.00  0.00    -0.104 OA 
BRANCH  36  37
HETATM   37  P   UNL     1      -6.460  12.899  67.763  1.00  0.00    -0.162 P  
HETATM   38  O   UNL     1      -5.286  12.428  66.894  1.00  0.00    -0.329 OA 
HETATM   39  O   UNL     1      -7.578  13.778  67.205  1.00  0.00    -0.155 OA 
BRANCH  37  40
HETATM   40  O   UNL     1      -5.568  14.349  68.073  1.00  0.00    -0.120 OA 
BRANCH  40  41
HETATM   41  C   UNL     1      -6.389  15.487  67.886  1.00  0.00    -0.152 C  
BRANCH  41  42
HETATM   42  C   UNL     1      -5.568  16.747  68.100  1.00  0.00    -0.116 C  
BRANCH  42  43
HETATM   43  N   UNL     1      -6.081  17.680  69.223  1.00  0.00    -0.222 N  
HETATM   44  C   UNL     1      -5.173  17.505  70.422  1.00  0.00    -0.252 C  
HETATM   45  C   UNL     1      -7.516  17.308  69.626  1.00  0.00     0.483 C  
HETATM   46  C   UNL     1      -6.080  19.131  68.767  1.00  0.00    -0.229 C  
ENDBRANCH  42  43
ENDBRANCH  41  42
ENDBRANCH  40  41
ENDBRANCH  37  40
ENDBRANCH  36  37
ENDBRANCH  35  36
ENDBRANCH  18  35
ENDBRANCH  17  18
ENDBRANCH  16  17
ENDBRANCH  14  16
ENDBRANCH  13  14
ENDBRANCH  12  13
ENDBRANCH  11  12
ENDBRANCH  10  11
ENDBRANCH   9  10
ENDBRANCH   8   9
ENDBRANCH   7   8
ENDBRANCH   6   7
ENDBRANCH   5   6
ENDBRANCH   4   5
ENDBRANCH   3   4
ENDBRANCH   2   3
TORSDOF 36
ENDMDL
MODEL       74
REMARK 921   NORMALIZED FREE ENERGY PREDICTED BY IDOCK:   -1.12 KCAL/MOL
REMARK 922        TOTAL FREE ENERGY PREDICTED BY IDOCK:   -8.97 KCAL/MOL
REMARK 923 INTER-LIGAND FREE ENERGY PREDICTED BY IDOCK:   -7.12 KCAL/MOL
REMARK 924 INTRA-LIGAND FREE ENERGY PREDICTED BY IDOCK:   -1.85 KCAL/MOL
REMARK 927      BINDING AFFINITY PREDICTED BY RF-SCORE:    0.00 PKD
ROOT
HETATM    1  C   UNL     1     -10.763  15.231  64.689  1.00  0.00    -0.226 C  
HETATM    2  C   UNL     1     -12.118  15.069  64.021  1.00  0.00    -0.119 C  
ENDROOT
BRANCH   2   3
HETATM    3  C   UNL     1     -13.067  14.242  64.887  1.00  0.00     0.242 C  
BRANCH   3   4
HETATM    4  C   UNL     1     -12.636  12.778  64.944  1.00  0.00    -0.541 C  
BRANCH   4   5
HETATM    5  C   UNL     1     -11.467  12.515  63.995  1.00  0.00    -0.476 C  
BRANCH   5   6
HETATM    6  C   UNL     1     -10.676  11.280  64.419  1.00  0.00    -0.407 C  
BRANCH   6   7
HETATM    7  C   UNL     1     -10.355  11.322  65.913  1.00  0.00    -0.304 C  
BRANCH   7   8
HETATM    8  C   UNL     1      -9.889  12.716  66.334  1.00  0.00    -0.263 C  
BRANCH   8   9
HETATM    9  C   UNL     1     -10.682  13.224  67.537  1.00  0.00    -0.259 C  
BRANCH   9  10
HETATM   10  C   UNL     1      -9.788  13.331  68.770  1.00  0.00    -0.012 C  
BRANCH  10  11
HETATM   11  C   UNL     1      -9.083  14.685  68.831  1.00  0.00    -0.148 C  
BRANCH  11  12
HETATM   12  C   UNL     1      -7.571  14.508  68.993  1.00  0.00    -0.124 C  
BRANCH  12  13
HETATM   13  C   UNL     1      -7.025  13.342  68.173  1.00  0.00    -0.116 C  
BRANCH  13  14
HETATM   14  C   UNL     1      -6.034  12.516  68.952  1.00  0.00    -0.070 C  
HETATM   15  O   UNL     1      -5.181  12.985  69.693  1.00  0.00    -0.079 OA 
BRANCH  14  16
HETATM   16  O   UNL     1      -6.262  11.192  68.743  1.00  0.00    -0.043 OA 
BRANCH  16  17
HETATM   17  C   UNL     1      -7.549  10.718  69.166  1.00  0.00    -0.133 C  
BRANCH  17  18
HETATM   18  C   UNL     1      -7.693   9.215  68.927  1.00  0.00    -0.083 C  
BRANCH  18  19
HETATM   19  O   UNL     1      -6.823   8.492  69.824  1.00  0.00    -0.042 OA 
BRANCH  19  20
HETATM   20  C   UNL     1      -7.057   8.692  71.144  1.00  0.00    -0.081 C  
HETATM   21  O   UNL     1      -6.479   9.502  71.855  1.00  0.00    -0.298 OA 
BRANCH  20  22
HETATM   22  C   UNL     1      -8.159   7.772  71.610  1.00  0.00    -0.114 C  
BRANCH  22  23
HETATM   23  C   UNL     1      -8.780   8.321  72.892  1.00  0.00    -0.291 C  
BRANCH  23  24
HETATM   24  C   UNL     1      -8.841   7.269  73.997  1.00  0.00    -0.257 C  
BRANCH  24  25
HETATM   25  C   UNL     1     -10.274   6.769  74.181  1.00  0.00    -0.370 C  
BRANCH  25  26
HETATM   26  C   UNL     1     -10.578   5.591  73.259  1.00  0.00    -0.285 C  
BRANCH  26  27
HETATM   27  C   UNL     1      -9.836   4.334  73.712  1.00  0.00    -0.157 C  
BRANCH  27  28
HETATM   28  C   UNL     1      -9.537   3.417  72.527  1.00  0.00    -0.191 C  
BRANCH  28  29
HETATM   29  C   UNL     1      -8.966   4.203  71.347  1.00  0.00    -0.165 C  
BRANCH  29  30
HETATM   30  C   UNL     1      -9.891   4.115  70.134  1.00  0.00    -0.242 C  
BRANCH  30  31
HETATM   31  C   UNL     1      -9.136   3.644  68.892  1.00  0.00    -0.201 C  
BRANCH  31  32
HETATM   32  C   UNL     1      -9.434   4.548  67.696  1.00  0.00    -0.196 C  
BRANCH  32  33
HETATM   33  C   UNL     1      -9.819   5.956  68.146  1.00  0.00    -0.155 C  
HETATM   34  C   UNL     1     -11.206   6.334  67.650  1.00  0.00    -0.225 C  
ENDBRANCH  32  33
ENDBRANCH  31  32
ENDBRANCH  30  31
ENDBRANCH  29  30
ENDBRANCH  28  29
ENDBRANCH  27  28
ENDBRANCH  26  27
ENDBRANCH  25  26
ENDBRANCH  24  25
ENDBRANCH  23  24
ENDBRANCH  22  23
ENDBRANCH  20  22
ENDBRANCH  19  20
ENDBRANCH  18  19
BRANCH  18  35
HETATM   35  C   UNL     1      -7.232   8.889  67.516  1.00  0.00    -0.080 C  
BRANCH  35  36
HETATM   36  O   UNL     1      -6.253   7.841  67.539  1.00  0.00    -0.047 OA 
BRANCH  36  37
HETATM   37  P   UNL     1      -6.285   6.881  66.100  1.00  0.00    -0.044 P  
HETATM   38  O   UNL     1      -5.721   5.658  66.837  1.00  0.00    -0.016 OA 
HETATM   39  O   UNL     1      -7.787   7.095  65.917  1.00  0.00    -0.096 OA 
BRANCH  37  40
HETATM   40  O   UNL     1      -6.317   5.921  64.660  1.00  0.00    -0.032 OA 
BRANCH  40  41
HETATM   41  C   UNL     1      -7.559   6.061  63.997  1.00  0.00    -0.087 C  
BRANCH  41  42
HETATM   42  C   UNL     1      -7.617   5.104  62.819  1.00  0.00    -0.059 C  
BRANCH  42  43
HETATM   43  N   UNL     1      -7.574   3.602  63.191  1.00  0.00    -0.054 N  
HETATM   44  C   UNL     1      -8.702   2.910  62.455  1.00  0.00    -0.078 C  
HETATM   45  C   UNL     1      -7.774   3.412  64.702  1.00  0.00    -0.078 C  
HETATM   46  C   UNL     1      -6.237   2.985  62.810  1.00  0.00    -0.014 C  
ENDBRANCH  42  43
ENDBRANCH  41  42
ENDBRANCH  40  41
ENDBRANCH  37  40
ENDBRANCH  36  37
ENDBRANCH  35  36
ENDBRANCH  18  35
ENDBRANCH  17  18
ENDBRANCH  16  17
ENDBRANCH  14  16
ENDBRANCH  13  14
ENDBRANCH  12  13
ENDBRANCH  11  12
ENDBRANCH  10  11
ENDBRANCH   9  10
ENDBRANCH   8   9
ENDBRANCH   7   8
ENDBRANCH   6   7
ENDBRANCH   5   6
ENDBRANCH   4   5
ENDBRANCH   3   4
ENDBRANCH   2   3
TORSDOF 36
ENDMDL
MODEL       75
REMARK 921   NORMALIZED FREE ENERGY PREDICTED BY IDOCK:   -0.72 KCAL/MOL
REMARK 922        TOTAL FREE ENERGY PREDICTED BY IDOCK:   -7.74 KCAL/MOL
REMARK 923 INTER-LIGAND FREE ENERGY PREDICTED BY IDOCK:   -7.19 KCAL/MOL
REMARK 924 INTRA-LIGAND FREE ENERGY PREDICTED BY IDOCK:   -0.55 KCAL/MOL
REMARK 927      BINDING AFFINITY PREDICTED BY RF-SCORE:    0.00 PKD
ROOT
HETATM    1  C   UNL     1     -11.333   5.538  70.976  1.00  0.00     0.128 C  
HETATM    2  C   UNL     1     -12.064   6.840  71.257  1.00  0.00    -0.421 C  
ENDROOT
BRANCH   2   3
HETATM    3  C   UNL     1     -11.283   8.040  70.724  1.00  0.00    -0.275 C  
BRANCH   3   4
HETATM    4  C   UNL     1      -9.984   8.247  71.501  1.00  0.00    -0.260 C  
BRANCH   4   5
HETATM    5  C   UNL     1     -10.229   8.170  73.008  1.00  0.00    -0.273 C  
BRANCH   5   6
HETATM    6  C   UNL     1      -9.807   6.814  73.569  1.00  0.00    -0.249 C  
BRANCH   6   7
HETATM    7  C   UNL     1      -8.658   6.968  74.566  1.00  0.00    -0.224 C  
BRANCH   7   8
HETATM    8  C   UNL     1      -7.305   6.904  73.857  1.00  0.00    -0.095 C  
BRANCH   8   9
HETATM    9  C   UNL     1      -7.425   7.343  72.398  1.00  0.00    -0.084 C  
BRANCH   9  10
HETATM   10  C   UNL     1      -6.049   7.648  71.810  1.00  0.00    -0.035 C  
BRANCH  10  11
HETATM   11  C   UNL     1      -5.840   9.151  71.633  1.00  0.00    -0.073 C  
BRANCH  11  12
HETATM   12  C   UNL     1      -5.322   9.469  70.228  1.00  0.00    -0.028 C  
BRANCH  12  13
HETATM   13  C   UNL     1      -6.444   9.821  69.254  1.00  0.00    -0.048 C  
BRANCH  13  14
HETATM   14  C   UNL     1      -5.933  10.033  67.853  1.00  0.00    -0.038 C  
HETATM   15  O   UNL     1      -5.283   9.207  67.225  1.00  0.00    -0.036 OA 
BRANCH  14  16
HETATM   16  O   UNL     1      -6.337  11.244  67.386  1.00  0.00    -0.063 OA 
BRANCH  16  17
HETATM   17  C   UNL     1      -6.248  12.324  68.327  1.00  0.00    -0.054 C  
BRANCH  17  18
HETATM   18  C   UNL     1      -7.593  12.578  69.008  1.00  0.00     0.136 C  
BRANCH  18  19
HETATM   19  O   UNL     1      -8.651  11.953  68.249  1.00  0.00    -0.154 OA 
BRANCH  19  20
HETATM   20  C   UNL     1      -9.632  12.788  67.827  1.00  0.00    -0.204 C  
HETATM   21  O   UNL     1     -10.338  13.479  68.548  1.00  0.00    -0.240 OA 
BRANCH  20  22
HETATM   22  C   UNL     1      -9.717  12.752  66.320  1.00  0.00    -0.262 C  
BRANCH  22  23
HETATM   23  C   UNL     1      -9.494  11.325  65.827  1.00  0.00    -0.252 C  
BRANCH  23  24
HETATM   24  C   UNL     1     -10.179  11.067  64.487  1.00  0.00    -0.406 C  
BRANCH  24  25
HETATM   25  C   UNL     1      -9.539  11.914  63.387  1.00  0.00    -0.197 C  
BRANCH  25  26
HETATM   26  C   UNL     1      -8.769  11.051  62.391  1.00  0.00    -0.356 C  
BRANCH  26  27
HETATM   27  C   UNL     1      -8.892   9.568  62.740  1.00  0.00    -0.244 C  
BRANCH  27  28
HETATM   28  C   UNL     1      -7.529   8.970  63.082  1.00  0.00    -0.098 C  
BRANCH  28  29
HETATM   29  C   UNL     1      -7.671   7.733  63.967  1.00  0.00    -0.126 C  
BRANCH  29  30
HETATM   30  C   UNL     1      -7.872   8.128  65.429  1.00  0.00    -0.115 C  
BRANCH  30  31
HETATM   31  C   UNL     1      -9.147   7.510  66.002  1.00  0.00    -0.139 C  
BRANCH  31  32
HETATM   32  C   UNL     1      -9.158   7.596  67.529  1.00  0.00    -0.131 C  
BRANCH  32  33
HETATM   33  C   UNL     1      -8.667   6.295  68.161  1.00  0.00    -0.115 C  
HETATM   34  C   UNL     1      -7.242   6.434  68.673  1.00  0.00    -0.085 C  
ENDBRANCH  32  33
ENDBRANCH  31  32
ENDBRANCH  30  31
ENDBRANCH  29  30
ENDBRANCH  28  29
ENDBRANCH  27  28
ENDBRANCH  26  27
ENDBRANCH  25  26
ENDBRANCH  24  25
ENDBRANCH  23  24
ENDBRANCH  22  23
ENDBRANCH  20  22
ENDBRANCH  19  20
ENDBRANCH  18  19
BRANCH  18  35
HETATM   35  C   UNL     1      -7.880  14.071  69.005  1.00  0.00     0.023 C  
BRANCH  35  36
HETATM   36  O   UNL     1      -7.012  14.744  68.082  1.00  0.00    -0.102 OA 
BRANCH  36  37
HETATM   37  P   UNL     1      -7.321  16.445  68.013  1.00  0.00    -0.147 P  
HETATM   38  O   UNL     1      -8.545  16.316  68.931  1.00  0.00    -0.236 OA 
HETATM   39  O   UNL     1      -5.933  16.782  68.557  1.00  0.00    -0.127 OA 
BRANCH  37  40
HETATM   40  O   UNL     1      -7.630  18.147  67.943  1.00  0.00    -0.224 OA 
BRANCH  40  41
HETATM   41  C   UNL     1      -6.579  18.868  68.558  1.00  0.00    -0.246 C  
BRANCH  41  42
HETATM   42  C   UNL     1      -6.306  20.138  67.771  1.00  0.00    -0.228 C  
BRANCH  42  43
HETATM   43  N   UNL     1      -6.538  20.026  66.244  1.00  0.00    -0.207 N  
HETATM   44  C   UNL     1      -6.111  21.334  65.613  1.00  0.00    -0.117 C  
HETATM   45  C   UNL     1      -8.024  19.785  65.937  1.00  0.00    -0.280 C  
HETATM   46  C   UNL     1      -5.741  18.871  65.657  1.00  0.00    -0.174 C  
ENDBRANCH  42  43
ENDBRANCH  41  42
ENDBRANCH  40  41
ENDBRANCH  37  40
ENDBRANCH  36  37
ENDBRANCH  35  36
ENDBRANCH  18  35
ENDBRANCH  17  18
ENDBRANCH  16  17
ENDBRANCH  14  16
ENDBRANCH  13  14
ENDBRANCH  12  13
ENDBRANCH  11  12
ENDBRANCH  10  11
ENDBRANCH   9  10
ENDBRANCH   8   9
ENDBRANCH   7   8
ENDBRANCH   6   7
ENDBRANCH   5   6
ENDBRANCH   4   5
ENDBRANCH   3   4
ENDBRANCH   2   3
TORSDOF 36
ENDMDL
MODEL       76
REMARK 921   NORMALIZED FREE ENERGY PREDICTED BY IDOCK:   -0.18 KCAL/MOL
REMARK 922        TOTAL FREE ENERGY PREDICTED BY IDOCK:   -6.04 KCAL/MOL
REMARK 923 INTER-LIGAND FREE ENERGY PREDICTED BY IDOCK:   -6.81 KCAL/MOL
REMARK 924 INTRA-LIGAND FREE ENERGY PREDICTED BY IDOCK:    0.77 KCAL/MOL
REMARK 927      BINDING AFFINITY PREDICTED BY RF-SCORE:    0.00 PKD
ROOT
HETATM    1  C   UNL     1     -10.582   5.689  69.435  1.00  0.00    -0.374 C  
HETATM    2  C   UNL     1     -10.433   6.373  70.784  1.00  0.00    -0.270 C  
ENDROOT
BRANCH   2   3
HETATM    3  C   UNL     1     -11.497   5.893  71.769  1.00  0.00    -0.262 C  
BRANCH   3   4
HETATM    4  C   UNL     1     -11.256   6.459  73.167  1.00  0.00    -0.114 C  
BRANCH   4   5
HETATM    5  C   UNL     1      -9.913   5.987  73.724  1.00  0.00    -0.212 C  
BRANCH   5   6
HETATM    6  C   UNL     1      -9.710   4.492  73.489  1.00  0.00    -0.147 C  
BRANCH   6   7
HETATM    7  C   UNL     1      -8.599   3.943  74.383  1.00  0.00    -0.095 C  
BRANCH   7   8
HETATM    8  C   UNL     1      -7.220   4.283  73.815  1.00  0.00    -0.067 C  
BRANCH   8   9
HETATM    9  C   UNL     1      -6.834   5.727  74.131  1.00  0.00    -0.081 C  
BRANCH   9  10
HETATM   10  C   UNL     1      -6.077   6.353  72.962  1.00  0.00    -0.054 C  
BRANCH  10  11
HETATM   11  C   UNL     1      -7.035   6.842  71.877  1.00  0.00    -0.069 C  
BRANCH  11  12
HETATM   12  C   UNL     1      -6.351   7.865  70.965  1.00  0.00    -0.037 C  
BRANCH  12  13
HETATM   13  C   UNL     1      -7.151   8.147  69.695  1.00  0.00    -0.057 C  
BRANCH  13  14
HETATM   14  C   UNL     1      -7.784   9.514  69.717  1.00  0.00    -0.123 C  
HETATM   15  O   UNL     1      -8.674   9.847  70.489  1.00  0.00    -0.100 OA 
BRANCH  14  16
HETATM   16  O   UNL     1      -7.192  10.319  68.795  1.00  0.00    -0.076 OA 
BRANCH  16  17
HETATM   17  C   UNL     1      -6.577   9.637  67.692  1.00  0.00    -0.066 C  
BRANCH  17  18
HETATM   18  C   UNL     1      -6.941  10.294  66.361  1.00  0.00    -0.111 C  
BRANCH  18  19
HETATM   19  O   UNL     1      -7.821  11.416  66.594  1.00  0.00    -0.153 OA 
BRANCH  19  20
HETATM   20  C   UNL     1      -9.146  11.132  66.542  1.00  0.00    -0.182 C  
HETATM   21  O   UNL     1      -9.733  10.342  67.267  1.00  0.00    -0.160 OA 
BRANCH  20  22
HETATM   22  C   UNL     1      -9.800  11.955  65.459  1.00  0.00    -0.257 C  
BRANCH  22  23
HETATM   23  C   UNL     1     -11.067  12.608  66.004  1.00  0.00    -0.321 C  
BRANCH  23  24
HETATM   24  C   UNL     1     -11.019  14.130  65.903  1.00  0.00    -0.297 C  
BRANCH  24  25
HETATM   25  C   UNL     1     -12.095  14.759  66.788  1.00  0.00    -0.118 C  
BRANCH  25  26
HETATM   26  C   UNL     1     -11.544  15.131  68.162  1.00  0.00    -0.358 C  
BRANCH  26  27
HETATM   27  C   UNL     1     -10.153  14.535  68.375  1.00  0.00    -0.241 C  
BRANCH  27  28
HETATM   28  C   UNL     1      -9.334  15.388  69.342  1.00  0.00    -0.266 C  
BRANCH  28  29
HETATM   29  C   UNL     1      -9.816  16.838  69.350  1.00  0.00    -0.095 C  
BRANCH  29  30
HETATM   30  C   UNL     1      -9.031  17.679  68.344  1.00  0.00    -0.280 C  
BRANCH  30  31
HETATM   31  C   UNL     1      -7.601  17.926  68.822  1.00  0.00    -0.271 C  
BRANCH  31  32
HETATM   32  C   UNL     1      -6.595  17.648  67.705  1.00  0.00    -0.185 C  
BRANCH  32  33
HETATM   33  C   UNL     1      -7.155  18.051  66.341  1.00  0.00    -0.282 C  
HETATM   34  C   UNL     1      -6.061  18.087  65.285  1.00  0.00    -0.071 C  
ENDBRANCH  32  33
ENDBRANCH  31  32
ENDBRANCH  30  31
ENDBRANCH  29  30
ENDBRANCH  28  29
ENDBRANCH  27  28
ENDBRANCH  26  27
ENDBRANCH  25  26
ENDBRANCH  24  25
ENDBRANCH  23  24
ENDBRANCH  22  23
ENDBRANCH  20  22
ENDBRANCH  19  20
ENDBRANCH  18  19
BRANCH  18  35
HETATM   35  C   UNL     1      -7.716   9.302  65.510  1.00  0.00    -0.095 C  
BRANCH  35  36
HETATM   36  O   UNL     1      -8.379   8.340  66.343  1.00  0.00    -0.109 OA 
BRANCH  36  37
HETATM   37  P   UNL     1      -8.438   6.772  65.614  1.00  0.00    -0.066 P  
HETATM   38  O   UNL     1      -7.224   7.078  64.725  1.00  0.00    -0.064 OA 
HETATM   39  O   UNL     1      -8.296   6.071  66.965  1.00  0.00    -0.106 OA 
BRANCH  37  40
HETATM   40  O   UNL     1      -8.497   5.203  64.885  1.00  0.00    -0.139 OA 
BRANCH  40  41
HETATM   41  C   UNL     1      -9.008   4.250  65.798  1.00  0.00    -0.129 C  
BRANCH  41  42
HETATM   42  C   UNL     1      -7.860   3.607  66.557  1.00  0.00    -0.088 C  
BRANCH  42  43
HETATM   43  N   UNL     1      -6.849   2.829  65.681  1.00  0.00    -0.047 N  
HETATM   44  C   UNL     1      -6.579   3.654  64.441  1.00  0.00    -0.042 C  
HETATM   45  C   UNL     1      -7.429   1.470  65.259  1.00  0.00    -0.057 C  
HETATM   46  C   UNL     1      -5.556   2.574  66.439  1.00  0.00    -0.021 C  
ENDBRANCH  42  43
ENDBRANCH  41  42
ENDBRANCH  40  41
ENDBRANCH  37  40
ENDBRANCH  36  37
ENDBRANCH  35  36
ENDBRANCH  18  35
ENDBRANCH  17  18
ENDBRANCH  16  17
ENDBRANCH  14  16
ENDBRANCH  13  14
ENDBRANCH  12  13
ENDBRANCH  11  12
ENDBRANCH  10  11
ENDBRANCH   9  10
ENDBRANCH   8   9
ENDBRANCH   7   8
ENDBRANCH   6   7
ENDBRANCH   5   6
ENDBRANCH   4   5
ENDBRANCH   3   4
ENDBRANCH   2   3
TORSDOF 36
ENDMDL
MODEL       77
REMARK 921   NORMALIZED FREE ENERGY PREDICTED BY IDOCK:   -0.17 KCAL/MOL
REMARK 922        TOTAL FREE ENERGY PREDICTED BY IDOCK:   -6.03 KCAL/MOL
REMARK 923 INTER-LIGAND FREE ENERGY PREDICTED BY IDOCK:   -8.44 KCAL/MOL
REMARK 924 INTRA-LIGAND FREE ENERGY PREDICTED BY IDOCK:    2.41 KCAL/MOL
REMARK 927      BINDING AFFINITY PREDICTED BY RF-SCORE:    0.00 PKD
ROOT
HETATM    1  C   UNL     1     -13.118  15.510  73.330  1.00  0.00    -0.658 C  
HETATM    2  C   UNL     1     -11.734  15.660  72.721  1.00  0.00    -0.537 C  
ENDROOT
BRANCH   2   3
HETATM    3  C   UNL     1     -11.813  15.879  71.212  1.00  0.00    -0.502 C  
BRANCH   3   4
HETATM    4  C   UNL     1     -10.430  15.811  70.567  1.00  0.00    -0.071 C  
BRANCH   4   5
HETATM    5  C   UNL     1     -10.443  14.899  69.340  1.00  0.00    -0.231 C  
BRANCH   5   6
HETATM    6  C   UNL     1      -9.294  15.230  68.391  1.00  0.00    -0.194 C  
BRANCH   6   7
HETATM    7  C   UNL     1      -8.143  14.238  68.559  1.00  0.00    -0.147 C  
BRANCH   7   8
HETATM    8  C   UNL     1      -7.020  14.839  69.405  1.00  0.00    -0.167 C  
BRANCH   8   9
HETATM    9  C   UNL     1      -5.762  13.974  69.347  1.00  0.00    -0.088 C  
BRANCH   9  10
HETATM   10  C   UNL     1      -6.089  12.519  69.676  1.00  0.00    -0.133 C  
BRANCH  10  11
HETATM   11  C   UNL     1      -5.143  11.559  68.957  1.00  0.00    -0.043 C  
BRANCH  11  12
HETATM   12  C   UNL     1      -5.409  10.111  69.378  1.00  0.00    -0.038 C  
BRANCH  12  13
HETATM   13  C   UNL     1      -5.750   9.209  68.194  1.00  0.00    -0.038 C  
BRANCH  13  14
HETATM   14  C   UNL     1      -7.113   8.582  68.333  1.00  0.00    -0.084 C  
HETATM   15  O   UNL     1      -7.535   8.077  69.366  1.00  0.00    -0.091 OA 
BRANCH  14  16
HETATM   16  O   UNL     1      -7.806   8.704  67.170  1.00  0.00    -0.095 OA 
BRANCH  16  17
HETATM   17  C   UNL     1      -9.224   8.864  67.316  1.00  0.00    -0.138 C  
BRANCH  17  18
HETATM   18  C   UNL     1      -9.858   7.630  67.957  1.00  0.00    -0.161 C  
BRANCH  18  19
HETATM   19  O   UNL     1     -10.163   7.900  69.343  1.00  0.00    -0.196 OA 
BRANCH  19  20
HETATM   20  C   UNL     1     -10.801   9.074  69.576  1.00  0.00    -0.166 C  
HETATM   21  O   UNL     1     -10.966   9.588  70.673  1.00  0.00    -0.255 OA 
BRANCH  20  22
HETATM   22  C   UNL     1     -11.269   9.667  68.269  1.00  0.00    -0.008 C  
BRANCH  22  23
HETATM   23  C   UNL     1     -11.569  11.151  68.456  1.00  0.00    -0.385 C  
BRANCH  23  24
HETATM   24  C   UNL     1     -12.080  11.801  67.173  1.00  0.00     0.292 C  
BRANCH  24  25
HETATM   25  C   UNL     1     -11.153  12.938  66.743  1.00  0.00    -0.315 C  
BRANCH  25  26
HETATM   26  C   UNL     1     -11.782  13.787  65.642  1.00  0.00    -0.360 C  
BRANCH  26  27
HETATM   27  C   UNL     1     -12.668  12.937  64.732  1.00  0.00    -0.442 C  
BRANCH  27  28
HETATM   28  C   UNL     1     -12.006  12.716  63.373  1.00  0.00    -0.613 C  
BRANCH  28  29
HETATM   29  C   UNL     1     -10.518  12.405  63.524  1.00  0.00    -0.430 C  
BRANCH  29  30
HETATM   30  C   UNL     1     -10.293  10.913  63.766  1.00  0.00    -0.384 C  
BRANCH  30  31
HETATM   31  C   UNL     1      -8.805  10.567  63.764  1.00  0.00    -0.208 C  
BRANCH  31  32
HETATM   32  C   UNL     1      -8.582   9.110  63.358  1.00  0.00    -0.178 C  
BRANCH  32  33
HETATM   33  C   UNL     1      -7.319   8.541  64.002  1.00  0.00    -0.104 C  
HETATM   34  C   UNL     1      -6.940   7.204  63.385  1.00  0.00    -0.062 C  
ENDBRANCH  32  33
ENDBRANCH  31  32
ENDBRANCH  30  31
ENDBRANCH  29  30
ENDBRANCH  28  29
ENDBRANCH  27  28
ENDBRANCH  26  27
ENDBRANCH  25  26
ENDBRANCH  24  25
ENDBRANCH  23  24
ENDBRANCH  22  23
ENDBRANCH  20  22
ENDBRANCH  19  20
ENDBRANCH  18  19
BRANCH  18  35
HETATM   35  C   UNL     1      -8.853   6.490  67.946  1.00  0.00    -0.114 C  
BRANCH  35  36
HETATM   36  O   UNL     1      -9.495   5.261  67.581  1.00  0.00    -0.115 OA 
BRANCH  36  37
HETATM   37  P   UNL     1      -9.556   4.136  68.894  1.00  0.00    -0.050 P  
HETATM   38  O   UNL     1      -9.611   2.937  67.938  1.00  0.00    -0.195 OA 
HETATM   39  O   UNL     1      -8.238   4.649  69.474  1.00  0.00    -0.068 OA 
BRANCH  37  40
HETATM   40  O   UNL     1      -9.617   3.012  70.208  1.00  0.00    -0.159 OA 
BRANCH  40  41
HETATM   41  C   UNL     1      -9.736   3.695  71.442  1.00  0.00    -0.170 C  
BRANCH  41  42
HETATM   42  C   UNL     1      -8.383   4.259  71.843  1.00  0.00    -0.101 C  
BRANCH  42  43
HETATM   43  N   UNL     1      -7.740   3.599  73.087  1.00  0.00    -0.065 N  
HETATM   44  C   UNL     1      -6.562   4.452  73.507  1.00  0.00    -0.053 C  
HETATM   45  C   UNL     1      -7.240   2.185  72.753  1.00  0.00    -0.032 C  
HETATM   46  C   UNL     1      -8.745   3.487  74.224  1.00  0.00    -0.087 C  
ENDBRANCH  42  43
ENDBRANCH  41  42
ENDBRANCH  40  41
ENDBRANCH  37  40
ENDBRANCH  36  37
ENDBRANCH  35  36
ENDBRANCH  18  35
ENDBRANCH  17  18
ENDBRANCH  16  17
ENDBRANCH  14  16
ENDBRANCH  13  14
ENDBRANCH  12  13
ENDBRANCH  11  12
ENDBRANCH  10  11
ENDBRANCH   9  10
ENDBRANCH   8   9
ENDBRANCH   7   8
ENDBRANCH   6   7
ENDBRANCH   5   6
ENDBRANCH   4   5
ENDBRANCH   3   4
ENDBRANCH   2   3
TORSDOF 36
ENDMDL
MODEL       78
REMARK 921   NORMALIZED FREE ENERGY PREDICTED BY IDOCK:    0.27 KCAL/MOL
REMARK 922        TOTAL FREE ENERGY PREDICTED BY IDOCK:   -4.67 KCAL/MOL
REMARK 923 INTER-LIGAND FREE ENERGY PREDICTED BY IDOCK:   -3.64 KCAL/MOL
REMARK 924 INTRA-LIGAND FREE ENERGY PREDICTED BY IDOCK:   -1.03 KCAL/MOL
REMARK 927      BINDING AFFINITY PREDICTED BY RF-SCORE:    0.00 PKD
ROOT
HETATM    1  C   UNL     1     -11.655   5.049  70.737  1.00  0.00     2.022 C  
HETATM    2  C   UNL     1     -12.187   6.401  71.180  1.00  0.00    -0.131 C  
ENDROOT
BRANCH   2   3
HETATM    3  C   UNL     1     -11.297   7.538  70.681  1.00  0.00    -0.301 C  
BRANCH   3   4
HETATM    4  C   UNL     1      -9.901   7.462  71.296  1.00  0.00    -0.182 C  
BRANCH   4   5
HETATM    5  C   UNL     1      -9.981   7.252  72.808  1.00  0.00    -0.236 C  
BRANCH   5   6
HETATM    6  C   UNL     1      -9.744   5.790  73.178  1.00  0.00    -0.162 C  
BRANCH   6   7
HETATM    7  C   UNL     1      -8.493   5.640  74.044  1.00  0.00    -0.114 C  
BRANCH   7   8
HETATM    8  C   UNL     1      -7.277   5.274  73.191  1.00  0.00    -0.090 C  
BRANCH   8   9
HETATM    9  C   UNL     1      -7.443   5.765  71.754  1.00  0.00    -0.095 C  
BRANCH   9  10
HETATM   10  C   UNL     1      -6.104   5.751  71.019  1.00  0.00    -0.033 C  
BRANCH  10  11
HETATM   11  C   UNL     1      -5.531   7.160  70.878  1.00  0.00    -0.027 C  
BRANCH  11  12
HETATM   12  C   UNL     1      -5.140   7.448  69.426  1.00  0.00    -0.015 C  
BRANCH  12  13
HETATM   13  C   UNL     1      -6.269   8.098  68.630  1.00  0.00    -0.045 C  
BRANCH  13  14
HETATM   14  C   UNL     1      -5.826   8.511  67.251  1.00  0.00    -0.043 C  
HETATM   15  O   UNL     1      -5.309   7.753  66.439  1.00  0.00    -0.024 OA 
BRANCH  14  16
HETATM   16  O   UNL     1      -6.126   9.819  67.034  1.00  0.00    -0.061 OA 
BRANCH  16  17
HETATM   17  C   UNL     1      -5.822  10.704  68.122  1.00  0.00    -0.042 C  
BRANCH  17  18
HETATM   18  C   UNL     1      -7.063  10.988  68.969  1.00  0.00    -0.106 C  
BRANCH  18  19
HETATM   19  O   UNL     1      -8.254  10.735  68.193  1.00  0.00    -0.111 OA 
BRANCH  19  20
HETATM   20  C   UNL     1      -9.073  11.802  68.026  1.00  0.00    -0.180 C  
HETATM   21  O   UNL     1      -9.570  12.465  68.925  1.00  0.00     0.011 OA 
BRANCH  20  22
HETATM   22  C   UNL     1      -9.271  12.065  66.553  1.00  0.00    -0.216 C  
BRANCH  22  23
HETATM   23  C   UNL     1      -9.308  10.740  65.795  1.00  0.00    -0.235 C  
BRANCH  23  24
HETATM   24  C   UNL     1     -10.117  10.838  64.505  1.00  0.00    -0.415 C  
BRANCH  24  25
HETATM   25  C   UNL     1      -9.452  11.809  63.528  1.00  0.00    -0.150 C  
BRANCH  25  26
HETATM   26  C   UNL     1      -8.816  11.072  62.353  1.00  0.00    -0.358 C  
BRANCH  26  27
HETATM   27  C   UNL     1      -9.021   9.563  62.474  1.00  0.00    -0.268 C  
BRANCH  27  28
HETATM   28  C   UNL     1      -7.684   8.836  62.609  1.00  0.00    -0.121 C  
BRANCH  28  29
HETATM   29  C   UNL     1      -7.880   7.324  62.693  1.00  0.00    -0.133 C  
BRANCH  29  30
HETATM   30  C   UNL     1      -8.131   6.885  64.135  1.00  0.00    -0.026 C  
BRANCH  30  31
HETATM   31  C   UNL     1      -7.983   5.372  64.290  1.00  0.00    -0.118 C  
BRANCH  31  32
HETATM   32  C   UNL     1      -8.505   4.907  65.649  1.00  0.00    -0.124 C  
BRANCH  32  33
HETATM   33  C   UNL     1      -8.442   6.032  66.682  1.00  0.00    -0.112 C  
HETATM   34  C   UNL     1      -8.816   5.529  68.068  1.00  0.00    -0.105 C  
ENDBRANCH  32  33
ENDBRANCH  31  32
ENDBRANCH  30  31
ENDBRANCH  29  30
ENDBRANCH  28  29
ENDBRANCH  27  28
ENDBRANCH  26  27
ENDBRANCH  25  26
ENDBRANCH  24  25
ENDBRANCH  23  24
ENDBRANCH  22  23
ENDBRANCH  20  22
ENDBRANCH  19  20
ENDBRANCH  18  19
BRANCH  18  35
HETATM   35  C   UNL     1      -7.088  12.462  69.338  1.00  0.00     0.153 C  
BRANCH  35  36
HETATM   36  O   UNL     1      -6.499  13.249  68.293  1.00  0.00    -0.079 OA 
BRANCH  36  37
HETATM   37  P   UNL     1      -6.703  14.947  68.556  1.00  0.00    -0.110 P  
HETATM   38  O   UNL     1      -5.194  15.156  68.742  1.00  0.00    -0.090 OA 
HETATM   39  O   UNL     1      -7.386  15.136  67.202  1.00  0.00    -0.199 OA 
BRANCH  37  40
HETATM   40  O   UNL     1      -6.908  16.645  68.818  1.00  0.00    -0.159 OA 
BRANCH  40  41
HETATM   41  C   UNL     1      -7.549  17.246  67.709  1.00  0.00    -0.181 C  
BRANCH  41  42
HETATM   42  C   UNL     1      -8.747  18.048  68.187  1.00  0.00    -0.272 C  
BRANCH  42  43
HETATM   43  N   UNL     1      -9.977  18.015  67.247  1.00  0.00    -0.309 N  
HETATM   44  C   UNL     1      -9.565  18.625  65.924  1.00  0.00     0.107 C  
HETATM   45  C   UNL     1     -11.133  18.836  67.837  1.00  0.00     0.137 C  
HETATM   46  C   UNL     1     -10.466  16.589  67.042  1.00  0.00    -0.289 C  
ENDBRANCH  42  43
ENDBRANCH  41  42
ENDBRANCH  40  41
ENDBRANCH  37  40
ENDBRANCH  36  37
ENDBRANCH  35  36
ENDBRANCH  18  35
ENDBRANCH  17  18
ENDBRANCH  16  17
ENDBRANCH  14  16
ENDBRANCH  13  14
ENDBRANCH  12  13
ENDBRANCH  11  12
ENDBRANCH  10  11
ENDBRANCH   9  10
ENDBRANCH   8   9
ENDBRANCH   7   8
ENDBRANCH   6   7
ENDBRANCH   5   6
ENDBRANCH   4   5
ENDBRANCH   3   4
ENDBRANCH   2   3
TORSDOF 36
ENDMDL
MODEL       79
REMARK 921   NORMALIZED FREE ENERGY PREDICTED BY IDOCK:    0.52 KCAL/MOL
REMARK 922        TOTAL FREE ENERGY PREDICTED BY IDOCK:   -3.87 KCAL/MOL
REMARK 923 INTER-LIGAND FREE ENERGY PREDICTED BY IDOCK:   -8.21 KCAL/MOL
REMARK 924 INTRA-LIGAND FREE ENERGY PREDICTED BY IDOCK:    4.34 KCAL/MOL
REMARK 927      BINDING AFFINITY PREDICTED BY RF-SCORE:    0.00 PKD
ROOT
HETATM    1  C   UNL     1     -10.529   5.805  69.354  1.00  0.00    -0.360 C  
HETATM    2  C   UNL     1     -10.195   6.442  70.692  1.00  0.00    -0.229 C  
ENDROOT
BRANCH   2   3
HETATM    3  C   UNL     1     -11.198   6.029  71.768  1.00  0.00    -0.333 C  
BRANCH   3   4
HETATM    4  C   UNL     1     -10.672   6.340  73.168  1.00  0.00    -0.286 C  
BRANCH   4   5
HETATM    5  C   UNL     1      -9.311   5.682  73.399  1.00  0.00    -0.134 C  
BRANCH   5   6
HETATM    6  C   UNL     1      -9.274   4.270  72.820  1.00  0.00    -0.135 C  
BRANCH   6   7
HETATM    7  C   UNL     1      -8.001   3.538  73.245  1.00  0.00    -0.071 C  
BRANCH   7   8
HETATM    8  C   UNL     1      -6.794   4.026  72.443  1.00  0.00    -0.045 C  
BRANCH   8   9
HETATM    9  C   UNL     1      -6.481   5.489  72.751  1.00  0.00    -0.065 C  
BRANCH   9  10
HETATM   10  C   UNL     1      -5.998   6.215  71.498  1.00  0.00    -0.035 C  
BRANCH  10  11
HETATM   11  C   UNL     1      -7.170   6.655  70.622  1.00  0.00    -0.074 C  
BRANCH  11  12
HETATM   12  C   UNL     1      -6.766   7.816  69.710  1.00  0.00    -0.039 C  
BRANCH  12  13
HETATM   13  C   UNL     1      -7.493   7.791  68.368  1.00  0.00    -0.104 C  
BRANCH  13  14
HETATM   14  C   UNL     1      -8.511   8.895  68.254  1.00  0.00    -0.130 C  
HETATM   15  O   UNL     1      -9.623   8.860  68.764  1.00  0.00    -0.153 OA 
BRANCH  14  16
HETATM   16  O   UNL     1      -7.995   9.937  67.549  1.00  0.00    -0.105 OA 
BRANCH  16  17
HETATM   17  C   UNL     1      -6.885   9.611  66.700  1.00  0.00    -0.084 C  
BRANCH  17  18
HETATM   18  C   UNL     1      -6.966  10.358  65.369  1.00  0.00    -0.118 C  
BRANCH  18  19
HETATM   19  O   UNL     1      -8.083  11.273  65.390  1.00  0.00     0.108 OA 
BRANCH  19  20
HETATM   20  C   UNL     1      -9.256  10.765  64.938  1.00  0.00    -0.212 C  
HETATM   21  O   UNL     1      -9.795   9.746  65.347  1.00  0.00    -0.306 OA 
BRANCH  20  22
HETATM   22  C   UNL     1      -9.814  11.658  63.857  1.00  0.00    -0.306 C  
BRANCH  22  23
HETATM   23  C   UNL     1     -11.234  12.082  64.222  1.00  0.00    -0.421 C  
BRANCH  23  24
HETATM   24  C   UNL     1     -11.354  13.593  64.404  1.00  0.00    -0.394 C  
BRANCH  24  25
HETATM   25  C   UNL     1     -12.651  13.943  65.134  1.00  0.00    -0.466 C  
BRANCH  25  26
HETATM   26  C   UNL     1     -12.527  13.711  66.637  1.00  0.00    -0.291 C  
BRANCH  26  27
HETATM   27  C   UNL     1     -11.655  12.492  66.935  1.00  0.00    -0.436 C  
BRANCH  27  28
HETATM   28  C   UNL     1     -10.800  12.720  68.180  1.00  0.00    -0.249 C  
BRANCH  28  29
HETATM   29  C   UNL     1     -10.648  14.209  68.484  1.00  0.00    -0.257 C  
BRANCH  29  30
HETATM   30  C   UNL     1     -11.233  14.550  69.854  1.00  0.00    -0.247 C  
BRANCH  30  31
HETATM   31  C   UNL     1     -12.687  15.006  69.740  1.00  0.00    -0.062 C  
BRANCH  31  32
HETATM   32  C   UNL     1     -13.248  15.392  71.109  1.00  0.00    -0.583 C  
BRANCH  32  33
HETATM   33  C   UNL     1     -12.130  15.601  72.128  1.00  0.00    -0.539 C  
HETATM   34  C   UNL     1     -12.506  16.662  73.150  1.00  0.00    -0.137 C  
ENDBRANCH  32  33
ENDBRANCH  31  32
ENDBRANCH  30  31
ENDBRANCH  29  30
ENDBRANCH  28  29
ENDBRANCH  27  28
ENDBRANCH  26  27
ENDBRANCH  25  26
ENDBRANCH  24  25
ENDBRANCH  23  24
ENDBRANCH  22  23
ENDBRANCH  20  22
ENDBRANCH  19  20
ENDBRANCH  18  19
BRANCH  18  35
HETATM   35  C   UNL     1      -7.240   9.363  64.253  1.00  0.00    -0.105 C  
BRANCH  35  36
HETATM   36  O   UNL     1      -8.290   8.462  64.634  1.00  0.00    -0.164 OA 
BRANCH  36  37
HETATM   37  P   UNL     1      -7.934   6.823  64.209  1.00  0.00     0.015 P  
HETATM   38  O   UNL     1      -6.438   7.131  64.051  1.00  0.00    -0.042 OA 
HETATM   39  O   UNL     1      -8.517   6.293  65.519  1.00  0.00    -0.147 OA 
BRANCH  37  40
HETATM   40  O   UNL     1      -7.578   5.183  63.785  1.00  0.00    -0.062 OA 
BRANCH  40  41
HETATM   41  C   UNL     1      -8.772   4.464  63.537  1.00  0.00    -0.129 C  
BRANCH  41  42
HETATM   42  C   UNL     1      -8.762   3.173  64.338  1.00  0.00    -0.095 C  
BRANCH  42  43
HETATM   43  N   UNL     1      -7.367   2.715  64.827  1.00  0.00    -0.065 N  
HETATM   44  C   UNL     1      -7.469   2.418  66.308  1.00  0.00    -0.067 C  
HETATM   45  C   UNL     1      -6.325   3.824  64.612  1.00  0.00    -0.027 C  
HETATM   46  C   UNL     1      -6.904   1.480  64.070  1.00  0.00    -0.030 C  
ENDBRANCH  42  43
ENDBRANCH  41  42
ENDBRANCH  40  41
ENDBRANCH  37  40
ENDBRANCH  36  37
ENDBRANCH  35  36
ENDBRANCH  18  35
ENDBRANCH  17  18
ENDBRANCH  16  17
ENDBRANCH  14  16
ENDBRANCH  13  14
ENDBRANCH  12  13
ENDBRANCH  11  12
ENDBRANCH  10  11
ENDBRANCH   9  10
ENDBRANCH   8   9
ENDBRANCH   7   8
ENDBRANCH   6   7
ENDBRANCH   5   6
ENDBRANCH   4   5
ENDBRANCH   3   4
ENDBRANCH   2   3
TORSDOF 36
ENDMDL
MODEL       80
REMARK 921   NORMALIZED FREE ENERGY PREDICTED BY IDOCK:    0.89 KCAL/MOL
REMARK 922        TOTAL FREE ENERGY PREDICTED BY IDOCK:   -2.74 KCAL/MOL
REMARK 923 INTER-LIGAND FREE ENERGY PREDICTED BY IDOCK:   -4.93 KCAL/MOL
REMARK 924 INTRA-LIGAND FREE ENERGY PREDICTED BY IDOCK:    2.20 KCAL/MOL
REMARK 927      BINDING AFFINITY PREDICTED BY RF-SCORE:    0.00 PKD
ROOT
HETATM    1  C   UNL     1     -11.276  12.952  70.351  1.00  0.00     0.783 C  
HETATM    2  C   UNL     1     -10.489  13.047  69.056  1.00  0.00    -0.023 C  
ENDROOT
BRANCH   2   3
HETATM    3  C   UNL     1      -9.009  12.745  69.283  1.00  0.00     0.973 C  
BRANCH   3   4
HETATM    4  C   UNL     1      -8.207  12.887  67.991  1.00  0.00    -0.168 C  
BRANCH   4   5
HETATM    5  C   UNL     1      -6.920  12.065  68.052  1.00  0.00    -0.084 C  
BRANCH   5   6
HETATM    6  C   UNL     1      -6.297  12.114  69.445  1.00  0.00    -0.116 C  
BRANCH   6   7
HETATM    7  C   UNL     1      -7.054  11.208  70.416  1.00  0.00     0.878 C  
BRANCH   7   8
HETATM    8  C   UNL     1      -6.207   9.997  70.809  1.00  0.00    -0.084 C  
BRANCH   8   9
HETATM    9  C   UNL     1      -6.422   8.835  69.840  1.00  0.00    -0.038 C  
BRANCH   9  10
HETATM   10  C   UNL     1      -7.751   8.137  70.119  1.00  0.00    -0.085 C  
BRANCH  10  11
HETATM   11  C   UNL     1      -8.837   9.139  70.505  1.00  0.00    -0.263 C  
BRANCH  11  12
HETATM   12  C   UNL     1      -9.863   9.294  69.379  1.00  0.00    -0.177 C  
BRANCH  12  13
HETATM   13  C   UNL     1      -9.464   8.540  68.113  1.00  0.00    -0.152 C  
BRANCH  13  14
HETATM   14  C   UNL     1      -9.849   9.288  66.863  1.00  0.00    -0.214 C  
HETATM   15  O   UNL     1     -10.758   8.953  66.114  1.00  0.00     0.257 OA 
BRANCH  14  16
HETATM   16  O   UNL     1      -9.075  10.397  66.724  1.00  0.00    -0.143 OA 
BRANCH  16  17
HETATM   17  C   UNL     1      -9.457  11.281  65.660  1.00  0.00    -0.229 C  
BRANCH  17  18
HETATM   18  C   UNL     1     -10.226  10.535  64.569  1.00  0.00    -0.285 C  
BRANCH  18  19
HETATM   19  O   UNL     1      -9.378   9.529  63.974  1.00  0.00    -0.169 OA 
BRANCH  19  20
HETATM   20  C   UNL     1      -8.677   9.934  62.886  1.00  0.00    -0.213 C  
HETATM   21  O   UNL     1      -8.673  11.065  62.422  1.00  0.00    -0.283 OA 
BRANCH  20  22
HETATM   22  C   UNL     1      -7.882   8.775  62.334  1.00  0.00    -0.135 C  
BRANCH  22  23
HETATM   23  C   UNL     1      -6.495   8.755  62.969  1.00  0.00    -0.090 C  
BRANCH  23  24
HETATM   24  C   UNL     1      -5.888   7.354  62.981  1.00  0.00    -0.049 C  
BRANCH  24  25
HETATM   25  C   UNL     1      -5.471   6.963  64.399  1.00  0.00    -0.032 C  
BRANCH  25  26
HETATM   26  C   UNL     1      -5.890   8.020  65.417  1.00  0.00    -0.037 C  
BRANCH  26  27
HETATM   27  C   UNL     1      -5.945   7.432  66.827  1.00  0.00    -0.039 C  
BRANCH  27  28
HETATM   28  C   UNL     1      -5.248   6.074  66.882  1.00  0.00    -0.005 C  
BRANCH  28  29
HETATM   29  C   UNL     1      -5.878   5.170  67.941  1.00  0.00    -0.018 C  
BRANCH  29  30
HETATM   30  C   UNL     1      -6.162   3.780  67.372  1.00  0.00    -0.036 C  
BRANCH  30  31
HETATM   31  C   UNL     1      -7.219   3.834  66.270  1.00  0.00    -0.064 C  
BRANCH  31  32
HETATM   32  C   UNL     1      -7.441   2.453  65.655  1.00  0.00    -0.068 C  
BRANCH  32  33
HETATM   33  C   UNL     1      -8.616   2.461  64.679  1.00  0.00    -0.093 C  
HETATM   34  C   UNL     1      -8.380   1.501  63.524  1.00  0.00    -0.065 C  
ENDBRANCH  32  33
ENDBRANCH  31  32
ENDBRANCH  30  31
ENDBRANCH  29  30
ENDBRANCH  28  29
ENDBRANCH  27  28
ENDBRANCH  26  27
ENDBRANCH  25  26
ENDBRANCH  24  25
ENDBRANCH  23  24
ENDBRANCH  22  23
ENDBRANCH  20  22
ENDBRANCH  19  20
ENDBRANCH  18  19
BRANCH  18  35
HETATM   35  C   UNL     1     -10.590  11.509  63.461  1.00  0.00    -0.423 C  
BRANCH  35  36
HETATM   36  O   UNL     1     -11.881  12.086  63.706  1.00  0.00    -0.429 OA 
BRANCH  36  37
HETATM   37  P   UNL     1     -11.790  13.497  64.703  1.00  0.00    -0.440 P  
HETATM   38  O   UNL     1     -12.518  14.351  63.656  1.00  0.00    -0.805 OA 
HETATM   39  O   UNL     1     -12.535  12.812  65.848  1.00  0.00    -0.560 OA 
BRANCH  37  40
HETATM   40  O   UNL     1     -11.699  14.909  65.700  1.00  0.00    -0.305 OA 
BRANCH  40  41
HETATM   41  C   UNL     1     -10.894  15.899  65.087  1.00  0.00    -0.421 C  
BRANCH  41  42
HETATM   42  C   UNL     1     -10.773  17.099  66.011  1.00  0.00    -0.113 C  
BRANCH  42  43
HETATM   43  N   UNL     1      -9.369  17.313  66.627  1.00  0.00    -0.251 N  
HETATM   44  C   UNL     1      -8.857  18.658  66.157  1.00  0.00    -0.118 C  
HETATM   45  C   UNL     1      -8.398  16.218  66.158  1.00  0.00    -0.225 C  
HETATM   46  C   UNL     1      -9.429  17.272  68.146  1.00  0.00    -0.278 C  
ENDBRANCH  42  43
ENDBRANCH  41  42
ENDBRANCH  40  41
ENDBRANCH  37  40
ENDBRANCH  36  37
ENDBRANCH  35  36
ENDBRANCH  18  35
ENDBRANCH  17  18
ENDBRANCH  16  17
ENDBRANCH  14  16
ENDBRANCH  13  14
ENDBRANCH  12  13
ENDBRANCH  11  12
ENDBRANCH  10  11
ENDBRANCH   9  10
ENDBRANCH   8   9
ENDBRANCH   7   8
ENDBRANCH   6   7
ENDBRANCH   5   6
ENDBRANCH   4   5
ENDBRANCH   3   4
ENDBRANCH   2   3
TORSDOF 36
ENDMDL
MODEL       81
REMARK 921   NORMALIZED FREE ENERGY PREDICTED BY IDOCK:    1.04 KCAL/MOL
REMARK 922        TOTAL FREE ENERGY PREDICTED BY IDOCK:   -2.25 KCAL/MOL
REMARK 923 INTER-LIGAND FREE ENERGY PREDICTED BY IDOCK:   -5.93 KCAL/MOL
REMARK 924 INTRA-LIGAND FREE ENERGY PREDICTED BY IDOCK:    3.68 KCAL/MOL
REMARK 927      BINDING AFFINITY PREDICTED BY RF-SCORE:    0.00 PKD
ROOT
HETATM    1  C   UNL     1     -10.310  14.341  64.316  1.00  0.00     0.504 C  
HETATM    2  C   UNL     1     -11.565  15.059  63.847  1.00  0.00     0.346 C  
ENDROOT
BRANCH   2   3
HETATM    3  C   UNL     1     -12.617  15.115  64.953  1.00  0.00     0.198 C  
BRANCH   3   4
HETATM    4  C   UNL     1     -12.825  13.744  65.593  1.00  0.00    -0.456 C  
BRANCH   4   5
HETATM    5  C   UNL     1     -12.581  12.625  64.581  1.00  0.00    -0.517 C  
BRANCH   5   6
HETATM    6  C   UNL     1     -12.014  11.380  65.258  1.00  0.00     0.652 C  
BRANCH   6   7
HETATM    7  C   UNL     1     -11.335  11.736  66.580  1.00  0.00    -0.381 C  
BRANCH   7   8
HETATM    8  C   UNL     1     -11.325  13.250  66.800  1.00  0.00    -0.359 C  
BRANCH   8   9
HETATM    9  C   UNL     1     -11.943  13.616  68.148  1.00  0.00    -0.390 C  
BRANCH   9  10
HETATM   10  C   UNL     1     -10.892  13.574  69.255  1.00  0.00    -0.107 C  
BRANCH  10  11
HETATM   11  C   UNL     1     -10.370  14.972  69.582  1.00  0.00    -0.201 C  
BRANCH  11  12
HETATM   12  C   UNL     1      -8.964  15.178  69.012  1.00  0.00    -0.219 C  
BRANCH  12  13
HETATM   13  C   UNL     1      -8.728  14.383  67.730  1.00  0.00    -0.180 C  
BRANCH  13  14
HETATM   14  C   UNL     1      -7.387  13.695  67.730  1.00  0.00    -0.166 C  
HETATM   15  O   UNL     1      -6.318  14.273  67.875  1.00  0.00    -0.138 OA 
BRANCH  14  16
HETATM   16  O   UNL     1      -7.551  12.352  67.592  1.00  0.00    -0.118 OA 
BRANCH  16  17
HETATM   17  C   UNL     1      -8.401  11.736  68.571  1.00  0.00    -0.131 C  
BRANCH  17  18
HETATM   18  C   UNL     1      -8.393  10.214  68.432  1.00  0.00    -0.113 C  
BRANCH  18  19
HETATM   19  O   UNL     1      -7.267   9.663  69.149  1.00  0.00    -0.063 OA 
BRANCH  19  20
HETATM   20  C   UNL     1      -7.336   9.763  70.499  1.00  0.00    -0.112 C  
HETATM   21  O   UNL     1      -6.706  10.552  71.188  1.00  0.00    -0.194 OA 
BRANCH  20  22
HETATM   22  C   UNL     1      -8.327   8.757  71.033  1.00  0.00    -0.208 C  
BRANCH  22  23
HETATM   23  C   UNL     1      -9.734   9.349  70.991  1.00  0.00    -0.293 C  
BRANCH  23  24
HETATM   24  C   UNL     1     -10.739   8.498  71.761  1.00  0.00    -0.373 C  
BRANCH  24  25
HETATM   25  C   UNL     1     -11.506   7.582  70.807  1.00  0.00    -0.305 C  
BRANCH  25  26
HETATM   26  C   UNL     1     -11.158   6.114  71.037  1.00  0.00    -0.359 C  
BRANCH  26  27
HETATM   27  C   UNL     1     -11.407   5.712  72.490  1.00  0.00    -0.349 C  
BRANCH  27  28
HETATM   28  C   UNL     1     -10.240   4.894  73.040  1.00  0.00    -0.216 C  
BRANCH  28  29
HETATM   29  C   UNL     1      -9.081   4.842  72.047  1.00  0.00    -0.156 C  
BRANCH  29  30
HETATM   30  C   UNL     1      -9.344   3.808  70.953  1.00  0.00    -0.215 C  
BRANCH  30  31
HETATM   31  C   UNL     1      -9.021   2.394  71.435  1.00  0.00    -0.144 C  
BRANCH  31  32
HETATM   32  C   UNL     1      -7.718   1.890  70.815  1.00  0.00    -0.035 C  
BRANCH  32  33
HETATM   33  C   UNL     1      -7.646   2.222  69.326  1.00  0.00    -0.043 C  
HETATM   34  C   UNL     1      -6.248   1.987  68.776  1.00  0.00    -0.025 C  
ENDBRANCH  32  33
ENDBRANCH  31  32
ENDBRANCH  30  31
ENDBRANCH  29  30
ENDBRANCH  28  29
ENDBRANCH  27  28
ENDBRANCH  26  27
ENDBRANCH  25  26
ENDBRANCH  24  25
ENDBRANCH  23  24
ENDBRANCH  22  23
ENDBRANCH  20  22
ENDBRANCH  19  20
ENDBRANCH  18  19
BRANCH  18  35
HETATM   35  C   UNL     1      -8.199   9.847  66.969  1.00  0.00    -0.117 C  
BRANCH  35  36
HETATM   36  O   UNL     1      -6.891   9.297  66.761  1.00  0.00    -0.078 OA 
BRANCH  36  37
HETATM   37  P   UNL     1      -6.915   7.935  65.695  1.00  0.00    -0.053 P  
HETATM   38  O   UNL     1      -5.383   7.926  65.583  1.00  0.00    -0.028 OA 
HETATM   39  O   UNL     1      -7.656   7.072  66.715  1.00  0.00    -0.087 OA 
BRANCH  37  40
HETATM   40  O   UNL     1      -6.938   6.572  64.628  1.00  0.00    -0.051 OA 
BRANCH  40  41
HETATM   41  C   UNL     1      -8.263   6.279  64.226  1.00  0.00    -0.021 C  
BRANCH  41  42
HETATM   42  C   UNL     1      -8.273   5.001  63.404  1.00  0.00    -0.109 C  
BRANCH  42  43
HETATM   43  N   UNL     1      -8.941   3.785  64.090  1.00  0.00    -0.119 N  
HETATM   44  C   UNL     1      -7.911   2.680  64.179  1.00  0.00    -0.077 C  
HETATM   45  C   UNL     1     -10.138   3.287  63.266  1.00  0.00    -0.150 C  
HETATM   46  C   UNL     1      -9.444   4.152  65.478  1.00  0.00    -0.176 C  
ENDBRANCH  42  43
ENDBRANCH  41  42
ENDBRANCH  40  41
ENDBRANCH  37  40
ENDBRANCH  36  37
ENDBRANCH  35  36
ENDBRANCH  18  35
ENDBRANCH  17  18
ENDBRANCH  16  17
ENDBRANCH  14  16
ENDBRANCH  13  14
ENDBRANCH  12  13
ENDBRANCH  11  12
ENDBRANCH  10  11
ENDBRANCH   9  10
ENDBRANCH   8   9
ENDBRANCH   7   8
ENDBRANCH   6   7
ENDBRANCH   5   6
ENDBRANCH   4   5
ENDBRANCH   3   4
ENDBRANCH   2   3
TORSDOF 36
ENDMDL
MODEL       82
REMARK 921   NORMALIZED FREE ENERGY PREDICTED BY IDOCK:    1.40 KCAL/MOL
REMARK 922        TOTAL FREE ENERGY PREDICTED BY IDOCK:   -1.14 KCAL/MOL
REMARK 923 INTER-LIGAND FREE ENERGY PREDICTED BY IDOCK:   -6.52 KCAL/MOL
REMARK 924 INTRA-LIGAND FREE ENERGY PREDICTED BY IDOCK:    5.39 KCAL/MOL
REMARK 927      BINDING AFFINITY PREDICTED BY RF-SCORE:    0.00 PKD
ROOT
HETATM    1  C   UNL     1     -11.522   5.440  70.942  1.00  0.00     0.546 C  
HETATM    2  C   UNL     1     -12.440   6.647  70.860  1.00  0.00    -0.183 C  
ENDROOT
BRANCH   2   3
HETATM    3  C   UNL     1     -11.733   7.838  70.216  1.00  0.00     0.031 C  
BRANCH   3   4
HETATM    4  C   UNL     1     -10.542   8.297  71.054  1.00  0.00    -0.243 C  
BRANCH   4   5
HETATM    5  C   UNL     1     -10.819   8.114  72.546  1.00  0.00    -0.431 C  
BRANCH   5   6
HETATM    6  C   UNL     1     -10.440   6.711  73.012  1.00  0.00    -0.268 C  
BRANCH   6   7
HETATM    7  C   UNL     1      -9.231   6.753  73.947  1.00  0.00    -0.205 C  
BRANCH   7   8
HETATM    8  C   UNL     1      -7.929   6.867  73.153  1.00  0.00    -0.110 C  
BRANCH   8   9
HETATM    9  C   UNL     1      -8.132   7.671  71.871  1.00  0.00    -0.112 C  
BRANCH   9  10
HETATM   10  C   UNL     1      -6.794   7.957  71.193  1.00  0.00    -0.045 C  
BRANCH  10  11
HETATM   11  C   UNL     1      -6.395   9.424  71.344  1.00  0.00    -0.020 C  
BRANCH  11  12
HETATM   12  C   UNL     1      -5.763   9.954  70.054  1.00  0.00    -0.044 C  
BRANCH  12  13
HETATM   13  C   UNL     1      -6.796  10.519  69.082  1.00  0.00    -0.074 C  
BRANCH  13  14
HETATM   14  C   UNL     1      -6.213  10.765  67.714  1.00  0.00    -0.047 C  
HETATM   15  O   UNL     1      -5.840   9.878  66.957  1.00  0.00    -0.050 OA 
BRANCH  14  16
HETATM   16  O   UNL     1      -6.209  12.096  67.440  1.00  0.00    -0.111 OA 
BRANCH  16  17
HETATM   17  C   UNL     1      -5.934  12.951  68.559  1.00  0.00    -0.067 C  
BRANCH  17  18
HETATM   18  C   UNL     1      -7.195  13.209  69.383  1.00  0.00     0.247 C  
BRANCH  18  19
HETATM   19  O   UNL     1      -8.347  12.674  68.695  1.00  0.00    -0.093 OA 
BRANCH  19  20
HETATM   20  C   UNL     1      -9.302  13.580  68.374  1.00  0.00    -0.171 C  
HETATM   21  O   UNL     1      -9.947  14.247  69.171  1.00  0.00    -0.153 OA 
BRANCH  20  22
HETATM   22  C   UNL     1      -9.444  13.660  66.874  1.00  0.00    -0.263 C  
BRANCH  22  23
HETATM   23  C   UNL     1      -9.210  12.281  66.261  1.00  0.00    -0.171 C  
BRANCH  23  24
HETATM   24  C   UNL     1     -10.427  11.783  65.486  1.00  0.00    -0.311 C  
BRANCH  24  25
HETATM   25  C   UNL     1     -10.714  12.698  64.295  1.00  0.00    -0.409 C  
BRANCH  25  26
HETATM   26  C   UNL     1     -10.633  11.940  62.973  1.00  0.00    -0.154 C  
BRANCH  26  27
HETATM   27  C   UNL     1     -10.257  10.476  63.202  1.00  0.00     0.059 C  
BRANCH  27  28
HETATM   28  C   UNL     1      -8.954  10.126  62.486  1.00  0.00    -0.284 C  
BRANCH  28  29
HETATM   29  C   UNL     1      -8.247   8.953  63.162  1.00  0.00    -0.183 C  
BRANCH  29  30
HETATM   30  C   UNL     1      -6.729   9.125  63.108  1.00  0.00    -0.090 C  
BRANCH  30  31
HETATM   31  C   UNL     1      -6.014   7.775  63.150  1.00  0.00    -0.062 C  
BRANCH  31  32
HETATM   32  C   UNL     1      -5.499   7.472  64.557  1.00  0.00    -0.033 C  
BRANCH  32  33
HETATM   33  C   UNL     1      -5.461   5.968  64.822  1.00  0.00    -0.017 C  
HETATM   34  C   UNL     1      -6.853   5.360  64.752  1.00  0.00    -0.048 C  
ENDBRANCH  32  33
ENDBRANCH  31  32
ENDBRANCH  30  31
ENDBRANCH  29  30
ENDBRANCH  28  29
ENDBRANCH  27  28
ENDBRANCH  26  27
ENDBRANCH  25  26
ENDBRANCH  24  25
ENDBRANCH  23  24
ENDBRANCH  22  23
ENDBRANCH  20  22
ENDBRANCH  19  20
ENDBRANCH  18  19
BRANCH  18  35
HETATM   35  C   UNL     1      -7.416  14.708  69.500  1.00  0.00    -0.074 C  
BRANCH  35  36
HETATM   36  O   UNL     1      -6.652  15.405  68.506  1.00  0.00    -0.103 OA 
BRANCH  36  37
HETATM   37  P   UNL     1      -7.115  17.067  68.368  1.00  0.00    -0.207 P  
HETATM   38  O   UNL     1      -8.393  16.836  69.186  1.00  0.00    -0.203 OA 
HETATM   39  O   UNL     1      -5.815  17.546  69.015  1.00  0.00    -0.179 OA 
BRANCH  37  40
HETATM   40  O   UNL     1      -7.577  18.729  68.230  1.00  0.00    -0.263 OA 
BRANCH  40  41
HETATM   41  C   UNL     1      -7.110  19.276  67.011  1.00  0.00    -0.203 C  
BRANCH  41  42
HETATM   42  C   UNL     1      -8.260  19.945  66.280  1.00  0.00    -0.329 C  
BRANCH  42  43
HETATM   43  N   UNL     1      -9.669  19.431  66.664  1.00  0.00    -0.335 N  
HETATM   44  C   UNL     1     -10.645  19.929  65.619  1.00  0.00    -0.327 C  
HETATM   45  C   UNL     1     -10.089  19.974  68.038  1.00  0.00    -0.420 C  
HETATM   46  C   UNL     1      -9.694  17.912  66.729  1.00  0.00    -0.314 C  
ENDBRANCH  42  43
ENDBRANCH  41  42
ENDBRANCH  40  41
ENDBRANCH  37  40
ENDBRANCH  36  37
ENDBRANCH  35  36
ENDBRANCH  18  35
ENDBRANCH  17  18
ENDBRANCH  16  17
ENDBRANCH  14  16
ENDBRANCH  13  14
ENDBRANCH  12  13
ENDBRANCH  11  12
ENDBRANCH  10  11
ENDBRANCH   9  10
ENDBRANCH   8   9
ENDBRANCH   7   8
ENDBRANCH   6   7
ENDBRANCH   5   6
ENDBRANCH   4   5
ENDBRANCH   3   4
ENDBRANCH   2   3
TORSDOF 36
ENDMDL
MODEL       83
REMARK 921   NORMALIZED FREE ENERGY PREDICTED BY IDOCK:    1.88 KCAL/MOL
REMARK 922        TOTAL FREE ENERGY PREDICTED BY IDOCK:    0.35 KCAL/MOL
REMARK 923 INTER-LIGAND FREE ENERGY PREDICTED BY IDOCK:   -3.86 KCAL/MOL
REMARK 924 INTRA-LIGAND FREE ENERGY PREDICTED BY IDOCK:    4.21 KCAL/MOL
REMARK 927      BINDING AFFINITY PREDICTED BY RF-SCORE:    0.00 PKD
ROOT
HETATM    1  C   UNL     1      -7.926   9.222  71.285  1.00  0.00     0.040 C  
HETATM    2  C   UNL     1      -7.452   7.938  70.624  1.00  0.00    -0.069 C  
ENDROOT
BRANCH   2   3
HETATM    3  C   UNL     1      -8.626   7.140  70.060  1.00  0.00    -0.141 C  
BRANCH   3   4
HETATM    4  C   UNL     1      -9.964   7.731  70.501  1.00  0.00    -0.187 C  
BRANCH   4   5
HETATM    5  C   UNL     1     -10.654   6.824  71.519  1.00  0.00    -0.245 C  
BRANCH   5   6
HETATM    6  C   UNL     1     -11.858   7.517  72.152  1.00  0.00    -0.338 C  
BRANCH   6   7
HETATM    7  C   UNL     1     -12.053   8.916  71.568  1.00  0.00    -0.395 C  
BRANCH   7   8
HETATM    8  C   UNL     1     -12.242   9.951  72.678  1.00  0.00     1.041 C  
BRANCH   8   9
HETATM    9  C   UNL     1     -13.494  10.795  72.439  1.00  0.00     0.133 C  
BRANCH   9  10
HETATM   10  C   UNL     1     -13.171  12.008  71.570  1.00  0.00    -0.276 C  
BRANCH  10  11
HETATM   11  C   UNL     1     -12.845  11.596  70.136  1.00  0.00     0.163 C  
BRANCH  11  12
HETATM   12  C   UNL     1     -11.363  11.822  69.826  1.00  0.00    -0.245 C  
BRANCH  12  13
HETATM   13  C   UNL     1     -11.148  12.731  68.618  1.00  0.00    -0.304 C  
BRANCH  13  14
HETATM   14  C   UNL     1     -11.715  12.138  67.354  1.00  0.00    -0.304 C  
HETATM   15  O   UNL     1     -12.703  12.571  66.776  1.00  0.00     0.163 OA 
BRANCH  14  16
HETATM   16  O   UNL     1     -10.946  11.097  66.939  1.00  0.00    -0.278 OA 
BRANCH  16  17
HETATM   17  C   UNL     1      -9.704  11.462  66.321  1.00  0.00    -0.212 C  
BRANCH  17  18
HETATM   18  C   UNL     1      -9.117  12.722  66.957  1.00  0.00    -0.220 C  
BRANCH  18  19
HETATM   19  O   UNL     1      -9.094  13.793  65.989  1.00  0.00    -0.004 OA 
BRANCH  19  20
HETATM   20  C   UNL     1     -10.047  13.724  65.027  1.00  0.00    -0.283 C  
HETATM   21  O   UNL     1      -9.910  13.215  63.924  1.00  0.00    -0.157 OA 
BRANCH  20  22
HETATM   22  C   UNL     1     -11.321  14.360  65.527  1.00  0.00    -0.334 C  
BRANCH  22  23
HETATM   23  C   UNL     1     -11.578  15.661  64.772  1.00  0.00    -0.218 C  
BRANCH  23  24
HETATM   24  C   UNL     1     -10.928  16.861  65.456  1.00  0.00    -0.009 C  
BRANCH  24  25
HETATM   25  C   UNL     1      -9.426  16.631  65.628  1.00  0.00     0.048 C  
BRANCH  25  26
HETATM   26  C   UNL     1      -8.970  16.948  67.049  1.00  0.00    -0.232 C  
BRANCH  26  27
HETATM   27  C   UNL     1     -10.153  16.960  68.016  1.00  0.00    -0.293 C  
BRANCH  27  28
HETATM   28  C   UNL     1      -9.687  17.212  69.449  1.00  0.00     0.061 C  
BRANCH  28  29
HETATM   29  C   UNL     1      -8.848  16.047  69.972  1.00  0.00     0.736 C  
BRANCH  29  30
HETATM   30  C   UNL     1      -9.693  15.108  70.833  1.00  0.00     1.337 C  
BRANCH  30  31
HETATM   31  C   UNL     1     -11.185  15.296  70.561  1.00  0.00    -0.338 C  
BRANCH  31  32
HETATM   32  C   UNL     1     -11.866  16.014  71.726  1.00  0.00    -0.599 C  
BRANCH  32  33
HETATM   33  C   UNL     1     -11.895  15.139  72.978  1.00  0.00    -0.444 C  
HETATM   34  C   UNL     1     -13.146  15.398  73.803  1.00  0.00    -0.391 C  
ENDBRANCH  32  33
ENDBRANCH  31  32
ENDBRANCH  30  31
ENDBRANCH  29  30
ENDBRANCH  28  29
ENDBRANCH  27  28
ENDBRANCH  26  27
ENDBRANCH  25  26
ENDBRANCH  24  25
ENDBRANCH  23  24
ENDBRANCH  22  23
ENDBRANCH  20  22
ENDBRANCH  19  20
ENDBRANCH  18  19
BRANCH  18  35
HETATM   35  C   UNL     1      -7.672  12.457  67.348  1.00  0.00    -0.170 C  
BRANCH  35  36
HETATM   36  O   UNL     1      -7.599  11.371  68.282  1.00  0.00    -0.099 OA 
BRANCH  36  37
HETATM   37  P   UNL     1      -6.751  10.007  67.637  1.00  0.00    -0.077 P  
HETATM   38  O   UNL     1      -8.036   9.170  67.570  1.00  0.00    -0.099 OA 
HETATM   39  O   UNL     1      -6.246  10.811  66.439  1.00  0.00    -0.095 OA 
BRANCH  37  40
HETATM   40  O   UNL     1      -5.902   8.644  66.992  1.00  0.00    -0.041 OA 
BRANCH  40  41
HETATM   41  C   UNL     1      -6.813   7.643  66.577  1.00  0.00    -0.062 C  
BRANCH  41  42
HETATM   42  C   UNL     1      -6.464   7.189  65.170  1.00  0.00    -0.040 C  
BRANCH  42  43
HETATM   43  N   UNL     1      -6.600   8.278  64.078  1.00  0.00    -0.070 N  
HETATM   44  C   UNL     1      -5.334   8.261  63.247  1.00  0.00    -0.062 C  
HETATM   45  C   UNL     1      -6.761   9.667  64.713  1.00  0.00    -0.103 C  
HETATM   46  C   UNL     1      -7.813   8.018  63.198  1.00  0.00    -0.148 C  
ENDBRANCH  42  43
ENDBRANCH  41  42
ENDBRANCH  40  41
ENDBRANCH  37  40
ENDBRANCH  36  37
ENDBRANCH  35  36
ENDBRANCH  18  35
ENDBRANCH  17  18
ENDBRANCH  16  17
ENDBRANCH  14  16
ENDBRANCH  13  14
ENDBRANCH  12  13
ENDBRANCH  11  12
ENDBRANCH  10  11
ENDBRANCH   9  10
ENDBRANCH   8   9
ENDBRANCH   7   8
ENDBRANCH   6   7
ENDBRANCH   5   6
ENDBRANCH   4   5
ENDBRANCH   3   4
ENDBRANCH   2   3
TORSDOF 36
ENDMDL
MODEL       84
REMARK 921   NORMALIZED FREE ENERGY PREDICTED BY IDOCK:    2.42 KCAL/MOL
REMARK 922        TOTAL FREE ENERGY PREDICTED BY IDOCK:    2.01 KCAL/MOL
REMARK 923 INTER-LIGAND FREE ENERGY PREDICTED BY IDOCK:   -1.55 KCAL/MOL
REMARK 924 INTRA-LIGAND FREE ENERGY PREDICTED BY IDOCK:    3.56 KCAL/MOL
REMARK 927      BINDING AFFINITY PREDICTED BY RF-SCORE:    0.00 PKD
ROOT
HETATM    1  C   UNL     1     -11.312  12.953  70.469  1.00  0.00     0.737 C  
HETATM    2  C   UNL     1     -10.360  12.863  69.289  1.00  0.00     0.290 C  
ENDROOT
BRANCH   2   3
HETATM    3  C   UNL     1      -9.022  12.251  69.702  1.00  0.00     1.911 C  
BRANCH   3   4
HETATM    4  C   UNL     1      -8.053  12.188  68.524  1.00  0.00    -0.112 C  
BRANCH   4   5
HETATM    5  C   UNL     1      -7.108  10.993  68.656  1.00  0.00    -0.080 C  
BRANCH   5   6
HETATM    6  C   UNL     1      -6.830  10.667  70.121  1.00  0.00    -0.119 C  
BRANCH   6   7
HETATM    7  C   UNL     1      -8.043  10.005  70.775  1.00  0.00     0.678 C  
BRANCH   7   8
HETATM    8  C   UNL     1      -7.780   8.523  71.042  1.00  0.00    -0.104 C  
BRANCH   8   9
HETATM    9  C   UNL     1      -8.186   7.665  69.844  1.00  0.00    -0.130 C  
BRANCH   9  10
HETATM   10  C   UNL     1      -9.695   7.434  69.831  1.00  0.00    -0.171 C  
BRANCH  10  11
HETATM   11  C   UNL     1     -10.454   8.678  70.290  1.00  0.00    -0.229 C  
BRANCH  11  12
HETATM   12  C   UNL     1     -11.199   9.326  69.120  1.00  0.00     0.101 C  
BRANCH  12  13
HETATM   13  C   UNL     1     -10.872   8.671  67.780  1.00  0.00    -0.075 C  
BRANCH  13  14
HETATM   14  C   UNL     1     -10.745   9.683  66.670  1.00  0.00    -0.032 C  
HETATM   15  O   UNL     1     -11.534   9.784  65.740  1.00  0.00     1.762 OA 
BRANCH  14  16
HETATM   16  O   UNL     1      -9.665  10.480  66.885  1.00  0.00    -0.171 OA 
BRANCH  16  17
HETATM   17  C   UNL     1      -9.536  11.591  65.985  1.00  0.00    -0.228 C  
BRANCH  17  18
HETATM   18  C   UNL     1     -10.287  11.335  64.678  1.00  0.00    -0.315 C  
BRANCH  18  19
HETATM   19  O   UNL     1      -9.799  10.124  64.062  1.00  0.00    -0.290 OA 
BRANCH  19  20
HETATM   20  C   UNL     1      -9.136  10.296  62.892  1.00  0.00    -0.278 C  
HETATM   21  O   UNL     1      -8.908  11.371  62.355  1.00  0.00    -0.301 OA 
BRANCH  20  22
HETATM   22  C   UNL     1      -8.704   8.955  62.351  1.00  0.00    -0.182 C  
BRANCH  22  23
HETATM   23  C   UNL     1      -7.332   8.592  62.914  1.00  0.00    -0.098 C  
BRANCH  23  24
HETATM   24  C   UNL     1      -7.145   7.082  63.041  1.00  0.00    -0.061 C  
BRANCH  24  25
HETATM   25  C   UNL     1      -6.789   6.707  64.479  1.00  0.00    -0.046 C  
BRANCH  25  26
HETATM   26  C   UNL     1      -6.735   7.936  65.383  1.00  0.00    -0.048 C  
BRANCH  26  27
HETATM   27  C   UNL     1      -6.970   7.554  66.843  1.00  0.00    -0.079 C  
BRANCH  27  28
HETATM   28  C   UNL     1      -7.424   6.101  66.965  1.00  0.00    -0.087 C  
BRANCH  28  29
HETATM   29  C   UNL     1      -6.264   5.189  67.361  1.00  0.00    -0.035 C  
BRANCH  29  30
HETATM   30  C   UNL     1      -6.673   3.719  67.280  1.00  0.00    -0.046 C  
BRANCH  30  31
HETATM   31  C   UNL     1      -7.484   3.298  68.505  1.00  0.00    -0.049 C  
BRANCH  31  32
HETATM   32  C   UNL     1      -7.040   4.070  69.746  1.00  0.00    -0.042 C  
BRANCH  32  33
HETATM   33  C   UNL     1      -8.165   4.159  70.777  1.00  0.00    -0.077 C  
HETATM   34  C   UNL     1      -7.715   4.909  72.021  1.00  0.00    -0.100 C  
ENDBRANCH  32  33
ENDBRANCH  31  32
ENDBRANCH  30  31
ENDBRANCH  29  30
ENDBRANCH  28  29
ENDBRANCH  27  28
ENDBRANCH  26  27
ENDBRANCH  25  26
ENDBRANCH  24  25
ENDBRANCH  23  24
ENDBRANCH  22  23
ENDBRANCH  20  22
ENDBRANCH  19  20
ENDBRANCH  18  19
BRANCH  18  35
HETATM   35  C   UNL     1      -9.994  12.467  63.706  1.00  0.00    -0.215 C  
BRANCH  35  36
HETATM   36  O   UNL     1     -11.092  13.390  63.669  1.00  0.00    -0.161 OA 
BRANCH  36  37
HETATM   37  P   UNL     1     -11.110  14.443  65.041  1.00  0.00    -0.415 P  
HETATM   38  O   UNL     1     -11.756  15.576  64.232  1.00  0.00    -0.370 OA 
HETATM   39  O   UNL     1     -11.943  13.459  65.862  1.00  0.00    -0.366 OA 
BRANCH  37  40
HETATM   40  O   UNL     1     -11.129  15.496  66.414  1.00  0.00    -0.283 OA 
BRANCH  40  41
HETATM   41  C   UNL     1     -10.251  16.588  66.215  1.00  0.00    -0.332 C  
BRANCH  41  42
HETATM   42  C   UNL     1     -10.275  17.490  67.437  1.00  0.00    -0.337 C  
BRANCH  42  43
HETATM   43  N   UNL     1      -8.980  18.301  67.680  1.00  0.00    -0.264 N  
HETATM   44  C   UNL     1      -7.817  17.332  67.670  1.00  0.00    -0.182 C  
HETATM   45  C   UNL     1      -9.029  19.008  69.043  1.00  0.00    -0.182 C  
HETATM   46  C   UNL     1      -8.793  19.362  66.605  1.00  0.00    -0.339 C  
ENDBRANCH  42  43
ENDBRANCH  41  42
ENDBRANCH  40  41
ENDBRANCH  37  40
ENDBRANCH  36  37
ENDBRANCH  35  36
ENDBRANCH  18  35
ENDBRANCH  17  18
ENDBRANCH  16  17
ENDBRANCH  14  16
ENDBRANCH  13  14
ENDBRANCH  12  13
ENDBRANCH  11  12
ENDBRANCH  10  11
ENDBRANCH   9  10
ENDBRANCH   8   9
ENDBRANCH   7   8
ENDBRANCH   6   7
ENDBRANCH   5   6
ENDBRANCH   4   5
ENDBRANCH   3   4
ENDBRANCH   2   3
TORSDOF 36
ENDMDL
MODEL       85
REMARK 921   NORMALIZED FREE ENERGY PREDICTED BY IDOCK:    2.54 KCAL/MOL
REMARK 922        TOTAL FREE ENERGY PREDICTED BY IDOCK:    2.41 KCAL/MOL
REMARK 923 INTER-LIGAND FREE ENERGY PREDICTED BY IDOCK:   -4.09 KCAL/MOL
REMARK 924 INTRA-LIGAND FREE ENERGY PREDICTED BY IDOCK:    6.50 KCAL/MOL
REMARK 927      BINDING AFFINITY PREDICTED BY RF-SCORE:    0.00 PKD
ROOT
HETATM    1  C   UNL     1      -7.010   7.001  69.513  1.00  0.00    -0.062 C  
HETATM    2  C   UNL     1      -7.161   7.597  70.902  1.00  0.00    -0.054 C  
ENDROOT
BRANCH   2   3
HETATM    3  C   UNL     1      -7.358   9.110  70.838  1.00  0.00    -0.129 C  
BRANCH   3   4
HETATM    4  C   UNL     1      -8.794   9.499  71.187  1.00  0.00     0.218 C  
BRANCH   4   5
HETATM    5  C   UNL     1      -9.650   8.258  71.440  1.00  0.00    -0.231 C  
BRANCH   5   6
HETATM    6  C   UNL     1     -11.138   8.600  71.426  1.00  0.00    -0.343 C  
BRANCH   6   7
HETATM    7  C   UNL     1     -11.694   8.683  72.847  1.00  0.00     0.218 C  
BRANCH   7   8
HETATM    8  C   UNL     1     -10.933   7.749  73.789  1.00  0.00     0.843 C  
BRANCH   8   9
HETATM    9  C   UNL     1     -10.101   6.735  73.006  1.00  0.00    -0.212 C  
BRANCH   9  10
HETATM   10  C   UNL     1     -10.809   6.335  71.715  1.00  0.00    -0.294 C  
BRANCH  10  11
HETATM   11  C   UNL     1     -11.253   4.873  71.752  1.00  0.00     0.309 C  
BRANCH  11  12
HETATM   12  C   UNL     1     -10.188   3.995  72.415  1.00  0.00    -0.232 C  
BRANCH  12  13
HETATM   13  C   UNL     1     -10.041   2.636  71.735  1.00  0.00    -0.113 C  
BRANCH  13  14
HETATM   14  C   UNL     1      -8.598   2.228  71.590  1.00  0.00    -0.063 C  
HETATM   15  O   UNL     1      -8.016   1.476  72.360  1.00  0.00    -0.043 OA 
BRANCH  14  16
HETATM   16  O   UNL     1      -8.067   2.778  70.466  1.00  0.00    -0.042 OA 
BRANCH  16  17
HETATM   17  C   UNL     1      -8.433   2.133  69.237  1.00  0.00    -0.052 C  
BRANCH  17  18
HETATM   18  C   UNL     1      -9.462   2.958  68.464  1.00  0.00    -0.134 C  
BRANCH  18  19
HETATM   19  O   UNL     1      -9.267   2.777  67.045  1.00  0.00    -0.164 OA 
BRANCH  19  20
HETATM   20  C   UNL     1      -7.984   2.882  66.619  1.00  0.00    -0.077 C  
HETATM   21  O   UNL     1      -7.339   3.919  66.554  1.00  0.00    -0.070 OA 
BRANCH  20  22
HETATM   22  C   UNL     1      -7.457   1.517  66.249  1.00  0.00    -0.060 C  
BRANCH  22  23
HETATM   23  C   UNL     1      -5.945   1.477  66.450  1.00  0.00    -0.019 C  
BRANCH  23  24
HETATM   24  C   UNL     1      -5.187   1.916  65.201  1.00  0.00    -0.005 C  
BRANCH  24  25
HETATM   25  C   UNL     1      -5.904   3.082  64.521  1.00  0.00    -0.014 C  
BRANCH  25  26
HETATM   26  C   UNL     1      -5.844   2.968  63.000  1.00  0.00    -0.009 C  
BRANCH  26  27
HETATM   27  C   UNL     1      -6.272   4.275  62.334  1.00  0.00    -0.018 C  
BRANCH  27  28
HETATM   28  C   UNL     1      -5.680   5.481  63.062  1.00  0.00    -0.014 C  
BRANCH  28  29
HETATM   29  C   UNL     1      -6.730   6.180  63.924  1.00  0.00    -0.037 C  
BRANCH  29  30
HETATM   30  C   UNL     1      -7.254   7.439  63.233  1.00  0.00    -0.079 C  
BRANCH  30  31
HETATM   31  C   UNL     1      -6.109   8.286  62.679  1.00  0.00    -0.086 C  
BRANCH  31  32
HETATM   32  C   UNL     1      -6.246   9.744  63.117  1.00  0.00    -0.113 C  
BRANCH  32  33
HETATM   33  C   UNL     1      -7.682  10.069  63.523  1.00  0.00    -0.146 C  
HETATM   34  C   UNL     1      -8.449  10.708  62.376  1.00  0.00    -0.277 C  
ENDBRANCH  32  33
ENDBRANCH  31  32
ENDBRANCH  30  31
ENDBRANCH  29  30
ENDBRANCH  28  29
ENDBRANCH  27  28
ENDBRANCH  26  27
ENDBRANCH  25  26
ENDBRANCH  24  25
ENDBRANCH  23  24
ENDBRANCH  22  23
ENDBRANCH  20  22
ENDBRANCH  19  20
ENDBRANCH  18  19
BRANCH  18  35
HETATM   35  C   UNL     1      -9.236   4.433  68.750  1.00  0.00    -0.136 C  
BRANCH  35  36
HETATM   36  O   UNL     1      -8.845   5.120  67.552  1.00  0.00    -0.107 OA 
BRANCH  36  37
HETATM   37  P   UNL     1      -9.939   6.397  67.142  1.00  0.00    -0.193 P  
HETATM   38  O   UNL     1     -10.865   5.434  66.385  1.00  0.00    -0.284 OA 
HETATM   39  O   UNL     1     -10.169   6.754  68.610  1.00  0.00    -0.160 OA 
BRANCH  37  40
HETATM   40  O   UNL     1     -11.033   7.673  66.731  1.00  0.00    -0.183 OA 
BRANCH  40  41
HETATM   41  C   UNL     1     -10.726   8.846  67.463  1.00  0.00    -0.152 C  
BRANCH  41  42
HETATM   42  C   UNL     1     -10.111   9.878  66.534  1.00  0.00    -0.232 C  
BRANCH  42  43
HETATM   43  N   UNL     1     -10.416  11.351  66.896  1.00  0.00    -0.230 N  
HETATM   44  C   UNL     1     -11.202  11.357  68.190  1.00  0.00    -0.278 C  
HETATM   45  C   UNL     1     -11.259  12.017  65.798  1.00  0.00    -0.334 C  
HETATM   46  C   UNL     1      -9.131  12.150  67.054  1.00  0.00    -0.198 C  
ENDBRANCH  42  43
ENDBRANCH  41  42
ENDBRANCH  40  41
ENDBRANCH  37  40
ENDBRANCH  36  37
ENDBRANCH  35  36
ENDBRANCH  18  35
ENDBRANCH  17  18
ENDBRANCH  16  17
ENDBRANCH  14  16
ENDBRANCH  13  14
ENDBRANCH  12  13
ENDBRANCH  11  12
ENDBRANCH  10  11
ENDBRANCH   9  10
ENDBRANCH   8   9
ENDBRANCH   7   8
ENDBRANCH   6   7
ENDBRANCH   5   6
ENDBRANCH   4   5
ENDBRANCH   3   4
ENDBRANCH   2   3
TORSDOF 36
ENDMDL
MODEL       86
REMARK 921   NORMALIZED FREE ENERGY PREDICTED BY IDOCK:    2.63 KCAL/MOL
REMARK 922        TOTAL FREE ENERGY PREDICTED BY IDOCK:    2.66 KCAL/MOL
REMARK 923 INTER-LIGAND FREE ENERGY PREDICTED BY IDOCK:   -6.76 KCAL/MOL
REMARK 924 INTRA-LIGAND FREE ENERGY PREDICTED BY IDOCK:    9.43 KCAL/MOL
REMARK 927      BINDING AFFINITY PREDICTED BY RF-SCORE:    0.00 PKD
ROOT
HETATM    1  C   UNL     1     -10.515   4.992  69.286  1.00  0.00    -0.105 C  
HETATM    2  C   UNL     1      -9.981   5.551  70.595  1.00  0.00    -0.270 C  
ENDROOT
BRANCH   2   3
HETATM    3  C   UNL     1     -10.928   5.246  71.754  1.00  0.00    -0.143 C  
BRANCH   3   4
HETATM    4  C   UNL     1     -10.203   5.320  73.097  1.00  0.00    -0.213 C  
BRANCH   4   5
HETATM    5  C   UNL     1      -8.949   4.446  73.090  1.00  0.00    -0.120 C  
BRANCH   5   6
HETATM    6  C   UNL     1      -9.171   3.163  72.293  1.00  0.00    -0.157 C  
BRANCH   6   7
HETATM    7  C   UNL     1      -7.961   2.235  72.401  1.00  0.00    -0.054 C  
BRANCH   7   8
HETATM    8  C   UNL     1      -6.758   2.816  71.657  1.00  0.00    -0.023 C  
BRANCH   8   9
HETATM    9  C   UNL     1      -6.422   4.219  72.161  1.00  0.00    -0.022 C  
BRANCH   9  10
HETATM   10  C   UNL     1      -5.847   5.075  71.034  1.00  0.00    -0.017 C  
BRANCH  10  11
HETATM   11  C   UNL     1      -6.955   5.690  70.181  1.00  0.00    -0.065 C  
BRANCH  11  12
HETATM   12  C   UNL     1      -6.490   7.002  69.543  1.00  0.00    -0.043 C  
BRANCH  12  13
HETATM   13  C   UNL     1      -7.005   7.177  68.116  1.00  0.00    -0.076 C  
BRANCH  13  14
HETATM   14  C   UNL     1      -8.248   8.027  68.063  1.00  0.00    -0.129 C  
HETATM   15  O   UNL     1      -9.387   7.582  68.106  1.00  0.00    -0.137 OA 
BRANCH  14  16
HETATM   16  O   UNL     1      -7.912   9.343  68.008  1.00  0.00    -0.092 OA 
BRANCH  16  17
HETATM   17  C   UNL     1      -6.526   9.611  67.752  1.00  0.00    -0.058 C  
BRANCH  17  18
HETATM   18  C   UNL     1      -6.359  10.708  66.701  1.00  0.00    -0.091 C  
BRANCH  18  19
HETATM   19  O   UNL     1      -7.620  11.378  66.488  1.00  0.00    -0.142 OA 
BRANCH  19  20
HETATM   20  C   UNL     1      -8.527  10.685  65.757  1.00  0.00    -0.178 C  
HETATM   21  O   UNL     1      -8.883   9.535  65.970  1.00  0.00    -0.143 OA 
BRANCH  20  22
HETATM   22  C   UNL     1      -9.050  11.554  64.639  1.00  0.00     0.140 C  
BRANCH  22  23
HETATM   23  C   UNL     1     -10.576  11.583  64.682  1.00  0.00    -0.369 C  
BRANCH  23  24
HETATM   24  C   UNL     1     -11.168  12.398  63.535  1.00  0.00    -0.540 C  
BRANCH  24  25
HETATM   25  C   UNL     1     -12.614  12.786  63.845  1.00  0.00    -0.380 C  
BRANCH  25  26
HETATM   26  C   UNL     1     -12.704  13.664  65.090  1.00  0.00    -0.443 C  
BRANCH  26  27
HETATM   27  C   UNL     1     -11.722  13.197  66.163  1.00  0.00    -0.428 C  
BRANCH  27  28
HETATM   28  C   UNL     1     -11.177  14.380  66.961  1.00  0.00    -0.336 C  
BRANCH  28  29
HETATM   29  C   UNL     1     -11.185  15.662  66.128  1.00  0.00    -0.036 C  
BRANCH  29  30
HETATM   30  C   UNL     1      -9.879  16.435  66.304  1.00  0.00    -0.336 C  
BRANCH  30  31
HETATM   31  C   UNL     1      -9.243  16.151  67.664  1.00  0.00    -0.205 C  
BRANCH  31  32
HETATM   32  C   UNL     1      -8.039  17.061  67.906  1.00  0.00    -0.196 C  
BRANCH  32  33
HETATM   33  C   UNL     1      -8.477  18.495  68.199  1.00  0.00    -0.317 C  
HETATM   34  C   UNL     1      -9.931  18.548  68.641  1.00  0.00    -0.419 C  
ENDBRANCH  32  33
ENDBRANCH  31  32
ENDBRANCH  30  31
ENDBRANCH  29  30
ENDBRANCH  28  29
ENDBRANCH  27  28
ENDBRANCH  26  27
ENDBRANCH  25  26
ENDBRANCH  24  25
ENDBRANCH  23  24
ENDBRANCH  22  23
ENDBRANCH  20  22
ENDBRANCH  19  20
ENDBRANCH  18  19
BRANCH  18  35
HETATM   35  C   UNL     1      -5.973  10.073  65.375  1.00  0.00    -0.090 C  
BRANCH  35  36
HETATM   36  O   UNL     1      -7.066   9.303  64.853  1.00  0.00    -0.097 OA 
BRANCH  36  37
HETATM   37  P   UNL     1      -6.542   7.809  64.155  1.00  0.00    -0.058 P  
HETATM   38  O   UNL     1      -5.173   7.904  64.844  1.00  0.00    -0.029 OA 
HETATM   39  O   UNL     1      -7.708   7.040  64.775  1.00  0.00    -0.101 OA 
BRANCH  37  40
HETATM   40  O   UNL     1      -6.018   6.315  63.457  1.00  0.00    -0.022 OA 
BRANCH  40  41
HETATM   41  C   UNL     1      -6.862   5.945  62.383  1.00  0.00    -0.040 C  
BRANCH  41  42
HETATM   42  C   UNL     1      -7.400   4.545  62.618  1.00  0.00    -0.040 C  
BRANCH  42  43
HETATM   43  N   UNL     1      -6.775   3.795  63.820  1.00  0.00    -0.042 N  
HETATM   44  C   UNL     1      -7.874   3.542  64.830  1.00  0.00    -0.082 C  
HETATM   45  C   UNL     1      -5.678   4.646  64.478  1.00  0.00    -0.014 C  
HETATM   46  C   UNL     1      -6.151   2.481  63.376  1.00  0.00    -0.010 C  
ENDBRANCH  42  43
ENDBRANCH  41  42
ENDBRANCH  40  41
ENDBRANCH  37  40
ENDBRANCH  36  37
ENDBRANCH  35  36
ENDBRANCH  18  35
ENDBRANCH  17  18
ENDBRANCH  16  17
ENDBRANCH  14  16
ENDBRANCH  13  14
ENDBRANCH  12  13
ENDBRANCH  11  12
ENDBRANCH  10  11
ENDBRANCH   9  10
ENDBRANCH   8   9
ENDBRANCH   7   8
ENDBRANCH   6   7
ENDBRANCH   5   6
ENDBRANCH   4   5
ENDBRANCH   3   4
ENDBRANCH   2   3
TORSDOF 36
ENDMDL
MODEL       87
REMARK 921   NORMALIZED FREE ENERGY PREDICTED BY IDOCK:    4.93 KCAL/MOL
REMARK 922        TOTAL FREE ENERGY PREDICTED BY IDOCK:    9.82 KCAL/MOL
REMARK 923 INTER-LIGAND FREE ENERGY PREDICTED BY IDOCK:    5.07 KCAL/MOL
REMARK 924 INTRA-LIGAND FREE ENERGY PREDICTED BY IDOCK:    4.76 KCAL/MOL
REMARK 927      BINDING AFFINITY PREDICTED BY RF-SCORE:    0.00 PKD
ROOT
HETATM    1  C   UNL     1      -9.893  15.863  64.546  1.00  0.00     1.939 C  
HETATM    2  C   UNL     1     -10.872  15.162  65.472  1.00  0.00    -0.373 C  
ENDROOT
BRANCH   2   3
HETATM    3  C   UNL     1     -11.354  13.842  64.873  1.00  0.00    -0.349 C  
BRANCH   3   4
HETATM    4  C   UNL     1     -10.376  13.319  63.822  1.00  0.00     0.384 C  
BRANCH   4   5
HETATM    5  C   UNL     1     -10.799  11.938  63.322  1.00  0.00    -0.408 C  
BRANCH   5   6
HETATM    6  C   UNL     1     -12.259  11.649  63.659  1.00  0.00    -0.348 C  
BRANCH   6   7
HETATM    7  C   UNL     1     -12.377  10.444  64.592  1.00  0.00     5.692 C  
BRANCH   7   8
HETATM    8  C   UNL     1     -11.098  10.256  65.410  1.00  0.00     0.865 C  
BRANCH   8   9
HETATM    9  C   UNL     1     -11.329  10.595  66.882  1.00  0.00     0.102 C  
BRANCH   9  10
HETATM   10  C   UNL     1     -12.304  11.761  67.022  1.00  0.00     1.145 C  
BRANCH  10  11
HETATM   11  C   UNL     1     -12.057  12.541  68.312  1.00  0.00    -0.123 C  
BRANCH  11  12
HETATM   12  C   UNL     1     -11.228  11.716  69.300  1.00  0.00    -0.328 C  
BRANCH  12  13
HETATM   13  C   UNL     1      -9.738  11.729  68.971  1.00  0.00     0.114 C  
BRANCH  13  14
HETATM   14  C   UNL     1      -9.439  12.528  67.729  1.00  0.00    -0.197 C  
HETATM   15  O   UNL     1     -10.102  13.485  67.351  1.00  0.00    -0.233 OA 
BRANCH  14  16
HETATM   16  O   UNL     1      -8.312  12.058  67.130  1.00  0.00    -0.167 OA 
BRANCH  16  17
HETATM   17  C   UNL     1      -7.357  11.452  68.012  1.00  0.00    -0.090 C  
BRANCH  17  18
HETATM   18  C   UNL     1      -7.138  12.306  69.262  1.00  0.00     0.061 C  
BRANCH  18  19
HETATM   19  O   UNL     1      -7.575  13.659  69.012  1.00  0.00    -0.064 OA 
BRANCH  19  20
HETATM   20  C   UNL     1      -7.463  14.506  70.065  1.00  0.00     0.290 C  
HETATM   21  O   UNL     1      -6.420  14.808  70.628  1.00  0.00    -0.123 OA 
BRANCH  20  22
HETATM   22  C   UNL     1      -8.825  15.042  70.434  1.00  0.00     1.113 C  
BRANCH  22  23
HETATM   23  C   UNL     1      -9.335  15.958  69.325  1.00  0.00    -0.259 C  
BRANCH  23  24
HETATM   24  C   UNL     1     -10.354  16.971  69.840  1.00  0.00     0.154 C  
BRANCH  24  25
HETATM   25  C   UNL     1     -10.437  18.173  68.897  1.00  0.00    -0.080 C  
BRANCH  25  26
HETATM   26  C   UNL     1      -9.051  18.713  68.555  1.00  0.00    -0.358 C  
BRANCH  26  27
HETATM   27  C   UNL     1      -9.151  20.006  67.746  1.00  0.00    -0.416 C  
BRANCH  27  28
HETATM   28  C   UNL     1      -8.312  19.921  66.472  1.00  0.00    -0.372 C  
BRANCH  28  29
HETATM   29  C   UNL     1      -6.904  19.405  66.767  1.00  0.00    -0.206 C  
BRANCH  29  30
HETATM   30  C   UNL     1      -6.592  18.162  65.935  1.00  0.00    -0.316 C  
BRANCH  30  31
HETATM   31  C   UNL     1      -5.173  18.213  65.371  1.00  0.00    -0.201 C  
BRANCH  31  32
HETATM   32  C   UNL     1      -5.161  18.832  63.974  1.00  0.00    -0.200 C  
BRANCH  32  33
HETATM   33  C   UNL     1      -6.212  19.933  63.846  1.00  0.00    -0.071 C  
HETATM   34  C   UNL     1      -6.305  20.443  62.416  1.00  0.00     0.120 C  
ENDBRANCH  32  33
ENDBRANCH  31  32
ENDBRANCH  30  31
ENDBRANCH  29  30
ENDBRANCH  28  29
ENDBRANCH  27  28
ENDBRANCH  26  27
ENDBRANCH  25  26
ENDBRANCH  24  25
ENDBRANCH  23  24
ENDBRANCH  22  23
ENDBRANCH  20  22
ENDBRANCH  19  20
ENDBRANCH  18  19
BRANCH  18  35
HETATM   35  C   UNL     1      -5.650  12.376  69.563  1.00  0.00    -0.088 C  
BRANCH  35  36
HETATM   36  O   UNL     1      -5.134  11.067  69.844  1.00  0.00    -0.041 OA 
BRANCH  36  37
HETATM   37  P   UNL     1      -6.048  10.250  71.065  1.00  0.00     0.190 P  
HETATM   38  O   UNL     1      -5.397   8.901  70.727  1.00  0.00    -0.027 OA 
HETATM   39  O   UNL     1      -5.503  11.158  72.167  1.00  0.00    -0.273 OA 
BRANCH  37  40
HETATM   40  O   UNL     1      -6.961   9.433  72.286  1.00  0.00    -0.215 OA 
BRANCH  40  41
HETATM   41  C   UNL     1      -7.794   8.445  71.707  1.00  0.00    -0.126 C  
BRANCH  41  42
HETATM   42  C   UNL     1      -9.212   8.979  71.595  1.00  0.00    -0.153 C  
BRANCH  42  43
HETATM   43  N   UNL     1     -10.269   7.942  71.143  1.00  0.00    -0.195 N  
HETATM   44  C   UNL     1      -9.622   6.574  71.183  1.00  0.00    -0.171 C  
HETATM   45  C   UNL     1     -10.735   8.232  69.708  1.00  0.00    -0.221 C  
HETATM   46  C   UNL     1     -11.488   7.977  72.052  1.00  0.00    -0.309 C  
ENDBRANCH  42  43
ENDBRANCH  41  42
ENDBRANCH  40  41
ENDBRANCH  37  40
ENDBRANCH  36  37
ENDBRANCH  35  36
ENDBRANCH  18  35
ENDBRANCH  17  18
ENDBRANCH  16  17
ENDBRANCH  14  16
ENDBRANCH  13  14
ENDBRANCH  12  13
ENDBRANCH  11  12
ENDBRANCH  10  11
ENDBRANCH   9  10
ENDBRANCH   8   9
ENDBRANCH   7   8
ENDBRANCH   6   7
ENDBRANCH   5   6
ENDBRANCH   4   5
ENDBRANCH   3   4
ENDBRANCH   2   3
TORSDOF 36
ENDMDL
MODEL       88
REMARK 921   NORMALIZED FREE ENERGY PREDICTED BY IDOCK:    6.47 KCAL/MOL
REMARK 922        TOTAL FREE ENERGY PREDICTED BY IDOCK:   14.59 KCAL/MOL
REMARK 923 INTER-LIGAND FREE ENERGY PREDICTED BY IDOCK:    2.48 KCAL/MOL
REMARK 924 INTRA-LIGAND FREE ENERGY PREDICTED BY IDOCK:   12.11 KCAL/MOL
REMARK 927      BINDING AFFINITY PREDICTED BY RF-SCORE:    0.00 PKD
ROOT
HETATM    1  C   UNL     1      -5.689   6.340  68.322  1.00  0.00    -0.012 C  
HETATM    2  C   UNL     1      -5.584   7.370  69.434  1.00  0.00    -0.023 C  
ENDROOT
BRANCH   2   3
HETATM    3  C   UNL     1      -5.284   8.760  68.876  1.00  0.00    -0.033 C  
BRANCH   3   4
HETATM    4  C   UNL     1      -6.562   9.578  68.702  1.00  0.00    -0.052 C  
BRANCH   4   5
HETATM    5  C   UNL     1      -7.771   8.829  69.262  1.00  0.00    -0.095 C  
BRANCH   5   6
HETATM    6  C   UNL     1      -9.070   9.576  68.968  1.00  0.00    -0.144 C  
BRANCH   6   7
HETATM    7  C   UNL     1      -9.394  10.570  70.084  1.00  0.00     0.563 C  
BRANCH   7   8
HETATM    8  C   UNL     1      -8.791  10.117  71.414  1.00  0.00     2.761 C  
BRANCH   8   9
HETATM    9  C   UNL     1      -8.275   8.681  71.326  1.00  0.00    -0.194 C  
BRANCH   9  10
HETATM   10  C   UNL     1      -9.043   7.894  70.266  1.00  0.00    -0.152 C  
BRANCH  10  11
HETATM   11  C   UNL     1     -10.085   6.975  70.901  1.00  0.00    -0.204 C  
BRANCH  11  12
HETATM   12  C   UNL     1      -9.470   6.156  72.039  1.00  0.00    -0.161 C  
BRANCH  12  13
HETATM   13  C   UNL     1     -10.047   4.745  72.125  1.00  0.00    -0.252 C  
BRANCH  13  14
HETATM   14  C   UNL     1      -8.986   3.688  71.955  1.00  0.00    -0.105 C  
HETATM   15  O   UNL     1      -8.518   3.030  72.875  1.00  0.00    -0.077 OA 
BRANCH  14  16
HETATM   16  O   UNL     1      -8.671   3.549  70.640  1.00  0.00    -0.068 OA 
BRANCH  16  17
HETATM   17  C   UNL     1      -9.534   2.680  69.892  1.00  0.00    -0.081 C  
BRANCH  17  18
HETATM   18  C   UNL     1     -10.388   3.468  68.898  1.00  0.00     1.423 C  
BRANCH  18  19
HETATM   19  O   UNL     1     -10.284   2.874  67.586  1.00  0.00     0.885 OA 
BRANCH  19  20
HETATM   20  C   UNL     1      -9.025   2.775  67.094  1.00  0.00    -0.159 C  
HETATM   21  O   UNL     1      -8.480   3.591  66.365  1.00  0.00    -0.103 OA 
BRANCH  20  22
HETATM   22  C   UNL     1      -8.381   1.505  67.595  1.00  0.00    -0.078 C  
BRANCH  22  23
HETATM   23  C   UNL     1      -7.128   1.845  68.396  1.00  0.00    -0.039 C  
BRANCH  23  24
HETATM   24  C   UNL     1      -5.914   2.066  67.498  1.00  0.00    -0.020 C  
BRANCH  24  25
HETATM   25  C   UNL     1      -6.343   2.167  66.034  1.00  0.00    -0.024 C  
BRANCH  25  26
HETATM   26  C   UNL     1      -5.183   1.871  65.088  1.00  0.00    -0.005 C  
BRANCH  26  27
HETATM   27  C   UNL     1      -5.491   2.355  63.672  1.00  0.00    -0.009 C  
BRANCH  27  28
HETATM   28  C   UNL     1      -5.612   3.877  63.627  1.00  0.00    -0.013 C  
BRANCH  28  29
HETATM   29  C   UNL     1      -7.067   4.323  63.763  1.00  0.00    -0.046 C  
BRANCH  29  30
HETATM   30  C   UNL     1      -7.460   5.260  62.622  1.00  0.00    -0.048 C  
BRANCH  30  31
HETATM   31  C   UNL     1      -6.612   6.531  62.628  1.00  0.00    -0.034 C  
BRANCH  31  32
HETATM   32  C   UNL     1      -7.403   7.714  63.186  1.00  0.00    -0.097 C  
BRANCH  32  33
HETATM   33  C   UNL     1      -6.510   8.639  64.011  1.00  0.00    -0.072 C  
HETATM   34  C   UNL     1      -6.637   8.347  65.498  1.00  0.00    -0.055 C  
ENDBRANCH  32  33
ENDBRANCH  31  32
ENDBRANCH  30  31
ENDBRANCH  29  30
ENDBRANCH  28  29
ENDBRANCH  27  28
ENDBRANCH  26  27
ENDBRANCH  25  26
ENDBRANCH  24  25
ENDBRANCH  23  24
ENDBRANCH  22  23
ENDBRANCH  20  22
ENDBRANCH  19  20
ENDBRANCH  18  19
BRANCH  18  35
HETATM   35  C   UNL     1      -9.841   4.881  68.782  1.00  0.00    -0.161 C  
BRANCH  35  36
HETATM   36  O   UNL     1      -9.213   5.070  67.506  1.00  0.00    -0.114 OA 
BRANCH  36  37
HETATM   37  P   UNL     1      -9.866   6.422  66.647  1.00  0.00    -0.084 P  
HETATM   38  O   UNL     1     -10.019   5.600  65.359  1.00  0.00     0.269 OA 
HETATM   39  O   UNL     1     -11.011   6.582  67.646  1.00  0.00    -0.304 OA 
BRANCH  37  40
HETATM   40  O   UNL     1     -10.519   7.774  65.787  1.00  0.00     1.147 OA 
BRANCH  40  41
HETATM   41  C   UNL     1     -10.067   8.990  66.355  1.00  0.00    -0.281 C  
BRANCH  41  42
HETATM   42  C   UNL     1      -9.774   9.989  65.249  1.00  0.00    -0.306 C  
BRANCH  42  43
HETATM   43  N   UNL     1     -10.044  11.469  65.615  1.00  0.00    -0.226 N  
HETATM   44  C   UNL     1     -11.192  11.501  66.601  1.00  0.00    -0.271 C  
HETATM   45  C   UNL     1     -10.436  12.274  64.366  1.00  0.00    -0.325 C  
HETATM   46  C   UNL     1      -8.807  12.113  66.222  1.00  0.00    -0.040 C  
ENDBRANCH  42  43
ENDBRANCH  41  42
ENDBRANCH  40  41
ENDBRANCH  37  40
ENDBRANCH  36  37
ENDBRANCH  35  36
ENDBRANCH  18  35
ENDBRANCH  17  18
ENDBRANCH  16  17
ENDBRANCH  14  16
ENDBRANCH  13  14
ENDBRANCH  12  13
ENDBRANCH  11  12
ENDBRANCH  10  11
ENDBRANCH   9  10
ENDBRANCH   8   9
ENDBRANCH   7   8
ENDBRANCH   6   7
ENDBRANCH   5   6
ENDBRANCH   4   5
ENDBRANCH   3   4
ENDBRANCH   2   3
TORSDOF 36
ENDMDL
MODEL       89
REMARK 921   NORMALIZED FREE ENERGY PREDICTED BY IDOCK:    7.40 KCAL/MOL
REMARK 922        TOTAL FREE ENERGY PREDICTED BY IDOCK:   17.49 KCAL/MOL
REMARK 923 INTER-LIGAND FREE ENERGY PREDICTED BY IDOCK:    9.76 KCAL/MOL
REMARK 924 INTRA-LIGAND FREE ENERGY PREDICTED BY IDOCK:    7.73 KCAL/MOL
REMARK 927      BINDING AFFINITY PREDICTED BY RF-SCORE:    0.00 PKD
ROOT
HETATM    1  C   UNL     1      -9.893  15.863  64.546  1.00  0.00     1.939 C  
HETATM    2  C   UNL     1     -10.882  15.180  65.475  1.00  0.00    -0.373 C  
ENDROOT
BRANCH   2   3
HETATM    3  C   UNL     1     -11.383  13.865  64.881  1.00  0.00    -0.349 C  
BRANCH   3   4
HETATM    4  C   UNL     1     -10.414  13.324  63.832  1.00  0.00     0.014 C  
BRANCH   4   5
HETATM    5  C   UNL     1     -10.857  11.947  63.337  1.00  0.00    -0.469 C  
BRANCH   5   6
HETATM    6  C   UNL     1     -12.321  11.681  63.677  1.00  0.00    -0.338 C  
BRANCH   6   7
HETATM    7  C   UNL     1     -12.463  10.426  64.539  1.00  0.00     6.102 C  
BRANCH   7   8
HETATM    8  C   UNL     1     -11.181  10.155  65.327  1.00  0.00     1.627 C  
BRANCH   8   9
HETATM    9  C   UNL     1     -11.385  10.412  66.819  1.00  0.00     0.362 C  
BRANCH   9  10
HETATM   10  C   UNL     1     -12.324  11.595  67.041  1.00  0.00     1.339 C  
BRANCH  10  11
HETATM   11  C   UNL     1     -12.039  12.291  68.371  1.00  0.00    -0.107 C  
BRANCH  11  12
HETATM   12  C   UNL     1     -11.223  11.386  69.298  1.00  0.00    -0.342 C  
BRANCH  12  13
HETATM   13  C   UNL     1      -9.736  11.375  68.949  1.00  0.00    -0.105 C  
BRANCH  13  14
HETATM   14  C   UNL     1      -9.429  12.237  67.753  1.00  0.00    -0.197 C  
HETATM   15  O   UNL     1     -10.068  13.234  67.441  1.00  0.00    -0.229 OA 
BRANCH  14  16
HETATM   16  O   UNL     1      -8.324  11.771  67.112  1.00  0.00    -0.154 OA 
BRANCH  16  17
HETATM   17  C   UNL     1      -7.376  11.087  67.945  1.00  0.00    -0.092 C  
BRANCH  17  18
HETATM   18  C   UNL     1      -7.169  11.823  69.269  1.00  0.00     0.009 C  
BRANCH  18  19
HETATM   19  O   UNL     1      -7.604  13.194  69.139  1.00  0.00     0.060 OA 
BRANCH  19  20
HETATM   20  C   UNL     1      -7.502  13.942  70.266  1.00  0.00     1.208 C  
HETATM   21  O   UNL     1      -6.465  14.191  70.864  1.00  0.00    -0.073 OA 
BRANCH  20  22
HETATM   22  C   UNL     1      -8.868  14.442  70.669  1.00  0.00     2.796 C  
BRANCH  22  23
HETATM   23  C   UNL     1      -9.372  15.449  69.638  1.00  0.00    -0.208 C  
BRANCH  23  24
HETATM   24  C   UNL     1     -10.396  16.414  70.230  1.00  0.00     0.250 C  
BRANCH  24  25
HETATM   25  C   UNL     1     -10.475  17.690  69.392  1.00  0.00     0.078 C  
BRANCH  25  26
HETATM   26  C   UNL     1      -9.088  18.260  69.107  1.00  0.00     0.063 C  
BRANCH  26  27
HETATM   27  C   UNL     1      -9.185  19.616  68.409  1.00  0.00    -0.404 C  
BRANCH  27  28
HETATM   28  C   UNL     1      -8.337  19.641  67.139  1.00  0.00    -0.334 C  
BRANCH  28  29
HETATM   29  C   UNL     1      -6.930  19.104  67.400  1.00  0.00    -0.223 C  
BRANCH  29  30
HETATM   30  C   UNL     1      -6.598  17.958  66.445  1.00  0.00    -0.267 C  
BRANCH  30  31
HETATM   31  C   UNL     1      -5.241  18.169  65.774  1.00  0.00    -0.226 C  
BRANCH  31  32
HETATM   32  C   UNL     1      -5.399  18.891  64.436  1.00  0.00    -0.264 C  
BRANCH  32  33
HETATM   33  C   UNL     1      -5.302  20.406  64.608  1.00  0.00    -0.216 C  
HETATM   34  C   UNL     1      -5.159  21.106  63.266  1.00  0.00    -0.240 C  
ENDBRANCH  32  33
ENDBRANCH  31  32
ENDBRANCH  30  31
ENDBRANCH  29  30
ENDBRANCH  28  29
ENDBRANCH  27  28
ENDBRANCH  26  27
ENDBRANCH  25  26
ENDBRANCH  24  25
ENDBRANCH  23  24
ENDBRANCH  22  23
ENDBRANCH  20  22
ENDBRANCH  19  20
ENDBRANCH  18  19
BRANCH  18  35
HETATM   35  C   UNL     1      -5.684  11.866  69.589  1.00  0.00    -0.093 C  
BRANCH  35  36
HETATM   36  O   UNL     1      -5.196  10.546  69.870  1.00  0.00    -0.038 OA 
BRANCH  36  37
HETATM   37  P   UNL     1      -6.326   9.317  69.416  1.00  0.00    -0.045 P  
HETATM   38  O   UNL     1      -5.273   8.212  69.578  1.00  0.00    -0.025 OA 
HETATM   39  O   UNL     1      -7.284   9.695  70.546  1.00  0.00    -0.126 OA 
BRANCH  37  40
HETATM   40  O   UNL     1      -7.456   8.089  68.962  1.00  0.00    -0.088 OA 
BRANCH  40  41
HETATM   41  C   UNL     1      -6.829   7.110  68.153  1.00  0.00    -0.074 C  
BRANCH  41  42
HETATM   42  C   UNL     1      -6.177   7.782  66.957  1.00  0.00    -0.053 C  
BRANCH  42  43
HETATM   43  N   UNL     1      -7.080   7.915  65.707  1.00  0.00    -0.060 N  
HETATM   44  C   UNL     1      -6.644   6.866  64.707  1.00  0.00    -0.043 C  
HETATM   45  C   UNL     1      -6.925   9.305  65.071  1.00  0.00    -0.086 C  
HETATM   46  C   UNL     1      -8.544   7.723  66.071  1.00  0.00    -0.151 C  
ENDBRANCH  42  43
ENDBRANCH  41  42
ENDBRANCH  40  41
ENDBRANCH  37  40
ENDBRANCH  36  37
ENDBRANCH  35  36
ENDBRANCH  18  35
ENDBRANCH  17  18
ENDBRANCH  16  17
ENDBRANCH  14  16
ENDBRANCH  13  14
ENDBRANCH  12  13
ENDBRANCH  11  12
ENDBRANCH  10  11
ENDBRANCH   9  10
ENDBRANCH   8   9
ENDBRANCH   7   8
ENDBRANCH   6   7
ENDBRANCH   5   6
ENDBRANCH   4   5
ENDBRANCH   3   4
ENDBRANCH   2   3
TORSDOF 36
ENDMDL
MODEL       90
REMARK 921   NORMALIZED FREE ENERGY PREDICTED BY IDOCK:    7.52 KCAL/MOL
REMARK 922        TOTAL FREE ENERGY PREDICTED BY IDOCK:   17.86 KCAL/MOL
REMARK 923 INTER-LIGAND FREE ENERGY PREDICTED BY IDOCK:   -0.00 KCAL/MOL
REMARK 924 INTRA-LIGAND FREE ENERGY PREDICTED BY IDOCK:   17.86 KCAL/MOL
REMARK 927      BINDING AFFINITY PREDICTED BY RF-SCORE:    0.00 PKD
ROOT
HETATM    1  C   UNL     1     -10.751   4.636  70.216  1.00  0.00     0.572 C  
HETATM    2  C   UNL     1     -11.784   5.616  69.689  1.00  0.00     1.457 C  
ENDROOT
BRANCH   2   3
HETATM    3  C   UNL     1     -11.123   6.765  68.931  1.00  0.00    -0.243 C  
BRANCH   3   4
HETATM    4  C   UNL     1     -10.045   7.441  69.777  1.00  0.00    -0.193 C  
BRANCH   4   5
HETATM    5  C   UNL     1     -10.280   7.189  71.266  1.00  0.00    -0.199 C  
BRANCH   5   6
HETATM    6  C   UNL     1      -9.947   5.748  71.643  1.00  0.00    -0.218 C  
BRANCH   6   7
HETATM    7  C   UNL     1      -8.676   5.685  72.492  1.00  0.00    -0.124 C  
BRANCH   7   8
HETATM    8  C   UNL     1      -7.499   6.336  71.765  1.00  0.00    -0.094 C  
BRANCH   8   9
HETATM    9  C   UNL     1      -7.967   7.492  70.882  1.00  0.00    -0.096 C  
BRANCH   9  10
HETATM   10  C   UNL     1      -6.774   8.286  70.353  1.00  0.00    -0.036 C  
BRANCH  10  11
HETATM   11  C   UNL     1      -6.763   9.709  70.907  1.00  0.00    -0.063 C  
BRANCH  11  12
HETATM   12  C   UNL     1      -5.887  10.624  70.046  1.00  0.00    -0.076 C  
BRANCH  12  13
HETATM   13  C   UNL     1      -6.659  11.265  68.896  1.00  0.00    -0.068 C  
BRANCH  13  14
HETATM   14  C   UNL     1      -5.751  11.695  67.773  1.00  0.00    -0.053 C  
HETATM   15  O   UNL     1      -5.227  10.924  66.980  1.00  0.00    -0.042 OA 
BRANCH  14  16
HETATM   16  O   UNL     1      -5.645  13.050  67.750  1.00  0.00    -0.113 OA 
BRANCH  16  17
HETATM   17  C   UNL     1      -5.656  13.687  69.036  1.00  0.00    -0.074 C  
BRANCH  17  18
HETATM   18  C   UNL     1      -7.044  13.627  69.672  1.00  0.00     0.243 C  
BRANCH  18  19
HETATM   19  O   UNL     1      -7.927  12.836  68.847  1.00  0.00     0.016 OA 
BRANCH  19  20
HETATM   20  C   UNL     1      -8.883  13.535  68.186  1.00  0.00    -0.179 C  
HETATM   21  O   UNL     1      -9.776  14.185  68.708  1.00  0.00    -0.215 OA 
BRANCH  20  22
HETATM   22  C   UNL     1      -8.670  13.404  66.698  1.00  0.00    -0.014 C  
BRANCH  22  23
HETATM   23  C   UNL     1      -8.041  12.049  66.385  1.00  0.00     0.150 C  
BRANCH  23  24
HETATM   24  C   UNL     1      -8.995  11.136  65.618  1.00  0.00    -0.195 C  
BRANCH  24  25
HETATM   25  C   UNL     1      -9.356  11.754  64.267  1.00  0.00     0.117 C  
BRANCH  25  26
HETATM   26  C   UNL     1      -9.395  10.701  63.163  1.00  0.00    -0.335 C  
BRANCH  26  27
HETATM   27  C   UNL     1      -9.073   9.313  63.715  1.00  0.00     0.027 C  
BRANCH  27  28
HETATM   28  C   UNL     1      -9.208   9.283  65.236  1.00  0.00    -0.275 C  
BRANCH  28  29
HETATM   29  C   UNL     1      -9.900   8.005  65.707  1.00  0.00     0.435 C  
BRANCH  29  30
HETATM   30  C   UNL     1      -8.874   6.932  66.072  1.00  0.00    -0.154 C  
BRANCH  30  31
HETATM   31  C   UNL     1      -9.545   5.580  66.314  1.00  0.00    -0.173 C  
BRANCH  31  32
HETATM   32  C   UNL     1     -10.840   5.461  65.511  1.00  0.00     0.558 C  
BRANCH  32  33
HETATM   33  C   UNL     1     -10.587   4.841  64.137  1.00  0.00     0.701 C  
HETATM   34  C   UNL     1      -9.417   3.871  64.178  1.00  0.00    -0.159 C  
ENDBRANCH  32  33
ENDBRANCH  31  32
ENDBRANCH  30  31
ENDBRANCH  29  30
ENDBRANCH  28  29
ENDBRANCH  27  28
ENDBRANCH  26  27
ENDBRANCH  25  26
ENDBRANCH  24  25
ENDBRANCH  23  24
ENDBRANCH  22  23
ENDBRANCH  20  22
ENDBRANCH  19  20
ENDBRANCH  18  19
BRANCH  18  35
HETATM   35  C   UNL     1      -7.632  15.027  69.720  1.00  0.00    -0.072 C  
BRANCH  35  36
HETATM   36  O   UNL     1      -7.002  15.867  68.743  1.00  0.00    -0.119 OA 
BRANCH  36  37
HETATM   37  P   UNL     1      -7.855  17.355  68.508  1.00  0.00    -0.261 P  
HETATM   38  O   UNL     1      -9.153  16.763  69.074  1.00  0.00    -0.256 OA 
HETATM   39  O   UNL     1      -6.870  18.129  69.383  1.00  0.00    -0.223 OA 
BRANCH  37  40
HETATM   40  O   UNL     1      -8.708  18.842  68.273  1.00  0.00    -0.311 OA 
BRANCH  40  41
HETATM   41  C   UNL     1      -8.121  19.591  67.226  1.00  0.00    -0.274 C  
BRANCH  41  42
HETATM   42  C   UNL     1      -9.212  20.249  66.398  1.00  0.00    -0.235 C  
BRANCH  42  43
HETATM   43  N   UNL     1     -10.601  19.571  66.487  1.00  0.00    -0.468 N  
HETATM   44  C   UNL     1     -11.494  20.206  65.443  1.00  0.00     1.159 C  
HETATM   45  C   UNL     1     -11.223  19.789  67.875  1.00  0.00     0.507 C  
HETATM   46  C   UNL     1     -10.491  18.073  66.250  1.00  0.00    -0.335 C  
ENDBRANCH  42  43
ENDBRANCH  41  42
ENDBRANCH  40  41
ENDBRANCH  37  40
ENDBRANCH  36  37
ENDBRANCH  35  36
ENDBRANCH  18  35
ENDBRANCH  17  18
ENDBRANCH  16  17
ENDBRANCH  14  16
ENDBRANCH  13  14
ENDBRANCH  12  13
ENDBRANCH  11  12
ENDBRANCH  10  11
ENDBRANCH   9  10
ENDBRANCH   8   9
ENDBRANCH   7   8
ENDBRANCH   6   7
ENDBRANCH   5   6
ENDBRANCH   4   5
ENDBRANCH   3   4
ENDBRANCH   2   3
TORSDOF 36
ENDMDL
MODEL       91
REMARK 921   NORMALIZED FREE ENERGY PREDICTED BY IDOCK:   12.26 KCAL/MOL
REMARK 922        TOTAL FREE ENERGY PREDICTED BY IDOCK:   32.58 KCAL/MOL
REMARK 923 INTER-LIGAND FREE ENERGY PREDICTED BY IDOCK:    3.14 KCAL/MOL
REMARK 924 INTRA-LIGAND FREE ENERGY PREDICTED BY IDOCK:   29.43 KCAL/MOL
REMARK 927      BINDING AFFINITY PREDICTED BY RF-SCORE:    0.00 PKD
ROOT
HETATM    1  C   UNL     1     -10.871   4.602  70.194  1.00  0.00     0.989 C  
HETATM    2  C   UNL     1     -12.096   5.337  69.676  1.00  0.00     5.220 C  
ENDROOT
BRANCH   2   3
HETATM    3  C   UNL     1     -11.700   6.559  68.850  1.00  0.00     0.280 C  
BRANCH   3   4
HETATM    4  C   UNL     1     -10.713   7.446  69.606  1.00  0.00    -0.245 C  
BRANCH   4   5
HETATM    5  C   UNL     1     -10.770   7.171  71.108  1.00  0.00    -0.252 C  
BRANCH   5   6
HETATM    6  C   UNL     1     -10.534   5.693  71.410  1.00  0.00    -0.300 C  
BRANCH   6   7
HETATM    7  C   UNL     1      -9.160   5.476  72.042  1.00  0.00    -0.150 C  
BRANCH   7   8
HETATM    8  C   UNL     1      -8.063   6.146  71.214  1.00  0.00    -0.118 C  
BRANCH   8   9
HETATM    9  C   UNL     1      -8.564   7.444  70.582  1.00  0.00    -0.141 C  
BRANCH   9  10
HETATM   10  C   UNL     1      -7.403   8.242  69.993  1.00  0.00    -0.063 C  
BRANCH  10  11
HETATM   11  C   UNL     1      -7.196   9.559  70.739  1.00  0.00    -0.105 C  
BRANCH  11  12
HETATM   12  C   UNL     1      -6.207  10.459  69.994  1.00  0.00    -0.093 C  
BRANCH  12  13
HETATM   13  C   UNL     1      -6.898  11.418  69.027  1.00  0.00    -0.102 C  
BRANCH  13  14
HETATM   14  C   UNL     1      -6.031  11.748  67.840  1.00  0.00    -0.050 C  
HETATM   15  O   UNL     1      -5.921  11.036  66.850  1.00  0.00    -0.066 OA 
BRANCH  14  16
HETATM   16  O   UNL     1      -5.438  12.959  68.016  1.00  0.00    -0.081 OA 
BRANCH  16  17
HETATM   17  C   UNL     1      -5.157  13.311  69.379  1.00  0.00    -0.075 C  
BRANCH  17  18
HETATM   18  C   UNL     1      -6.442  13.623  70.146  1.00  0.00     0.040 C  
BRANCH  18  19
HETATM   19  O   UNL     1      -7.581  13.107  69.424  1.00  0.00     0.259 OA 
BRANCH  19  20
HETATM   20  C   UNL     1      -8.198  13.995  68.606  1.00  0.00    -0.103 C  
HETATM   21  O   UNL     1      -8.800  14.996  68.968  1.00  0.00    -0.197 OA 
BRANCH  20  22
HETATM   22  C   UNL     1      -8.019  13.572  67.169  1.00  0.00    -0.058 C  
BRANCH  22  23
HETATM   23  C   UNL     1      -7.916  12.051  67.089  1.00  0.00    -0.175 C  
BRANCH  23  24
HETATM   24  C   UNL     1      -9.117  11.430  66.381  1.00  0.00    -0.201 C  
BRANCH  24  25
HETATM   25  C   UNL     1      -9.153  11.858  64.913  1.00  0.00     0.341 C  
BRANCH  25  26
HETATM   26  C   UNL     1      -9.852  13.203  64.739  1.00  0.00    -0.030 C  
BRANCH  26  27
HETATM   27  C   UNL     1     -10.197  13.822  66.092  1.00  0.00    -0.305 C  
BRANCH  27  28
HETATM   28  C   UNL     1     -11.005  15.107  65.918  1.00  0.00    -0.339 C  
BRANCH  28  29
HETATM   29  C   UNL     1     -12.183  15.158  66.889  1.00  0.00     0.433 C  
BRANCH  29  30
HETATM   30  C   UNL     1     -11.703  15.406  68.318  1.00  0.00    -0.313 C  
BRANCH  30  31
HETATM   31  C   UNL     1     -12.310  14.396  69.292  1.00  0.00    -0.188 C  
BRANCH  31  32
HETATM   32  C   UNL     1     -12.643  13.084  68.582  1.00  0.00     0.709 C  
BRANCH  32  33
HETATM   33  C   UNL     1     -11.442  12.139  68.569  1.00  0.00    -0.349 C  
HETATM   34  C   UNL     1     -11.576  11.063  69.635  1.00  0.00    -0.390 C  
ENDBRANCH  32  33
ENDBRANCH  31  32
ENDBRANCH  30  31
ENDBRANCH  29  30
ENDBRANCH  28  29
ENDBRANCH  27  28
ENDBRANCH  26  27
ENDBRANCH  25  26
ENDBRANCH  24  25
ENDBRANCH  23  24
ENDBRANCH  22  23
ENDBRANCH  20  22
ENDBRANCH  19  20
ENDBRANCH  18  19
BRANCH  18  35
HETATM   35  C   UNL     1      -6.622  15.130  70.225  1.00  0.00    -0.038 C  
BRANCH  35  36
HETATM   36  O   UNL     1      -5.852  15.779  69.204  1.00  0.00    -0.105 OA 
BRANCH  36  37
HETATM   37  P   UNL     1      -6.427  17.375  68.862  1.00  0.00    -0.227 P  
HETATM   38  O   UNL     1      -7.846  17.023  69.332  1.00  0.00    -0.067 OA 
HETATM   39  O   UNL     1      -5.400  18.012  69.798  1.00  0.00    -0.191 OA 
BRANCH  37  40
HETATM   40  O   UNL     1      -7.002  18.971  68.521  1.00  0.00    -0.253 OA 
BRANCH  40  41
HETATM   41  C   UNL     1      -6.185  19.597  67.550  1.00  0.00    -0.194 C  
BRANCH  41  42
HETATM   42  C   UNL     1      -7.040  20.481  66.659  1.00  0.00    -0.259 C  
BRANCH  42  43
HETATM   43  N   UNL     1      -8.541  20.108  66.612  1.00  0.00    -0.305 N  
HETATM   44  C   UNL     1      -9.178  20.890  65.483  1.00  0.00     1.357 C  
HETATM   45  C   UNL     1      -9.235  20.480  67.931  1.00  0.00    -0.084 C  
HETATM   46  C   UNL     1      -8.723  18.614  66.388  1.00  0.00    -0.276 C  
ENDBRANCH  42  43
ENDBRANCH  41  42
ENDBRANCH  40  41
ENDBRANCH  37  40
ENDBRANCH  36  37
ENDBRANCH  35  36
ENDBRANCH  18  35
ENDBRANCH  17  18
ENDBRANCH  16  17
ENDBRANCH  14  16
ENDBRANCH  13  14
ENDBRANCH  12  13
ENDBRANCH  11  12
ENDBRANCH  10  11
ENDBRANCH   9  10
ENDBRANCH   8   9
ENDBRANCH   7   8
ENDBRANCH   6   7
ENDBRANCH   5   6
ENDBRANCH   4   5
ENDBRANCH   3   4
ENDBRANCH   2   3
TORSDOF 36
ENDMDL
MODEL       92
REMARK 921   NORMALIZED FREE ENERGY PREDICTED BY IDOCK:   12.58 KCAL/MOL
REMARK 922        TOTAL FREE ENERGY PREDICTED BY IDOCK:   33.57 KCAL/MOL
REMARK 923 INTER-LIGAND FREE ENERGY PREDICTED BY IDOCK:    9.60 KCAL/MOL
REMARK 924 INTRA-LIGAND FREE ENERGY PREDICTED BY IDOCK:   23.96 KCAL/MOL
REMARK 927      BINDING AFFINITY PREDICTED BY RF-SCORE:    0.00 PKD
ROOT
HETATM    1  C   UNL     1      -5.717   6.357  68.330  1.00  0.00    -0.016 C  
HETATM    2  C   UNL     1      -5.571   7.350  69.471  1.00  0.00    -0.023 C  
ENDROOT
BRANCH   2   3
HETATM    3  C   UNL     1      -5.130   8.720  68.961  1.00  0.00    -0.032 C  
BRANCH   3   4
HETATM    4  C   UNL     1      -6.315   9.676  68.840  1.00  0.00    -0.042 C  
BRANCH   4   5
HETATM    5  C   UNL     1      -7.584   9.050  69.419  1.00  0.00    -0.078 C  
BRANCH   5   6
HETATM    6  C   UNL     1      -8.808   9.918  69.138  1.00  0.00    -0.165 C  
BRANCH   6   7
HETATM    7  C   UNL     1      -8.992  10.975  70.228  1.00  0.00     2.078 C  
BRANCH   7   8
HETATM    8  C   UNL     1      -8.155  10.639  71.463  1.00  0.00     5.249 C  
BRANCH   8   9
HETATM    9  C   UNL     1      -7.507   9.261  71.333  1.00  0.00     0.078 C  
BRANCH   9  10
HETATM   10  C   UNL     1      -8.325   8.363  70.408  1.00  0.00    -0.121 C  
BRANCH  10  11
HETATM   11  C   UNL     1      -9.253   7.445  71.201  1.00  0.00    -0.155 C  
BRANCH  11  12
HETATM   12  C   UNL     1      -8.481   6.695  72.290  1.00  0.00    -0.111 C  
BRANCH  12  13
HETATM   13  C   UNL     1      -9.033   5.294  72.543  1.00  0.00    -0.134 C  
BRANCH  13  14
HETATM   14  C   UNL     1      -8.030   4.222  72.207  1.00  0.00    -0.091 C  
HETATM   15  O   UNL     1      -7.367   3.615  73.039  1.00  0.00    -0.053 OA 
BRANCH  14  16
HETATM   16  O   UNL     1      -8.009   4.004  70.865  1.00  0.00    -0.058 OA 
BRANCH  16  17
HETATM   17  C   UNL     1      -9.013   3.102  70.376  1.00  0.00    -0.102 C  
BRANCH  17  18
HETATM   18  C   UNL     1     -10.116   3.853  69.631  1.00  0.00     0.377 C  
BRANCH  18  19
HETATM   19  O   UNL     1     -10.299   3.279  68.319  1.00  0.00     0.924 OA 
BRANCH  19  20
HETATM   20  C   UNL     1      -9.156   2.947  67.669  1.00  0.00    -0.183 C  
HETATM   21  O   UNL     1      -8.525   3.679  66.919  1.00  0.00    -0.101 OA 
BRANCH  20  22
HETATM   22  C   UNL     1      -8.762   1.534  68.022  1.00  0.00    -0.113 C  
BRANCH  22  23
HETATM   23  C   UNL     1      -7.610   1.556  69.024  1.00  0.00    -0.042 C  
BRANCH  23  24
HETATM   24  C   UNL     1      -6.263   1.795  68.346  1.00  0.00    -0.025 C  
BRANCH  24  25
HETATM   25  C   UNL     1      -6.466   2.276  66.908  1.00  0.00    -0.031 C  
BRANCH  25  26
HETATM   26  C   UNL     1      -5.161   2.244  66.118  1.00  0.00    -0.005 C  
BRANCH  26  27
HETATM   27  C   UNL     1      -5.253   3.120  64.870  1.00  0.00    -0.009 C  
BRANCH  27  28
HETATM   28  C   UNL     1      -5.434   4.590  65.244  1.00  0.00    -0.013 C  
BRANCH  28  29
HETATM   29  C   UNL     1      -6.207   5.346  64.164  1.00  0.00    -0.022 C  
BRANCH  29  30
HETATM   30  C   UNL     1      -5.463   6.614  63.748  1.00  0.00    -0.027 C  
BRANCH  30  31
HETATM   31  C   UNL     1      -5.337   7.595  64.913  1.00  0.00    -0.029 C  
BRANCH  31  32
HETATM   32  C   UNL     1      -6.235   8.813  64.703  1.00  0.00    -0.066 C  
BRANCH  32  33
HETATM   33  C   UNL     1      -7.291   8.921  65.801  1.00  0.00    -0.089 C  
HETATM   34  C   UNL     1      -8.078   7.627  65.939  1.00  0.00    -0.122 C  
ENDBRANCH  32  33
ENDBRANCH  31  32
ENDBRANCH  30  31
ENDBRANCH  29  30
ENDBRANCH  28  29
ENDBRANCH  27  28
ENDBRANCH  26  27
ENDBRANCH  25  26
ENDBRANCH  24  25
ENDBRANCH  23  24
ENDBRANCH  22  23
ENDBRANCH  20  22
ENDBRANCH  19  20
ENDBRANCH  18  19
BRANCH  18  35
HETATM   35  C   UNL     1      -9.683   5.295  69.420  1.00  0.00    -0.174 C  
BRANCH  35  36
HETATM   36  O   UNL     1     -10.501   5.921  68.421  1.00  0.00    -0.192 OA 
BRANCH  36  37
HETATM   37  P   UNL     1     -11.020   7.502  68.894  1.00  0.00     0.267 P  
HETATM   38  O   UNL     1     -10.274   7.406  70.233  1.00  0.00    -0.196 OA 
HETATM   39  O   UNL     1     -10.389   8.146  67.660  1.00  0.00    -0.219 OA 
BRANCH  37  40
HETATM   40  O   UNL     1     -11.539   9.083  69.368  1.00  0.00     0.265 OA 
BRANCH  40  41
HETATM   41  C   UNL     1     -12.802   9.022  70.005  1.00  0.00     1.491 C  
BRANCH  41  42
HETATM   42  C   UNL     1     -12.915   7.724  70.786  1.00  0.00     0.240 C  
BRANCH  42  43
HETATM   43  N   UNL     1     -12.855   7.877  72.325  1.00  0.00    -0.184 N  
HETATM   44  C   UNL     1     -12.422   6.548  72.906  1.00  0.00     0.867 C  
HETATM   45  C   UNL     1     -14.237   8.241  72.888  1.00  0.00     0.324 C  
HETATM   46  C   UNL     1     -11.879   8.973  72.725  1.00  0.00     0.467 C  
ENDBRANCH  42  43
ENDBRANCH  41  42
ENDBRANCH  40  41
ENDBRANCH  37  40
ENDBRANCH  36  37
ENDBRANCH  35  36
ENDBRANCH  18  35
ENDBRANCH  17  18
ENDBRANCH  16  17
ENDBRANCH  14  16
ENDBRANCH  13  14
ENDBRANCH  12  13
ENDBRANCH  11  12
ENDBRANCH  10  11
ENDBRANCH   9  10
ENDBRANCH   8   9
ENDBRANCH   7   8
ENDBRANCH   6   7
ENDBRANCH   5   6
ENDBRANCH   4   5
ENDBRANCH   3   4
ENDBRANCH   2   3
TORSDOF 36
ENDMDL
MODEL       93
REMARK 921   NORMALIZED FREE ENERGY PREDICTED BY IDOCK:   15.73 KCAL/MOL
REMARK 922        TOTAL FREE ENERGY PREDICTED BY IDOCK:   43.35 KCAL/MOL
REMARK 923 INTER-LIGAND FREE ENERGY PREDICTED BY IDOCK:   31.65 KCAL/MOL
REMARK 924 INTRA-LIGAND FREE ENERGY PREDICTED BY IDOCK:   11.70 KCAL/MOL
REMARK 927      BINDING AFFINITY PREDICTED BY RF-SCORE:    0.00 PKD
ROOT
HETATM    1  C   UNL     1      -8.835  16.216  64.112  1.00  0.00     9.239 C  
HETATM    2  C   UNL     1      -9.699  15.483  65.124  1.00  0.00     0.036 C  
ENDROOT
BRANCH   2   3
HETATM    3  C   UNL     1     -10.295  14.210  64.524  1.00  0.00    -0.133 C  
BRANCH   3   4
HETATM    4  C   UNL     1      -9.529  13.772  63.277  1.00  0.00     6.653 C  
BRANCH   4   5
HETATM    5  C   UNL     1     -10.100  12.471  62.713  1.00  0.00     1.662 C  
BRANCH   5   6
HETATM    6  C   UNL     1     -11.563  12.290  63.112  1.00  0.00    -0.283 C  
BRANCH   6   7
HETATM    7  C   UNL     1     -11.707  11.211  64.185  1.00  0.00     0.461 C  
BRANCH   7   8
HETATM    8  C   UNL     1     -10.505  11.213  65.130  1.00  0.00    -0.341 C  
BRANCH   8   9
HETATM    9  C   UNL     1     -10.892  11.729  66.515  1.00  0.00    -0.323 C  
BRANCH   9  10
HETATM   10  C   UNL     1     -11.960  12.816  66.409  1.00  0.00    -0.443 C  
BRANCH  10  11
HETATM   11  C   UNL     1     -11.982  13.699  67.655  1.00  0.00    -0.386 C  
BRANCH  11  12
HETATM   12  C   UNL     1     -11.241  13.027  68.815  1.00  0.00    -0.325 C  
BRANCH  12  13
HETATM   13  C   UNL     1      -9.725  13.171  68.706  1.00  0.00     0.039 C  
BRANCH  13  14
HETATM   14  C   UNL     1      -9.321  14.065  67.563  1.00  0.00    -0.209 C  
HETATM   15  O   UNL     1      -9.903  15.099  67.261  1.00  0.00    -0.225 OA 
BRANCH  14  16
HETATM   16  O   UNL     1      -8.204  13.580  66.960  1.00  0.00    -0.142 OA 
BRANCH  16  17
HETATM   17  C   UNL     1      -7.511  12.556  67.689  1.00  0.00    -0.139 C  
BRANCH  17  18
HETATM   18  C   UNL     1      -7.522  12.842  69.191  1.00  0.00     0.201 C  
BRANCH  18  19
HETATM   19  O   UNL     1      -8.122  14.132  69.439  1.00  0.00     0.137 OA 
BRANCH  19  20
HETATM   20  C   UNL     1      -7.888  14.652  70.669  1.00  0.00     1.623 C  
HETATM   21  O   UNL     1      -6.804  15.035  71.086  1.00  0.00     0.566 OA 
BRANCH  20  22
HETATM   22  C   UNL     1      -9.178  14.706  71.452  1.00  0.00     4.141 C  
BRANCH  22  23
HETATM   23  C   UNL     1     -10.091  15.780  70.865  1.00  0.00     0.912 C  
BRANCH  23  24
HETATM   24  C   UNL     1     -10.922  16.477  71.939  1.00  0.00     1.015 C  
BRANCH  24  25
HETATM   25  C   UNL     1     -11.530  17.768  71.390  1.00  0.00     3.108 C  
BRANCH  25  26
HETATM   26  C   UNL     1     -10.510  18.571  70.587  1.00  0.00     2.136 C  
BRANCH  26  27
HETATM   27  C   UNL     1     -10.879  18.601  69.105  1.00  0.00     1.051 C  
BRANCH  27  28
HETATM   28  C   UNL     1      -9.771  17.988  68.251  1.00  0.00    -0.332 C  
BRANCH  28  29
HETATM   29  C   UNL     1      -8.397  18.510  68.667  1.00  0.00    -0.330 C  
BRANCH  29  30
HETATM   30  C   UNL     1      -7.509  17.371  69.167  1.00  0.00    -0.117 C  
BRANCH  30  31
HETATM   31  C   UNL     1      -6.085  17.497  68.625  1.00  0.00    -0.174 C  
BRANCH  31  32
HETATM   32  C   UNL     1      -5.936  16.751  67.299  1.00  0.00    -0.200 C  
BRANCH  32  33
HETATM   33  C   UNL     1      -6.017  17.709  66.112  1.00  0.00    -0.249 C  
HETATM   34  C   UNL     1      -5.269  17.159  64.908  1.00  0.00     2.059 C  
ENDBRANCH  32  33
ENDBRANCH  31  32
ENDBRANCH  30  31
ENDBRANCH  29  30
ENDBRANCH  28  29
ENDBRANCH  27  28
ENDBRANCH  26  27
ENDBRANCH  25  26
ENDBRANCH  24  25
ENDBRANCH  23  24
ENDBRANCH  22  23
ENDBRANCH  20  22
ENDBRANCH  19  20
ENDBRANCH  18  19
BRANCH  18  35
HETATM   35  C   UNL     1      -6.090  12.925  69.694  1.00  0.00    -0.124 C  
BRANCH  35  36
HETATM   36  O   UNL     1      -5.354  11.757  69.301  1.00  0.00    -0.048 OA 
BRANCH  36  37
HETATM   37  P   UNL     1      -6.323  10.324  69.352  1.00  0.00    -0.065 P  
HETATM   38  O   UNL     1      -5.146   9.447  68.901  1.00  0.00    -0.037 OA 
HETATM   39  O   UNL     1      -6.660  10.531  70.828  1.00  0.00    -0.343 OA 
BRANCH  37  40
HETATM   40  O   UNL     1      -7.291   8.891  69.402  1.00  0.00    -0.072 OA 
BRANCH  40  41
HETATM   41  C   UNL     1      -8.315   9.017  70.372  1.00  0.00    -0.164 C  
BRANCH  41  42
HETATM   42  C   UNL     1      -9.661   8.732  69.730  1.00  0.00    -0.177 C  
BRANCH  42  43
HETATM   43  N   UNL     1     -10.879   9.355  70.456  1.00  0.00    -0.254 N  
HETATM   44  C   UNL     1     -11.954   9.609  69.422  1.00  0.00     0.577 C  
HETATM   45  C   UNL     1     -10.494  10.689  71.114  1.00  0.00     1.944 C  
HETATM   46  C   UNL     1     -11.398   8.425  71.542  1.00  0.00    -0.276 C  
ENDBRANCH  42  43
ENDBRANCH  41  42
ENDBRANCH  40  41
ENDBRANCH  37  40
ENDBRANCH  36  37
ENDBRANCH  35  36
ENDBRANCH  18  35
ENDBRANCH  17  18
ENDBRANCH  16  17
ENDBRANCH  14  16
ENDBRANCH  13  14
ENDBRANCH  12  13
ENDBRANCH  11  12
ENDBRANCH  10  11
ENDBRANCH   9  10
ENDBRANCH   8   9
ENDBRANCH   7   8
ENDBRANCH   6   7
ENDBRANCH   5   6
ENDBRANCH   4   5
ENDBRANCH   3   4
ENDBRANCH   2   3
TORSDOF 36
ENDMDL
MODEL       94
REMARK 921   NORMALIZED FREE ENERGY PREDICTED BY IDOCK:   43.60 KCAL/MOL
REMARK 922        TOTAL FREE ENERGY PREDICTED BY IDOCK:  129.87 KCAL/MOL
REMARK 923 INTER-LIGAND FREE ENERGY PREDICTED BY IDOCK:   26.85 KCAL/MOL
REMARK 924 INTRA-LIGAND FREE ENERGY PREDICTED BY IDOCK:  103.02 KCAL/MOL
REMARK 927      BINDING AFFINITY PREDICTED BY RF-SCORE:    0.00 PKD
ROOT
HETATM    1  C   UNL     1      -5.808   6.321  68.342  1.00  0.00    -0.016 C  
HETATM    2  C   UNL     1      -5.960   7.196  69.574  1.00  0.00    -0.026 C  
ENDROOT
BRANCH   2   3
HETATM    3  C   UNL     1      -5.853   8.677  69.218  1.00  0.00    -0.038 C  
BRANCH   3   4
HETATM    4  C   UNL     1      -7.233   9.305  69.028  1.00  0.00    -0.071 C  
BRANCH   4   5
HETATM    5  C   UNL     1      -8.339   8.311  69.381  1.00  0.00    -0.122 C  
BRANCH   5   6
HETATM    6  C   UNL     1      -9.720   8.890  69.084  1.00  0.00    -0.168 C  
BRANCH   6   7
HETATM    7  C   UNL     1     -10.366   9.445  70.353  1.00  0.00    -0.318 C  
BRANCH   7   8
HETATM    8  C   UNL     1      -9.724   8.842  71.603  1.00  0.00    -0.366 C  
BRANCH   8   9
HETATM    9  C   UNL     1      -8.837   7.650  71.248  1.00  0.00    -0.139 C  
BRANCH   9  10
HETATM   10  C   UNL     1      -9.321   6.978  69.965  1.00  0.00    -0.158 C  
BRANCH  10  11
HETATM   11  C   UNL     1     -10.250   5.804  70.267  1.00  0.00    -0.295 C  
BRANCH  11  12
HETATM   12  C   UNL     1      -9.553   4.770  71.155  1.00  0.00    -0.235 C  
BRANCH  12  13
HETATM   13  C   UNL     1     -10.121   3.364  70.976  1.00  0.00     0.149 C  
BRANCH  13  14
HETATM   14  C   UNL     1      -9.134   2.433  70.320  1.00  0.00    -0.108 C  
HETATM   15  O   UNL     1      -8.577   1.506  70.895  1.00  0.00    -0.048 OA 
BRANCH  14  16
HETATM   16  O   UNL     1      -8.995   2.749  69.005  1.00  0.00    -0.089 OA 
BRANCH  16  17
HETATM   17  C   UNL     1     -10.162   2.533  68.198  1.00  0.00     1.752 C  
BRANCH  17  18
HETATM   18  C   UNL     1     -10.931   3.835  67.976  1.00  0.00     4.162 C  
BRANCH  18  19
HETATM   19  O   UNL     1     -11.184   4.019  66.566  1.00  0.00     2.030 OA 
BRANCH  19  20
HETATM   20  C   UNL     1     -10.138   3.739  65.749  1.00  0.00     0.058 C  
HETATM   21  O   UNL     1      -9.336   4.554  65.316  1.00  0.00    -0.148 OA 
BRANCH  20  22
HETATM   22  C   UNL     1     -10.099   2.258  65.464  1.00  0.00     0.970 C  
BRANCH  22  23
HETATM   23  C   UNL     1      -8.989   1.605  66.285  1.00  0.00    -0.092 C  
BRANCH  23  24
HETATM   24  C   UNL     1      -7.604   1.908  65.721  1.00  0.00    -0.070 C  
BRANCH  24  25
HETATM   25  C   UNL     1      -7.717   2.562  64.344  1.00  0.00    -0.076 C  
BRANCH  25  26
HETATM   26  C   UNL     1      -6.343   2.818  63.730  1.00  0.00    -0.018 C  
BRANCH  26  27
HETATM   27  C   UNL     1      -6.326   4.132  62.951  1.00  0.00    -0.022 C  
BRANCH  27  28
HETATM   28  C   UNL     1      -6.798   5.294  63.823  1.00  0.00    -0.046 C  
BRANCH  28  29
HETATM   29  C   UNL     1      -8.015   4.902  64.659  1.00  0.00    -0.099 C  
BRANCH  29  30
HETATM   30  C   UNL     1      -9.164   5.887  64.445  1.00  0.00     0.749 C  
BRANCH  30  31
HETATM   31  C   UNL     1      -9.125   6.491  63.042  1.00  0.00     1.179 C  
BRANCH  31  32
HETATM   32  C   UNL     1      -9.540   7.962  63.068  1.00  0.00     3.294 C  
BRANCH  32  33
HETATM   33  C   UNL     1     -10.249   8.316  64.374  1.00  0.00     5.137 C  
HETATM   34  C   UNL     1      -9.825   7.387  65.501  1.00  0.00     1.151 C  
ENDBRANCH  32  33
ENDBRANCH  31  32
ENDBRANCH  30  31
ENDBRANCH  29  30
ENDBRANCH  28  29
ENDBRANCH  27  28
ENDBRANCH  26  27
ENDBRANCH  25  26
ENDBRANCH  24  25
ENDBRANCH  23  24
ENDBRANCH  22  23
ENDBRANCH  20  22
ENDBRANCH  19  20
ENDBRANCH  18  19
BRANCH  18  35
HETATM   35  C   UNL     1     -10.069   5.005  68.420  1.00  0.00    -0.107 C  
BRANCH  35  36
HETATM   36  O   UNL     1     -10.713   6.248  68.105  1.00  0.00    -0.233 OA 
BRANCH  36  37
HETATM   37  P   UNL     1     -10.972   7.227  69.509  1.00  0.00    -0.046 P  
HETATM   38  O   UNL     1     -10.462   6.120  70.442  1.00  0.00    -0.202 OA 
HETATM   39  O   UNL     1     -10.055   8.330  68.984  1.00  0.00    -0.191 OA 
BRANCH  37  40
HETATM   40  O   UNL     1     -11.232   8.205  70.912  1.00  0.00    -0.258 OA 
BRANCH  40  41
HETATM   41  C   UNL     1     -12.549   8.032  71.402  1.00  0.00    -0.289 C  
BRANCH  41  42
HETATM   42  C   UNL     1     -13.042   6.638  71.055  1.00  0.00     0.255 C  
BRANCH  42  43
HETATM   43  N   UNL     1     -13.000   5.619  72.219  1.00  0.00     0.646 N  
HETATM   44  C   UNL     1     -13.013   6.398  73.517  1.00  0.00     3.890 C  
HETATM   45  C   UNL     1     -11.718   4.774  72.156  1.00  0.00     0.831 C  
HETATM   46  C   UNL     1     -14.191   4.675  72.157  1.00  0.00     4.692 C  
ENDBRANCH  42  43
ENDBRANCH  41  42
ENDBRANCH  40  41
ENDBRANCH  37  40
ENDBRANCH  36  37
ENDBRANCH  35  36
ENDBRANCH  18  35
ENDBRANCH  17  18
ENDBRANCH  16  17
ENDBRANCH  14  16
ENDBRANCH  13  14
ENDBRANCH  12  13
ENDBRANCH  11  12
ENDBRANCH  10  11
ENDBRANCH   9  10
ENDBRANCH   8   9
ENDBRANCH   7   8
ENDBRANCH   6   7
ENDBRANCH   5   6
ENDBRANCH   4   5
ENDBRANCH   3   4
ENDBRANCH   2   3
TORSDOF 36
ENDMDL
