MODEL        1
REMARK 921   NORMALIZED FREE ENERGY PREDICTED BY IDOCK:   -4.77 KCAL/MOL
REMARK 922        TOTAL FREE ENERGY PREDICTED BY IDOCK:   -5.87 KCAL/MOL
REMARK 923 INTER-LIGAND FREE ENERGY PREDICTED BY IDOCK:   -5.61 KCAL/MOL
REMARK 924 INTRA-LIGAND FREE ENERGY PREDICTED BY IDOCK:   -0.26 KCAL/MOL
REMARK 927      BINDING AFFINITY PREDICTED BY RF-SCORE:    0.00 PKD
ROOT
HETATM    1  C   UNL     1     -11.999  14.115  66.955  1.00  0.00    -0.471 C  
HETATM    2  C   UNL     1     -11.582  15.116  68.051  1.00  0.00    -0.328 C  
ENDROOT
BRANCH   2   3
HETATM    3  C   UNL     1     -11.210  14.342  69.373  1.00  0.00    -0.273 C  
HETATM    4  H   UNL     1     -11.048  12.457  69.958  1.00  0.00     0.000 HD 
HETATM    5  O   UNL     1     -11.273  12.923  69.161  1.00  0.00    -0.256 OA 
BRANCH   3   6
HETATM    6  C   UNL     1     -11.959  14.693  70.654  1.00  0.00    -0.380 A  
HETATM    7  C   UNL     1     -11.603  15.842  71.383  1.00  0.00    -0.529 A  
HETATM    8  C   UNL     1     -12.124  16.060  72.664  1.00  0.00    -0.640 A  
HETATM    9  C   UNL     1     -13.021  15.151  73.223  1.00  0.00    -0.645 A  
HETATM   10  C   UNL     1     -13.435  14.046  72.485  1.00  0.00    -0.661 A  
HETATM   11  C   UNL     1     -12.917  13.825  71.207  1.00  0.00    -0.409 A  
ENDBRANCH   3   6
ENDBRANCH   2   3
BRANCH   2  12
HETATM   12  N   UNL     1     -10.470  15.985  67.537  1.00  0.00    -0.291 NA 
HETATM   13  C   UNL     1     -10.488  17.341  68.078  1.00  0.00    -0.375 C  
HETATM   14  C   UNL     1     -10.411  16.052  66.072  1.00  0.00    -0.351 C  
ENDBRANCH   2  12
TORSDOF 3
ENDMDL
MODEL        2
REMARK 921   NORMALIZED FREE ENERGY PREDICTED BY IDOCK:   -4.74 KCAL/MOL
REMARK 922        TOTAL FREE ENERGY PREDICTED BY IDOCK:   -5.83 KCAL/MOL
REMARK 923 INTER-LIGAND FREE ENERGY PREDICTED BY IDOCK:   -5.55 KCAL/MOL
REMARK 924 INTRA-LIGAND FREE ENERGY PREDICTED BY IDOCK:   -0.28 KCAL/MOL
REMARK 927      BINDING AFFINITY PREDICTED BY RF-SCORE:    0.00 PKD
ROOT
HETATM    1  C   UNL     1     -10.448   9.716  70.227  1.00  0.00    -0.338 C  
HETATM    2  C   UNL     1     -11.625  10.034  71.169  1.00  0.00    -0.378 C  
ENDROOT
BRANCH   2   3
HETATM    3  C   UNL     1     -12.623  11.032  70.466  1.00  0.00    -0.304 C  
HETATM    4  H   UNL     1     -13.004  11.650  68.623  1.00  0.00     0.000 HD 
HETATM    5  O   UNL     1     -12.402  11.049  69.047  1.00  0.00    -0.481 OA 
BRANCH   3   6
HETATM    6  C   UNL     1     -12.700  12.465  70.981  1.00  0.00    -0.315 A  
HETATM    7  C   UNL     1     -13.431  12.753  72.147  1.00  0.00    -0.591 A  
HETATM    8  C   UNL     1     -13.694  14.080  72.509  1.00  0.00    -0.651 A  
HETATM    9  C   UNL     1     -13.215  15.131  71.730  1.00  0.00    -0.484 A  
HETATM   10  C   UNL     1     -12.431  14.861  70.611  1.00  0.00    -0.411 A  
HETATM   11  C   UNL     1     -12.167  13.538  70.246  1.00  0.00    -0.417 A  
ENDBRANCH   3   6
ENDBRANCH   2   3
BRANCH   2  12
HETATM   12  N   UNL     1     -12.275   8.752  71.607  1.00  0.00    -0.319 NA 
HETATM   13  C   UNL     1     -13.592   8.940  72.210  1.00  0.00    -0.462 C  
HETATM   14  C   UNL     1     -11.440   7.955  72.513  1.00  0.00    -0.398 C  
ENDBRANCH   2  12
TORSDOF 3
ENDMDL
MODEL        3
REMARK 921   NORMALIZED FREE ENERGY PREDICTED BY IDOCK:   -4.72 KCAL/MOL
REMARK 922        TOTAL FREE ENERGY PREDICTED BY IDOCK:   -5.81 KCAL/MOL
REMARK 923 INTER-LIGAND FREE ENERGY PREDICTED BY IDOCK:   -5.47 KCAL/MOL
REMARK 924 INTRA-LIGAND FREE ENERGY PREDICTED BY IDOCK:   -0.34 KCAL/MOL
REMARK 927      BINDING AFFINITY PREDICTED BY RF-SCORE:    0.00 PKD
ROOT
HETATM    1  C   UNL     1     -12.076  14.250  66.883  1.00  0.00    -0.440 C  
HETATM    2  C   UNL     1     -11.643  15.098  68.095  1.00  0.00    -0.341 C  
ENDROOT
BRANCH   2   3
HETATM    3  C   UNL     1     -11.454  14.175  69.359  1.00  0.00    -0.288 C  
HETATM    4  H   UNL     1     -11.779  12.280  69.838  1.00  0.00     0.000 HD 
HETATM    5  O   UNL     1     -11.893  12.837  69.076  1.00  0.00    -0.295 OA 
BRANCH   3   6
HETATM    6  C   UNL     1     -12.050  14.630  70.686  1.00  0.00    -0.385 A  
HETATM    7  C   UNL     1     -11.565  15.794  71.311  1.00  0.00    -0.499 A  
HETATM    8  C   UNL     1     -11.942  16.104  72.623  1.00  0.00    -0.653 A  
HETATM    9  C   UNL     1     -12.819  15.275  73.319  1.00  0.00    -0.634 A  
HETATM   10  C   UNL     1     -13.360  14.157  72.688  1.00  0.00    -0.638 A  
HETATM   11  C   UNL     1     -12.987  13.844  71.379  1.00  0.00    -0.430 A  
ENDBRANCH   3   6
ENDBRANCH   2   3
BRANCH   2  12
HETATM   12  N   UNL     1     -10.413  15.884  67.742  1.00  0.00    -0.279 NA 
HETATM   13  C   UNL     1      -9.200  15.399  68.397  1.00  0.00    -0.192 C  
HETATM   14  C   UNL     1     -10.549  17.324  67.986  1.00  0.00    -0.394 C  
ENDBRANCH   2  12
TORSDOF 3
ENDMDL
MODEL        4
REMARK 921   NORMALIZED FREE ENERGY PREDICTED BY IDOCK:   -4.69 KCAL/MOL
REMARK 922        TOTAL FREE ENERGY PREDICTED BY IDOCK:   -5.77 KCAL/MOL
REMARK 923 INTER-LIGAND FREE ENERGY PREDICTED BY IDOCK:   -5.52 KCAL/MOL
REMARK 924 INTRA-LIGAND FREE ENERGY PREDICTED BY IDOCK:   -0.25 KCAL/MOL
REMARK 927      BINDING AFFINITY PREDICTED BY RF-SCORE:    0.00 PKD
ROOT
HETATM    1  C   UNL     1     -11.536  12.646  69.336  1.00  0.00    -0.369 C  
HETATM    2  C   UNL     1     -12.034  13.829  68.482  1.00  0.00    -0.367 C  
ENDROOT
BRANCH   2   3
HETATM    3  C   UNL     1     -11.661  15.192  69.181  1.00  0.00    -0.325 C  
HETATM    4  H   UNL     1     -10.013  16.136  69.741  1.00  0.00     0.000 HD 
HETATM    5  O   UNL     1     -10.237  15.314  69.320  1.00  0.00    -0.226 OA 
BRANCH   3   6
HETATM    6  C   UNL     1     -12.329  15.533  70.509  1.00  0.00    -0.461 A  
HETATM    7  C   UNL     1     -11.595  16.183  71.517  1.00  0.00    -0.502 A  
HETATM    8  C   UNL     1     -12.119  16.306  72.809  1.00  0.00    -0.637 A  
HETATM    9  C   UNL     1     -13.385  15.804  73.106  1.00  0.00    -0.685 A  
HETATM   10  C   UNL     1     -14.150  15.220  72.101  1.00  0.00    -0.658 A  
HETATM   11  C   UNL     1     -13.630  15.095  70.810  1.00  0.00    -0.299 A  
ENDBRANCH   3   6
ENDBRANCH   2   3
BRANCH   2  12
HETATM   12  N   UNL     1     -11.487  13.704  67.089  1.00  0.00    -0.325 NA 
HETATM   13  C   UNL     1     -12.519  13.623  66.058  1.00  0.00    -0.426 C  
HETATM   14  C   UNL     1     -10.554  12.583  66.926  1.00  0.00    -0.236 C  
ENDBRANCH   2  12
TORSDOF 3
ENDMDL
MODEL        5
REMARK 921   NORMALIZED FREE ENERGY PREDICTED BY IDOCK:   -4.68 KCAL/MOL
REMARK 922        TOTAL FREE ENERGY PREDICTED BY IDOCK:   -5.77 KCAL/MOL
REMARK 923 INTER-LIGAND FREE ENERGY PREDICTED BY IDOCK:   -5.55 KCAL/MOL
REMARK 924 INTRA-LIGAND FREE ENERGY PREDICTED BY IDOCK:   -0.22 KCAL/MOL
REMARK 927      BINDING AFFINITY PREDICTED BY RF-SCORE:    0.00 PKD
ROOT
HETATM    1  C   UNL     1      -9.885  14.390  68.178  1.00  0.00    -0.223 C  
HETATM    2  C   UNL     1     -11.199  14.080  68.922  1.00  0.00    -0.272 C  
ENDROOT
BRANCH   2   3
HETATM    3  C   UNL     1     -11.947  15.422  69.276  1.00  0.00    -0.310 C  
HETATM    4  H   UNL     1     -11.610  17.365  69.097  1.00  0.00     0.000 HD 
HETATM    5  O   UNL     1     -11.159  16.557  68.885  1.00  0.00    -0.329 OA 
BRANCH   3   6
HETATM    6  C   UNL     1     -12.442  15.621  70.704  1.00  0.00    -0.463 A  
HETATM    7  C   UNL     1     -11.556  16.071  71.699  1.00  0.00    -0.538 A  
HETATM    8  C   UNL     1     -11.932  16.049  73.047  1.00  0.00    -0.597 A  
HETATM    9  C   UNL     1     -13.199  15.603  73.418  1.00  0.00    -0.628 A  
HETATM   10  C   UNL     1     -14.111  15.221  72.437  1.00  0.00    -0.622 A  
HETATM   11  C   UNL     1     -13.739  15.240  71.091  1.00  0.00    -0.519 A  
ENDBRANCH   3   6
ENDBRANCH   2   3
BRANCH   2  12
HETATM   12  N   UNL     1     -12.027  13.135  68.100  1.00  0.00    -0.336 NA 
HETATM   13  C   UNL     1     -11.677  11.729  68.291  1.00  0.00    -0.310 C  
HETATM   14  C   UNL     1     -12.014  13.444  66.665  1.00  0.00    -0.399 C  
ENDBRANCH   2  12
TORSDOF 3
ENDMDL
MODEL        6
REMARK 921   NORMALIZED FREE ENERGY PREDICTED BY IDOCK:   -4.67 KCAL/MOL
REMARK 922        TOTAL FREE ENERGY PREDICTED BY IDOCK:   -5.75 KCAL/MOL
REMARK 923 INTER-LIGAND FREE ENERGY PREDICTED BY IDOCK:   -5.46 KCAL/MOL
REMARK 924 INTRA-LIGAND FREE ENERGY PREDICTED BY IDOCK:   -0.30 KCAL/MOL
REMARK 927      BINDING AFFINITY PREDICTED BY RF-SCORE:    0.00 PKD
ROOT
HETATM    1  C   UNL     1     -10.510  13.379  68.702  1.00  0.00    -0.237 C  
HETATM    2  C   UNL     1     -11.688  14.224  68.181  1.00  0.00    -0.350 C  
ENDROOT
BRANCH   2   3
HETATM    3  C   UNL     1     -11.841  15.529  69.051  1.00  0.00    -0.354 C  
HETATM    4  H   UNL     1     -10.748  17.122  69.488  1.00  0.00     0.000 HD 
HETATM    5  O   UNL     1     -10.656  16.335  68.964  1.00  0.00    -0.246 OA 
BRANCH   3   6
HETATM    6  C   UNL     1     -12.244  15.383  70.514  1.00  0.00    -0.436 A  
HETATM    7  C   UNL     1     -13.408  14.669  70.854  1.00  0.00    -0.350 A  
HETATM    8  C   UNL     1     -13.909  14.711  72.160  1.00  0.00    -0.569 A  
HETATM    9  C   UNL     1     -13.248  15.441  73.146  1.00  0.00    -0.636 A  
HETATM   10  C   UNL     1     -12.058  16.095  72.840  1.00  0.00    -0.643 A  
HETATM   11  C   UNL     1     -11.555  16.057  71.537  1.00  0.00    -0.529 A  
ENDBRANCH   3   6
ENDBRANCH   2   3
BRANCH   2  12
HETATM   12  N   UNL     1     -11.494  14.503  66.717  1.00  0.00    -0.357 NA 
HETATM   13  C   UNL     1     -12.570  13.987  65.875  1.00  0.00    -0.449 C  
HETATM   14  C   UNL     1     -10.206  14.029  66.199  1.00  0.00    -0.302 C  
ENDBRANCH   2  12
TORSDOF 3
ENDMDL
MODEL        7
REMARK 921   NORMALIZED FREE ENERGY PREDICTED BY IDOCK:   -4.66 KCAL/MOL
REMARK 922        TOTAL FREE ENERGY PREDICTED BY IDOCK:   -5.73 KCAL/MOL
REMARK 923 INTER-LIGAND FREE ENERGY PREDICTED BY IDOCK:   -5.48 KCAL/MOL
REMARK 924 INTRA-LIGAND FREE ENERGY PREDICTED BY IDOCK:   -0.26 KCAL/MOL
REMARK 927      BINDING AFFINITY PREDICTED BY RF-SCORE:    0.00 PKD
ROOT
HETATM    1  C   UNL     1     -10.480  18.680  66.150  1.00  0.00    -0.473 C  
HETATM    2  C   UNL     1     -10.269  17.225  66.614  1.00  0.00    -0.319 C  
ENDROOT
BRANCH   2   3
HETATM    3  C   UNL     1     -10.444  16.240  65.396  1.00  0.00    -0.343 C  
HETATM    4  H   UNL     1     -11.332  16.261  63.625  1.00  0.00     0.000 HD 
HETATM    5  O   UNL     1     -11.227  16.854  64.360  1.00  0.00    -1.159 OA 
BRANCH   3   6
HETATM    6  C   UNL     1     -10.978  14.838  65.667  1.00  0.00    -0.345 A  
HETATM    7  C   UNL     1     -11.600  14.549  66.894  1.00  0.00    -0.399 A  
HETATM    8  C   UNL     1     -11.896  13.227  67.245  1.00  0.00    -0.421 A  
HETATM    9  C   UNL     1     -11.598  12.182  66.372  1.00  0.00    -0.429 A  
HETATM   10  C   UNL     1     -11.046  12.461  65.125  1.00  0.00    -0.348 A  
HETATM   11  C   UNL     1     -10.749  13.779  64.771  1.00  0.00    -0.429 A  
ENDBRANCH   3   6
ENDBRANCH   2   3
BRANCH   2  12
HETATM   12  N   UNL     1      -8.933  17.105  67.290  1.00  0.00    -0.218 NA 
HETATM   13  C   UNL     1      -8.588  18.260  68.116  1.00  0.00    -0.278 C  
HETATM   14  C   UNL     1      -7.831  16.831  66.361  1.00  0.00    -0.318 C  
ENDBRANCH   2  12
TORSDOF 3
ENDMDL
MODEL        8
REMARK 921   NORMALIZED FREE ENERGY PREDICTED BY IDOCK:   -4.65 KCAL/MOL
REMARK 922        TOTAL FREE ENERGY PREDICTED BY IDOCK:   -5.72 KCAL/MOL
REMARK 923 INTER-LIGAND FREE ENERGY PREDICTED BY IDOCK:   -5.46 KCAL/MOL
REMARK 924 INTRA-LIGAND FREE ENERGY PREDICTED BY IDOCK:   -0.26 KCAL/MOL
REMARK 927      BINDING AFFINITY PREDICTED BY RF-SCORE:    0.00 PKD
ROOT
HETATM    1  C   UNL     1     -12.427  13.729  65.766  1.00  0.00    -0.527 C  
HETATM    2  C   UNL     1     -11.876  14.170  67.136  1.00  0.00    -0.423 C  
ENDROOT
BRANCH   2   3
HETATM    3  C   UNL     1     -11.512  12.905  68.003  1.00  0.00    -0.319 C  
HETATM    4  H   UNL     1     -11.706  10.939  67.859  1.00  0.00     0.000 HD 
HETATM    5  O   UNL     1     -11.926  11.702  67.337  1.00  0.00    -0.621 OA 
BRANCH   3   6
HETATM    6  C   UNL     1     -11.976  12.862  69.455  1.00  0.00    -0.327 A  
HETATM    7  C   UNL     1     -12.160  11.624  70.097  1.00  0.00    -0.414 A  
HETATM    8  C   UNL     1     -12.791  11.559  71.345  1.00  0.00    -0.489 A  
HETATM    9  C   UNL     1     -13.223  12.723  71.977  1.00  0.00    -0.538 A  
HETATM   10  C   UNL     1     -12.984  13.961  71.385  1.00  0.00    -0.430 A  
HETATM   11  C   UNL     1     -12.356  14.029  70.139  1.00  0.00    -0.409 A  
ENDBRANCH   3   6
ENDBRANCH   2   3
BRANCH   2  12
HETATM   12  N   UNL     1     -10.718  15.105  66.932  1.00  0.00    -0.303 NA 
HETATM   13  C   UNL     1     -10.859  16.376  67.640  1.00  0.00    -0.280 C  
HETATM   14  C   UNL     1     -10.425  15.371  65.519  1.00  0.00    -0.380 C  
ENDBRANCH   2  12
TORSDOF 3
ENDMDL
MODEL        9
REMARK 921   NORMALIZED FREE ENERGY PREDICTED BY IDOCK:   -4.63 KCAL/MOL
REMARK 922        TOTAL FREE ENERGY PREDICTED BY IDOCK:   -5.70 KCAL/MOL
REMARK 923 INTER-LIGAND FREE ENERGY PREDICTED BY IDOCK:   -5.43 KCAL/MOL
REMARK 924 INTRA-LIGAND FREE ENERGY PREDICTED BY IDOCK:   -0.27 KCAL/MOL
REMARK 927      BINDING AFFINITY PREDICTED BY RF-SCORE:    0.00 PKD
ROOT
HETATM    1  C   UNL     1     -10.408  11.674  68.036  1.00  0.00    -0.208 C  
HETATM    2  C   UNL     1     -11.757  12.412  67.918  1.00  0.00    -0.360 C  
ENDROOT
BRANCH   2   3
HETATM    3  C   UNL     1     -11.669  13.812  68.637  1.00  0.00    -0.356 C  
HETATM    4  H   UNL     1     -10.252  15.097  69.151  1.00  0.00     0.000 HD 
HETATM    5  O   UNL     1     -10.305  14.253  68.718  1.00  0.00    -0.237 OA 
BRANCH   3   6
HETATM    6  C   UNL     1     -12.331  13.970  70.002  1.00  0.00    -0.397 A  
HETATM    7  C   UNL     1     -12.522  12.844  70.823  1.00  0.00    -0.370 A  
HETATM    8  C   UNL     1     -13.318  12.932  71.972  1.00  0.00    -0.579 A  
HETATM    9  C   UNL     1     -13.911  14.141  72.327  1.00  0.00    -0.646 A  
HETATM   10  C   UNL     1     -13.674  15.279  71.561  1.00  0.00    -0.610 A  
HETATM   11  C   UNL     1     -12.881  15.196  70.414  1.00  0.00    -0.346 A  
ENDBRANCH   3   6
ENDBRANCH   2   3
BRANCH   2  12
HETATM   12  N   UNL     1     -12.148  12.509  66.471  1.00  0.00    -0.585 NA 
HETATM   13  C   UNL     1     -11.124  12.017  65.552  1.00  0.00    -0.313 C  
HETATM   14  C   UNL     1     -12.551  13.860  66.064  1.00  0.00    -0.423 C  
ENDBRANCH   2  12
TORSDOF 3
ENDMDL
MODEL       10
REMARK 921   NORMALIZED FREE ENERGY PREDICTED BY IDOCK:   -4.62 KCAL/MOL
REMARK 922        TOTAL FREE ENERGY PREDICTED BY IDOCK:   -5.69 KCAL/MOL
REMARK 923 INTER-LIGAND FREE ENERGY PREDICTED BY IDOCK:   -5.48 KCAL/MOL
REMARK 924 INTRA-LIGAND FREE ENERGY PREDICTED BY IDOCK:   -0.22 KCAL/MOL
REMARK 927      BINDING AFFINITY PREDICTED BY RF-SCORE:    0.00 PKD
ROOT
HETATM    1  C   UNL     1     -12.267  13.740  66.784  1.00  0.00    -0.440 C  
HETATM    2  C   UNL     1     -11.742  14.636  67.923  1.00  0.00    -0.351 C  
ENDROOT
BRANCH   2   3
HETATM    3  C   UNL     1     -11.413  13.759  69.191  1.00  0.00    -0.298 C  
HETATM    4  H   UNL     1     -11.597  11.864  69.735  1.00  0.00     0.000 HD 
HETATM    5  O   UNL     1     -11.796  12.393  68.971  1.00  0.00    -0.302 OA 
BRANCH   3   6
HETATM    6  C   UNL     1     -11.939  14.217  70.547  1.00  0.00    -0.402 A  
HETATM    7  C   UNL     1     -12.899  13.445  71.225  1.00  0.00    -0.407 A  
HETATM    8  C   UNL     1     -13.550  13.954  72.355  1.00  0.00    -0.676 A  
HETATM    9  C   UNL     1     -13.239  15.225  72.834  1.00  0.00    -0.610 A  
HETATM   10  C   UNL     1     -12.242  15.973  72.213  1.00  0.00    -0.604 A  
HETATM   11  C   UNL     1     -11.590  15.468  71.085  1.00  0.00    -0.446 A  
ENDBRANCH   3   6
ENDBRANCH   2   3
BRANCH   2  12
HETATM   12  N   UNL     1     -10.569  15.434  67.430  1.00  0.00    -0.283 NA 
HETATM   13  C   UNL     1     -10.535  16.803  67.940  1.00  0.00    -0.335 C  
HETATM   14  C   UNL     1     -10.455  15.463  65.968  1.00  0.00    -0.321 C  
ENDBRANCH   2  12
TORSDOF 3
ENDMDL
MODEL       11
REMARK 921   NORMALIZED FREE ENERGY PREDICTED BY IDOCK:   -4.60 KCAL/MOL
REMARK 922        TOTAL FREE ENERGY PREDICTED BY IDOCK:   -5.66 KCAL/MOL
REMARK 923 INTER-LIGAND FREE ENERGY PREDICTED BY IDOCK:   -5.40 KCAL/MOL
REMARK 924 INTRA-LIGAND FREE ENERGY PREDICTED BY IDOCK:   -0.26 KCAL/MOL
REMARK 927      BINDING AFFINITY PREDICTED BY RF-SCORE:    0.00 PKD
ROOT
HETATM    1  C   UNL     1     -10.591  14.403  64.883  1.00  0.00    -0.456 C  
HETATM    2  C   UNL     1     -10.680  15.293  66.138  1.00  0.00    -0.320 C  
ENDROOT
BRANCH   2   3
HETATM    3  C   UNL     1     -11.025  16.775  65.724  1.00  0.00     0.044 C  
HETATM    4  H   UNL     1     -11.459  17.756  64.059  1.00  0.00     0.000 HD 
HETATM    5  O   UNL     1     -11.251  16.863  64.309  1.00  0.00    -1.204 OA 
BRANCH   3   6
HETATM    6  C   UNL     1     -10.074  17.887  66.152  1.00  0.00    -0.322 A  
HETATM    7  C   UNL     1      -8.814  17.566  66.690  1.00  0.00    -0.284 A  
HETATM    8  C   UNL     1      -8.025  18.556  67.287  1.00  0.00    -0.241 A  
HETATM    9  C   UNL     1      -8.469  19.876  67.336  1.00  0.00    -0.377 A  
HETATM   10  C   UNL     1      -9.682  20.220  66.747  1.00  0.00    -0.571 A  
HETATM   11  C   UNL     1     -10.473  19.235  66.150  1.00  0.00    -0.577 A  
ENDBRANCH   3   6
ENDBRANCH   2   3
BRANCH   2  12
HETATM   12  N   UNL     1     -11.668  14.699  67.103  1.00  0.00    -0.385 NA 
HETATM   13  C   UNL     1     -11.480  15.145  68.481  1.00  0.00    -0.320 C  
HETATM   14  C   UNL     1     -11.705  13.233  67.071  1.00  0.00    -0.389 C  
ENDBRANCH   2  12
TORSDOF 3
ENDMDL
MODEL       12
REMARK 921   NORMALIZED FREE ENERGY PREDICTED BY IDOCK:   -4.55 KCAL/MOL
REMARK 922        TOTAL FREE ENERGY PREDICTED BY IDOCK:   -5.61 KCAL/MOL
REMARK 923 INTER-LIGAND FREE ENERGY PREDICTED BY IDOCK:   -5.29 KCAL/MOL
REMARK 924 INTRA-LIGAND FREE ENERGY PREDICTED BY IDOCK:   -0.32 KCAL/MOL
REMARK 927      BINDING AFFINITY PREDICTED BY RF-SCORE:    0.00 PKD
ROOT
HETATM    1  C   UNL     1     -11.893  16.261  72.214  1.00  0.00    -0.601 C  
HETATM    2  C   UNL     1     -11.481  15.243  71.133  1.00  0.00    -0.369 C  
ENDROOT
BRANCH   2   3
HETATM    3  C   UNL     1     -12.693  14.290  70.802  1.00  0.00    -0.350 C  
HETATM    4  H   UNL     1     -14.593  14.116  71.331  1.00  0.00     0.000 HD 
HETATM    5  O   UNL     1     -13.863  14.690  71.531  1.00  0.00    -0.385 OA 
BRANCH   3   6
HETATM    6  C   UNL     1     -12.495  12.786  70.952  1.00  0.00    -0.373 A  
HETATM    7  C   UNL     1     -11.742  12.077  69.999  1.00  0.00    -0.346 A  
HETATM    8  C   UNL     1     -11.734  10.678  69.999  1.00  0.00    -0.405 A  
HETATM    9  C   UNL     1     -12.454   9.969  70.958  1.00  0.00    -0.460 A  
HETATM   10  C   UNL     1     -13.147  10.657  71.949  1.00  0.00    -0.563 A  
HETATM   11  C   UNL     1     -13.159  12.054  71.953  1.00  0.00    -0.475 A  
ENDBRANCH   3   6
ENDBRANCH   2   3
BRANCH   2  12
HETATM   12  N   UNL     1     -10.954  15.975  69.932  1.00  0.00    -0.326 NA 
HETATM   13  C   UNL     1     -11.771  15.800  68.733  1.00  0.00    -0.378 C  
HETATM   14  C   UNL     1      -9.559  15.648  69.616  1.00  0.00    -0.260 C  
ENDBRANCH   2  12
TORSDOF 3
ENDMDL
MODEL       13
REMARK 921   NORMALIZED FREE ENERGY PREDICTED BY IDOCK:   -4.55 KCAL/MOL
REMARK 922        TOTAL FREE ENERGY PREDICTED BY IDOCK:   -5.60 KCAL/MOL
REMARK 923 INTER-LIGAND FREE ENERGY PREDICTED BY IDOCK:   -5.32 KCAL/MOL
REMARK 924 INTRA-LIGAND FREE ENERGY PREDICTED BY IDOCK:   -0.28 KCAL/MOL
REMARK 927      BINDING AFFINITY PREDICTED BY RF-SCORE:    0.00 PKD
ROOT
HETATM    1  C   UNL     1     -10.937  16.994  67.460  1.00  0.00    -0.119 C  
HETATM    2  C   UNL     1      -9.895  17.140  66.334  1.00  0.00    -0.300 C  
ENDROOT
BRANCH   2   3
HETATM    3  C   UNL     1     -10.333  16.290  65.080  1.00  0.00    -0.123 C  
HETATM    4  H   UNL     1     -11.620  16.461  63.585  1.00  0.00     0.000 HD 
HETATM    5  O   UNL     1     -11.356  16.973  64.341  1.00  0.00    -1.140 OA 
BRANCH   3   6
HETATM    6  C   UNL     1     -10.751  14.840  65.298  1.00  0.00    -0.406 A  
HETATM    7  C   UNL     1     -12.017  14.402  64.869  1.00  0.00    -0.430 A  
HETATM    8  C   UNL     1     -12.501  13.146  65.252  1.00  0.00    -0.550 A  
HETATM    9  C   UNL     1     -11.724  12.304  66.045  1.00  0.00    -0.451 A  
HETATM   10  C   UNL     1     -10.441  12.696  66.419  1.00  0.00    -0.267 A  
HETATM   11  C   UNL     1      -9.955  13.949  66.039  1.00  0.00    -0.325 A  
ENDBRANCH   3   6
ENDBRANCH   2   3
BRANCH   2  12
HETATM   12  N   UNL     1      -9.694  18.596  66.025  1.00  0.00    -0.507 NA 
HETATM   13  C   UNL     1      -8.311  19.043  66.177  1.00  0.00    -0.217 C  
HETATM   14  C   UNL     1     -10.574  19.483  66.795  1.00  0.00    -0.488 C  
ENDBRANCH   2  12
TORSDOF 3
ENDMDL
MODEL       14
REMARK 921   NORMALIZED FREE ENERGY PREDICTED BY IDOCK:   -4.50 KCAL/MOL
REMARK 922        TOTAL FREE ENERGY PREDICTED BY IDOCK:   -5.55 KCAL/MOL
REMARK 923 INTER-LIGAND FREE ENERGY PREDICTED BY IDOCK:   -5.32 KCAL/MOL
REMARK 924 INTRA-LIGAND FREE ENERGY PREDICTED BY IDOCK:   -0.23 KCAL/MOL
REMARK 927      BINDING AFFINITY PREDICTED BY RF-SCORE:    0.00 PKD
ROOT
HETATM    1  C   UNL     1     -10.595  14.391  64.884  1.00  0.00    -0.456 C  
HETATM    2  C   UNL     1     -10.699  15.240  66.166  1.00  0.00    -0.320 C  
ENDROOT
BRANCH   2   3
HETATM    3  C   UNL     1     -11.024  16.738  65.795  1.00  0.00     0.044 C  
HETATM    4  H   UNL     1     -11.405  17.780  64.155  1.00  0.00     0.000 HD 
HETATM    5  O   UNL     1     -11.209  16.877  64.378  1.00  0.00    -1.159 OA 
BRANCH   3   6
HETATM    6  C   UNL     1     -10.081  17.829  66.290  1.00  0.00    -0.345 A  
HETATM    7  C   UNL     1     -10.569  19.128  66.520  1.00  0.00    -0.523 A  
HETATM    8  C   UNL     1      -9.684  20.185  66.760  1.00  0.00    -0.577 A  
HETATM    9  C   UNL     1      -8.310  19.960  66.797  1.00  0.00    -0.364 A  
HETATM   10  C   UNL     1      -7.817  18.667  66.640  1.00  0.00    -0.271 A  
HETATM   11  C   UNL     1      -8.697  17.609  66.400  1.00  0.00    -0.263 A  
ENDBRANCH   3   6
ENDBRANCH   2   3
BRANCH   2  12
HETATM   12  N   UNL     1     -11.709  14.624  67.093  1.00  0.00    -0.385 NA 
HETATM   13  C   UNL     1     -11.542  15.021  68.489  1.00  0.00    -0.326 C  
HETATM   14  C   UNL     1     -11.758  13.159  67.011  1.00  0.00    -0.377 C  
ENDBRANCH   2  12
TORSDOF 3
ENDMDL
MODEL       15
REMARK 921   NORMALIZED FREE ENERGY PREDICTED BY IDOCK:   -4.49 KCAL/MOL
REMARK 922        TOTAL FREE ENERGY PREDICTED BY IDOCK:   -5.53 KCAL/MOL
REMARK 923 INTER-LIGAND FREE ENERGY PREDICTED BY IDOCK:   -5.22 KCAL/MOL
REMARK 924 INTRA-LIGAND FREE ENERGY PREDICTED BY IDOCK:   -0.31 KCAL/MOL
REMARK 927      BINDING AFFINITY PREDICTED BY RF-SCORE:    0.00 PKD
ROOT
HETATM    1  C   UNL     1      -9.114  15.248  68.675  1.00  0.00    -0.193 C  
HETATM    2  C   UNL     1     -10.511  14.657  68.403  1.00  0.00    -0.243 C  
ENDROOT
BRANCH   2   3
HETATM    3  C   UNL     1     -11.600  15.455  69.217  1.00  0.00    -0.339 C  
HETATM    4  H   UNL     1     -11.673  17.087  70.336  1.00  0.00     0.000 HD 
HETATM    5  O   UNL     1     -11.016  16.606  69.846  1.00  0.00    -0.347 OA 
BRANCH   3   6
HETATM    6  C   UNL     1     -12.445  14.697  70.235  1.00  0.00    -0.401 A  
HETATM    7  C   UNL     1     -13.322  15.399  71.081  1.00  0.00    -0.580 A  
HETATM    8  C   UNL     1     -13.935  14.753  72.161  1.00  0.00    -0.590 A  
HETATM    9  C   UNL     1     -13.702  13.400  72.397  1.00  0.00    -0.698 A  
HETATM   10  C   UNL     1     -12.890  12.677  71.527  1.00  0.00    -0.368 A  
HETATM   11  C   UNL     1     -12.276  13.318  70.449  1.00  0.00    -0.404 A  
ENDBRANCH   3   6
ENDBRANCH   2   3
BRANCH   2  12
HETATM   12  N   UNL     1     -10.767  14.639  66.923  1.00  0.00    -0.289 NA 
HETATM   13  C   UNL     1     -10.524  15.924  66.271  1.00  0.00    -0.318 C  
HETATM   14  C   UNL     1     -12.110  14.165  66.568  1.00  0.00    -0.454 C  
ENDBRANCH   2  12
TORSDOF 3
ENDMDL
MODEL       16
REMARK 921   NORMALIZED FREE ENERGY PREDICTED BY IDOCK:   -4.47 KCAL/MOL
REMARK 922        TOTAL FREE ENERGY PREDICTED BY IDOCK:   -5.52 KCAL/MOL
REMARK 923 INTER-LIGAND FREE ENERGY PREDICTED BY IDOCK:   -5.25 KCAL/MOL
REMARK 924 INTRA-LIGAND FREE ENERGY PREDICTED BY IDOCK:   -0.27 KCAL/MOL
REMARK 927      BINDING AFFINITY PREDICTED BY RF-SCORE:    0.00 PKD
ROOT
HETATM    1  C   UNL     1     -10.292  11.490  66.000  1.00  0.00    -0.290 C  
HETATM    2  C   UNL     1     -11.627  12.033  66.547  1.00  0.00    -0.314 C  
ENDROOT
BRANCH   2   3
HETATM    3  C   UNL     1     -11.354  13.080  67.693  1.00  0.00    -0.300 C  
HETATM    4  H   UNL     1      -9.813  14.121  68.374  1.00  0.00     0.000 HD 
HETATM    5  O   UNL     1      -9.978  13.489  67.683  1.00  0.00    -0.222 OA 
BRANCH   3   6
HETATM    6  C   UNL     1     -11.763  12.721  69.117  1.00  0.00    -0.375 A  
HETATM    7  C   UNL     1     -11.881  11.372  69.495  1.00  0.00    -0.426 A  
HETATM    8  C   UNL     1     -12.463  11.026  70.720  1.00  0.00    -0.491 A  
HETATM    9  C   UNL     1     -12.913  12.017  71.590  1.00  0.00    -0.439 A  
HETATM   10  C   UNL     1     -12.739  13.358  71.259  1.00  0.00    -0.424 A  
HETATM   11  C   UNL     1     -12.159  13.707  70.037  1.00  0.00    -0.417 A  
ENDBRANCH   3   6
ENDBRANCH   2   3
BRANCH   2  12
HETATM   12  N   UNL     1     -12.442  12.588  65.414  1.00  0.00    -0.647 NA 
HETATM   13  C   UNL     1     -11.881  12.305  64.095  1.00  0.00    -0.419 C  
HETATM   14  C   UNL     1     -12.698  14.028  65.530  1.00  0.00    -0.486 C  
ENDBRANCH   2  12
TORSDOF 3
ENDMDL
MODEL       17
REMARK 921   NORMALIZED FREE ENERGY PREDICTED BY IDOCK:   -4.45 KCAL/MOL
REMARK 922        TOTAL FREE ENERGY PREDICTED BY IDOCK:   -5.49 KCAL/MOL
REMARK 923 INTER-LIGAND FREE ENERGY PREDICTED BY IDOCK:   -5.20 KCAL/MOL
REMARK 924 INTRA-LIGAND FREE ENERGY PREDICTED BY IDOCK:   -0.29 KCAL/MOL
REMARK 927      BINDING AFFINITY PREDICTED BY RF-SCORE:    0.00 PKD
ROOT
HETATM    1  C   UNL     1     -11.632  14.409  68.454  1.00  0.00    -0.351 C  
HETATM    2  C   UNL     1     -11.403  15.185  67.142  1.00  0.00    -0.290 C  
ENDROOT
BRANCH   2   3
HETATM    3  C   UNL     1     -10.084  16.042  67.246  1.00  0.00    -0.266 C  
HETATM    4  H   UNL     1      -8.446  16.060  68.359  1.00  0.00     0.000 HD 
HETATM    5  O   UNL     1      -9.241  15.544  68.297  1.00  0.00    -0.183 OA 
BRANCH   3   6
HETATM    6  C   UNL     1     -10.210  17.555  67.377  1.00  0.00    -0.337 A  
HETATM    7  C   UNL     1     -10.405  18.345  66.229  1.00  0.00    -0.440 A  
HETATM    8  C   UNL     1     -10.304  19.739  66.302  1.00  0.00    -0.626 A  
HETATM    9  C   UNL     1     -10.031  20.363  67.518  1.00  0.00    -0.537 A  
HETATM   10  C   UNL     1      -9.904  19.598  68.674  1.00  0.00    -0.519 A  
HETATM   11  C   UNL     1     -10.004  18.206  68.605  1.00  0.00    -0.409 A  
ENDBRANCH   3   6
ENDBRANCH   2   3
BRANCH   2  12
HETATM   12  N   UNL     1     -11.399  14.223  65.987  1.00  0.00    -0.328 NA 
HETATM   13  C   UNL     1     -10.629  14.692  64.837  1.00  0.00    -0.422 C  
HETATM   14  C   UNL     1     -12.743  13.839  65.543  1.00  0.00    -0.488 C  
ENDBRANCH   2  12
TORSDOF 3
ENDMDL
MODEL       18
REMARK 921   NORMALIZED FREE ENERGY PREDICTED BY IDOCK:   -4.44 KCAL/MOL
REMARK 922        TOTAL FREE ENERGY PREDICTED BY IDOCK:   -5.48 KCAL/MOL
REMARK 923 INTER-LIGAND FREE ENERGY PREDICTED BY IDOCK:   -5.24 KCAL/MOL
REMARK 924 INTRA-LIGAND FREE ENERGY PREDICTED BY IDOCK:   -0.24 KCAL/MOL
REMARK 927      BINDING AFFINITY PREDICTED BY RF-SCORE:    0.00 PKD
ROOT
HETATM    1  C   UNL     1     -12.410  12.174  63.332  1.00  0.00    -0.648 C  
HETATM    2  C   UNL     1     -11.326  12.899  64.153  1.00  0.00    -0.393 C  
ENDROOT
BRANCH   2   3
HETATM    3  C   UNL     1     -11.948  13.463  65.488  1.00  0.00    -0.398 C  
HETATM    4  H   UNL     1     -13.714  14.108  66.109  1.00  0.00     0.000 HD 
HETATM    5  O   UNL     1     -13.339  13.769  65.305  1.00  0.00    -0.710 OA 
BRANCH   3   6
HETATM    6  C   UNL     1     -11.259  14.640  66.169  1.00  0.00    -0.341 A  
HETATM    7  C   UNL     1     -11.431  14.851  67.549  1.00  0.00    -0.361 A  
HETATM    8  C   UNL     1     -10.991  16.038  68.145  1.00  0.00    -0.339 A  
HETATM    9  C   UNL     1     -10.356  17.017  67.382  1.00  0.00    -0.319 A  
HETATM   10  C   UNL     1     -10.117  16.790  66.029  1.00  0.00    -0.350 A  
HETATM   11  C   UNL     1     -10.555  15.607  65.431  1.00  0.00    -0.436 A  
ENDBRANCH   3   6
ENDBRANCH   2   3
BRANCH   2  12
HETATM   12  N   UNL     1     -10.167  11.970  64.382  1.00  0.00    -0.290 NA 
HETATM   13  C   UNL     1      -9.726  11.276  63.175  1.00  0.00    -0.386 C  
HETATM   14  C   UNL     1     -10.409  10.986  65.443  1.00  0.00    -0.268 C  
ENDBRANCH   2  12
TORSDOF 3
ENDMDL
MODEL       19
REMARK 921   NORMALIZED FREE ENERGY PREDICTED BY IDOCK:   -4.43 KCAL/MOL
REMARK 922        TOTAL FREE ENERGY PREDICTED BY IDOCK:   -5.47 KCAL/MOL
REMARK 923 INTER-LIGAND FREE ENERGY PREDICTED BY IDOCK:   -5.20 KCAL/MOL
REMARK 924 INTRA-LIGAND FREE ENERGY PREDICTED BY IDOCK:   -0.27 KCAL/MOL
REMARK 927      BINDING AFFINITY PREDICTED BY RF-SCORE:    0.00 PKD
ROOT
HETATM    1  C   UNL     1     -10.151  13.743  67.414  1.00  0.00    -0.244 C  
HETATM    2  C   UNL     1     -11.141  14.773  66.835  1.00  0.00    -0.339 C  
ENDROOT
BRANCH   2   3
HETATM    3  C   UNL     1     -10.351  15.980  66.200  1.00  0.00    -0.328 C  
HETATM    4  H   UNL     1      -8.504  16.348  65.586  1.00  0.00     0.000 HD 
HETATM    5  O   UNL     1      -8.980  15.620  65.969  1.00  0.00    -0.334 OA 
BRANCH   3   6
HETATM    6  C   UNL     1     -10.406  17.333  66.901  1.00  0.00    -0.310 A  
HETATM    7  C   UNL     1     -10.637  18.502  66.155  1.00  0.00    -0.377 A  
HETATM    8  C   UNL     1     -10.473  19.762  66.742  1.00  0.00    -0.610 A  
HETATM    9  C   UNL     1     -10.100  19.873  68.080  1.00  0.00    -0.572 A  
HETATM   10  C   UNL     1      -9.935  18.724  68.849  1.00  0.00    -0.423 A  
HETATM   11  C   UNL     1     -10.098  17.464  68.266  1.00  0.00    -0.339 A  
ENDBRANCH   3   6
ENDBRANCH   2   3
BRANCH   2  12
HETATM   12  N   UNL     1     -12.064  14.089  65.867  1.00  0.00    -0.405 NA 
HETATM   13  C   UNL     1     -11.845  12.648  65.767  1.00  0.00    -0.444 C  
HETATM   14  C   UNL     1     -12.037  14.675  64.522  1.00  0.00    -0.475 C  
ENDBRANCH   2  12
TORSDOF 3
ENDMDL
MODEL       20
REMARK 921   NORMALIZED FREE ENERGY PREDICTED BY IDOCK:   -4.42 KCAL/MOL
REMARK 922        TOTAL FREE ENERGY PREDICTED BY IDOCK:   -5.45 KCAL/MOL
REMARK 923 INTER-LIGAND FREE ENERGY PREDICTED BY IDOCK:   -5.18 KCAL/MOL
REMARK 924 INTRA-LIGAND FREE ENERGY PREDICTED BY IDOCK:   -0.27 KCAL/MOL
REMARK 927      BINDING AFFINITY PREDICTED BY RF-SCORE:    0.00 PKD
ROOT
HETATM    1  C   UNL     1     -10.531   8.483  72.092  1.00  0.00    -0.412 C  
HETATM    2  C   UNL     1     -11.915   9.031  71.692  1.00  0.00    -0.356 C  
ENDROOT
BRANCH   2   3
HETATM    3  C   UNL     1     -11.760  10.099  70.542  1.00  0.00    -0.322 C  
HETATM    4  H   UNL     1     -10.287  10.881  69.473  1.00  0.00     0.000 HD 
HETATM    5  O   UNL     1     -10.381  10.237  70.166  1.00  0.00    -0.256 OA 
BRANCH   3   6
HETATM    6  C   UNL     1     -12.367  11.482  70.749  1.00  0.00    -0.472 A  
HETATM    7  C   UNL     1     -12.031  12.534  69.878  1.00  0.00    -0.371 A  
HETATM    8  C   UNL     1     -12.401  13.850  70.180  1.00  0.00    -0.400 A  
HETATM    9  C   UNL     1     -13.128  14.130  71.335  1.00  0.00    -0.428 A  
HETATM   10  C   UNL     1     -13.528  13.089  72.169  1.00  0.00    -0.638 A  
HETATM   11  C   UNL     1     -13.159  11.775  71.873  1.00  0.00    -0.482 A  
ENDBRANCH   3   6
ENDBRANCH   2   3
BRANCH   2  12
HETATM   12  N   UNL     1     -12.818   7.888  71.325  1.00  0.00    -0.264 NA 
HETATM   13  C   UNL     1     -14.211   8.092  71.718  1.00  0.00    -0.462 C  
HETATM   14  C   UNL     1     -12.358   6.593  71.839  1.00  0.00    -0.318 C  
ENDBRANCH   2  12
TORSDOF 3
ENDMDL
MODEL       21
REMARK 921   NORMALIZED FREE ENERGY PREDICTED BY IDOCK:   -4.41 KCAL/MOL
REMARK 922        TOTAL FREE ENERGY PREDICTED BY IDOCK:   -5.44 KCAL/MOL
REMARK 923 INTER-LIGAND FREE ENERGY PREDICTED BY IDOCK:   -5.11 KCAL/MOL
REMARK 924 INTRA-LIGAND FREE ENERGY PREDICTED BY IDOCK:   -0.33 KCAL/MOL
REMARK 927      BINDING AFFINITY PREDICTED BY RF-SCORE:    0.00 PKD
ROOT
HETATM    1  C   UNL     1      -9.204  15.282  66.312  1.00  0.00    -0.350 C  
HETATM    2  C   UNL     1     -10.294  14.197  66.211  1.00  0.00    -0.292 C  
ENDROOT
BRANCH   2   3
HETATM    3  C   UNL     1     -11.471  14.522  67.209  1.00  0.00    -0.365 C  
HETATM    4  H   UNL     1     -11.985  16.005  68.417  1.00  0.00     0.000 HD 
HETATM    5  O   UNL     1     -11.275  15.808  67.817  1.00  0.00    -0.336 OA 
BRANCH   3   6
HETATM    6  C   UNL     1     -11.811  13.501  68.288  1.00  0.00    -0.401 A  
HETATM    7  C   UNL     1     -12.101  13.931  69.596  1.00  0.00    -0.404 A  
HETATM    8  C   UNL     1     -12.197  13.006  70.641  1.00  0.00    -0.390 A  
HETATM    9  C   UNL     1     -12.030  11.644  70.395  1.00  0.00    -0.448 A  
HETATM   10  C   UNL     1     -11.812  11.199  69.094  1.00  0.00    -0.419 A  
HETATM   11  C   UNL     1     -11.714  12.119  68.048  1.00  0.00    -0.409 A  
ENDBRANCH   3   6
ENDBRANCH   2   3
BRANCH   2  12
HETATM   12  N   UNL     1     -10.741  14.070  64.783  1.00  0.00    -0.417 NA 
HETATM   13  C   UNL     1     -12.126  14.480  64.564  1.00  0.00    -0.484 C  
HETATM   14  C   UNL     1     -10.543  12.726  64.227  1.00  0.00    -0.400 C  
ENDBRANCH   2  12
TORSDOF 3
ENDMDL
MODEL       22
REMARK 921   NORMALIZED FREE ENERGY PREDICTED BY IDOCK:   -4.40 KCAL/MOL
REMARK 922        TOTAL FREE ENERGY PREDICTED BY IDOCK:   -5.44 KCAL/MOL
REMARK 923 INTER-LIGAND FREE ENERGY PREDICTED BY IDOCK:   -5.28 KCAL/MOL
REMARK 924 INTRA-LIGAND FREE ENERGY PREDICTED BY IDOCK:   -0.16 KCAL/MOL
REMARK 927      BINDING AFFINITY PREDICTED BY RF-SCORE:    0.00 PKD
ROOT
HETATM    1  C   UNL     1     -10.277  14.577  64.994  1.00  0.00    -0.398 C  
HETATM    2  C   UNL     1     -10.755  13.112  65.000  1.00  0.00    -0.323 C  
ENDROOT
BRANCH   2   3
HETATM    3  C   UNL     1     -12.015  12.960  65.936  1.00  0.00    -0.448 C  
HETATM    4  H   UNL     1     -13.585  14.053  66.449  1.00  0.00     0.000 HD 
HETATM    5  O   UNL     1     -12.826  14.145  65.885  1.00  0.00    -0.471 OA 
BRANCH   3   6
HETATM    6  C   UNL     1     -11.795  12.563  67.391  1.00  0.00    -0.381 A  
HETATM    7  C   UNL     1     -11.506  11.225  67.718  1.00  0.00    -0.350 A  
HETATM    8  C   UNL     1     -11.519  10.803  69.052  1.00  0.00    -0.368 A  
HETATM    9  C   UNL     1     -11.795  11.707  70.075  1.00  0.00    -0.435 A  
HETATM   10  C   UNL     1     -12.014  13.048  69.771  1.00  0.00    -0.377 A  
HETATM   11  C   UNL     1     -12.003  13.474  68.441  1.00  0.00    -0.378 A  
ENDBRANCH   3   6
ENDBRANCH   2   3
BRANCH   2  12
HETATM   12  N   UNL     1     -11.004  12.661  63.589  1.00  0.00    -0.437 NA 
HETATM   13  C   UNL     1     -12.352  12.143  63.368  1.00  0.00    -0.538 C  
HETATM   14  C   UNL     1     -10.026  11.678  63.109  1.00  0.00    -0.375 C  
ENDBRANCH   2  12
TORSDOF 3
ENDMDL
MODEL       23
REMARK 921   NORMALIZED FREE ENERGY PREDICTED BY IDOCK:   -4.28 KCAL/MOL
REMARK 922        TOTAL FREE ENERGY PREDICTED BY IDOCK:   -5.29 KCAL/MOL
REMARK 923 INTER-LIGAND FREE ENERGY PREDICTED BY IDOCK:   -5.02 KCAL/MOL
REMARK 924 INTRA-LIGAND FREE ENERGY PREDICTED BY IDOCK:   -0.27 KCAL/MOL
REMARK 927      BINDING AFFINITY PREDICTED BY RF-SCORE:    0.00 PKD
ROOT
HETATM    1  C   UNL     1     -11.913  14.350  66.409  1.00  0.00    -0.402 C  
HETATM    2  C   UNL     1     -10.621  15.191  66.418  1.00  0.00    -0.305 C  
ENDROOT
BRANCH   2   3
HETATM    3  C   UNL     1     -10.592  16.120  67.692  1.00  0.00    -0.315 C  
HETATM    4  H   UNL     1     -11.703  16.410  69.306  1.00  0.00     0.000 HD 
HETATM    5  O   UNL     1     -11.720  15.850  68.538  1.00  0.00    -0.383 OA 
BRANCH   3   6
HETATM    6  C   UNL     1     -10.462  17.625  67.489  1.00  0.00    -0.365 A  
HETATM    7  C   UNL     1     -10.523  18.167  66.193  1.00  0.00    -0.377 A  
HETATM    8  C   UNL     1     -10.189  19.508  65.968  1.00  0.00    -0.567 A  
HETATM    9  C   UNL     1      -9.814  20.328  67.031  1.00  0.00    -0.607 A  
HETATM   10  C   UNL     1      -9.817  19.823  68.328  1.00  0.00    -0.537 A  
HETATM   11  C   UNL     1     -10.149  18.485  68.556  1.00  0.00    -0.414 A  
ENDBRANCH   3   6
ENDBRANCH   2   3
BRANCH   2  12
HETATM   12  N   UNL     1      -9.431  14.280  66.318  1.00  0.00    -0.277 NA 
HETATM   13  C   UNL     1      -9.743  12.877  66.585  1.00  0.00    -0.254 C  
HETATM   14  C   UNL     1      -8.307  14.693  67.166  1.00  0.00    -0.211 C  
ENDBRANCH   2  12
TORSDOF 3
ENDMDL
MODEL       24
REMARK 921   NORMALIZED FREE ENERGY PREDICTED BY IDOCK:   -4.27 KCAL/MOL
REMARK 922        TOTAL FREE ENERGY PREDICTED BY IDOCK:   -5.28 KCAL/MOL
REMARK 923 INTER-LIGAND FREE ENERGY PREDICTED BY IDOCK:   -5.02 KCAL/MOL
REMARK 924 INTRA-LIGAND FREE ENERGY PREDICTED BY IDOCK:   -0.27 KCAL/MOL
REMARK 927      BINDING AFFINITY PREDICTED BY RF-SCORE:    0.00 PKD
ROOT
HETATM    1  C   UNL     1     -11.871  14.513  68.540  1.00  0.00    -0.355 C  
HETATM    2  C   UNL     1     -11.406  15.246  67.266  1.00  0.00    -0.269 C  
ENDROOT
BRANCH   2   3
HETATM    3  C   UNL     1     -10.050  16.001  67.544  1.00  0.00    -0.247 C  
HETATM    4  H   UNL     1      -8.694  16.071  68.986  1.00  0.00     0.000 HD 
HETATM    5  O   UNL     1      -9.511  15.616  68.818  1.00  0.00    -0.193 OA 
BRANCH   3   6
HETATM    6  C   UNL     1     -10.029  17.521  67.427  1.00  0.00    -0.315 A  
HETATM    7  C   UNL     1      -9.950  18.314  68.586  1.00  0.00    -0.410 A  
HETATM    8  C   UNL     1     -10.149  19.697  68.515  1.00  0.00    -0.557 A  
HETATM    9  C   UNL     1     -10.407  20.310  67.290  1.00  0.00    -0.420 A  
HETATM   10  C   UNL     1     -10.419  19.546  66.125  1.00  0.00    -0.613 A  
HETATM   11  C   UNL     1     -10.221  18.165  66.193  1.00  0.00    -0.372 A  
ENDBRANCH   3   6
ENDBRANCH   2   3
BRANCH   2  12
HETATM   12  N   UNL     1     -11.320  14.267  66.130  1.00  0.00    -0.335 NA 
HETATM   13  C   UNL     1     -10.394  14.674  65.075  1.00  0.00    -0.402 C  
HETATM   14  C   UNL     1     -12.622  13.951  65.532  1.00  0.00    -0.526 C  
ENDBRANCH   2  12
TORSDOF 3
ENDMDL
MODEL       25
REMARK 921   NORMALIZED FREE ENERGY PREDICTED BY IDOCK:   -4.27 KCAL/MOL
REMARK 922        TOTAL FREE ENERGY PREDICTED BY IDOCK:   -5.28 KCAL/MOL
REMARK 923 INTER-LIGAND FREE ENERGY PREDICTED BY IDOCK:   -5.00 KCAL/MOL
REMARK 924 INTRA-LIGAND FREE ENERGY PREDICTED BY IDOCK:   -0.28 KCAL/MOL
REMARK 927      BINDING AFFINITY PREDICTED BY RF-SCORE:    0.00 PKD
ROOT
HETATM    1  C   UNL     1      -9.563  15.782  68.860  1.00  0.00    -0.229 C  
HETATM    2  C   UNL     1     -10.663  14.775  68.471  1.00  0.00    -0.247 C  
ENDROOT
BRANCH   2   3
HETATM    3  C   UNL     1     -11.864  14.870  69.488  1.00  0.00    -0.325 C  
HETATM    4  H   UNL     1     -12.452  16.090  70.934  1.00  0.00     0.000 HD 
HETATM    5  O   UNL     1     -11.728  16.032  70.321  1.00  0.00    -0.338 OA 
BRANCH   3   6
HETATM    6  C   UNL     1     -12.175  13.659  70.360  1.00  0.00    -0.434 A  
HETATM    7  C   UNL     1     -11.874  12.365  69.897  1.00  0.00    -0.376 A  
HETATM    8  C   UNL     1     -12.349  11.239  70.580  1.00  0.00    -0.477 A  
HETATM    9  C   UNL     1     -13.105  11.387  71.741  1.00  0.00    -0.523 A  
HETATM   10  C   UNL     1     -13.351  12.660  72.248  1.00  0.00    -0.527 A  
HETATM   11  C   UNL     1     -12.880  13.786  71.569  1.00  0.00    -0.445 A  
ENDBRANCH   3   6
ENDBRANCH   2   3
BRANCH   2  12
HETATM   12  N   UNL     1     -11.070  15.007  67.044  1.00  0.00    -0.330 NA 
HETATM   13  C   UNL     1     -12.120  14.102  66.580  1.00  0.00    -0.451 C  
HETATM   14  C   UNL     1      -9.946  14.965  66.102  1.00  0.00    -0.303 C  
ENDBRANCH   2  12
TORSDOF 3
ENDMDL
MODEL       26
REMARK 921   NORMALIZED FREE ENERGY PREDICTED BY IDOCK:   -4.24 KCAL/MOL
REMARK 922        TOTAL FREE ENERGY PREDICTED BY IDOCK:   -5.25 KCAL/MOL
REMARK 923 INTER-LIGAND FREE ENERGY PREDICTED BY IDOCK:   -4.96 KCAL/MOL
REMARK 924 INTRA-LIGAND FREE ENERGY PREDICTED BY IDOCK:   -0.29 KCAL/MOL
REMARK 927      BINDING AFFINITY PREDICTED BY RF-SCORE:    0.00 PKD
ROOT
HETATM    1  C   UNL     1     -11.941  14.028  69.395  1.00  0.00    -0.390 C  
HETATM    2  C   UNL     1     -11.024  13.252  68.429  1.00  0.00    -0.264 C  
ENDROOT
BRANCH   2   3
HETATM    3  C   UNL     1     -11.887  12.303  67.512  1.00  0.00    -0.261 C  
HETATM    4  H   UNL     1     -12.550  10.438  67.567  1.00  0.00     0.000 HD 
HETATM    5  O   UNL     1     -12.030  11.010  68.119  1.00  0.00    -0.610 OA 
BRANCH   3   6
HETATM    6  C   UNL     1     -11.476  12.133  66.054  1.00  0.00    -0.427 A  
HETATM    7  C   UNL     1     -12.198  12.788  65.040  1.00  0.00    -0.527 A  
HETATM    8  C   UNL     1     -11.976  12.473  63.694  1.00  0.00    -0.621 A  
HETATM    9  C   UNL     1     -11.020  11.522  63.342  1.00  0.00    -0.397 A  
HETATM   10  C   UNL     1     -10.250  10.916  64.332  1.00  0.00    -0.423 A  
HETATM   11  C   UNL     1     -10.469  11.228  65.676  1.00  0.00    -0.317 A  
ENDBRANCH   3   6
ENDBRANCH   2   3
BRANCH   2  12
HETATM   12  N   UNL     1     -10.180  14.223  67.654  1.00  0.00    -0.236 NA 
HETATM   13  C   UNL     1      -8.805  14.322  68.138  1.00  0.00    -0.183 C  
HETATM   14  C   UNL     1     -10.760  15.569  67.575  1.00  0.00    -0.300 C  
ENDBRANCH   2  12
TORSDOF 3
ENDMDL
MODEL       27
REMARK 921   NORMALIZED FREE ENERGY PREDICTED BY IDOCK:   -4.24 KCAL/MOL
REMARK 922        TOTAL FREE ENERGY PREDICTED BY IDOCK:   -5.24 KCAL/MOL
REMARK 923 INTER-LIGAND FREE ENERGY PREDICTED BY IDOCK:   -5.01 KCAL/MOL
REMARK 924 INTRA-LIGAND FREE ENERGY PREDICTED BY IDOCK:   -0.23 KCAL/MOL
REMARK 927      BINDING AFFINITY PREDICTED BY RF-SCORE:    0.00 PKD
ROOT
HETATM    1  C   UNL     1     -13.910   9.047  72.189  1.00  0.00    -0.526 C  
HETATM    2  C   UNL     1     -12.888   9.463  71.113  1.00  0.00    -0.251 C  
ENDROOT
BRANCH   2   3
HETATM    3  C   UNL     1     -12.414  10.946  71.366  1.00  0.00    -0.355 C  
HETATM    4  H   UNL     1     -13.087  12.544  72.321  1.00  0.00     0.000 HD 
HETATM    5  O   UNL     1     -13.373  11.651  72.169  1.00  0.00    -0.491 OA 
BRANCH   3   6
HETATM    6  C   UNL     1     -12.038  11.802  70.162  1.00  0.00    -0.398 A  
HETATM    7  C   UNL     1     -12.160  13.202  70.230  1.00  0.00    -0.399 A  
HETATM    8  C   UNL     1     -12.032  13.982  69.075  1.00  0.00    -0.392 A  
HETATM    9  C   UNL     1     -11.758  13.383  67.847  1.00  0.00    -0.396 A  
HETATM   10  C   UNL     1     -11.567  12.006  67.777  1.00  0.00    -0.400 A  
HETATM   11  C   UNL     1     -11.695  11.223  68.927  1.00  0.00    -0.409 A  
ENDBRANCH   3   6
ENDBRANCH   2   3
BRANCH   2  12
HETATM   12  N   UNL     1     -11.758   8.473  71.087  1.00  0.00    -0.279 NA 
HETATM   13  C   UNL     1     -12.166   7.109  71.417  1.00  0.00    -0.362 C  
HETATM   14  C   UNL     1     -10.627   8.856  71.940  1.00  0.00    -0.349 C  
ENDBRANCH   2  12
TORSDOF 3
ENDMDL
MODEL       28
REMARK 921   NORMALIZED FREE ENERGY PREDICTED BY IDOCK:   -4.20 KCAL/MOL
REMARK 922        TOTAL FREE ENERGY PREDICTED BY IDOCK:   -5.20 KCAL/MOL
REMARK 923 INTER-LIGAND FREE ENERGY PREDICTED BY IDOCK:   -4.97 KCAL/MOL
REMARK 924 INTRA-LIGAND FREE ENERGY PREDICTED BY IDOCK:   -0.23 KCAL/MOL
REMARK 927      BINDING AFFINITY PREDICTED BY RF-SCORE:    0.00 PKD
ROOT
HETATM    1  C   UNL     1     -10.798  13.424  68.750  1.00  0.00    -0.275 C  
HETATM    2  C   UNL     1     -11.122  11.918  68.755  1.00  0.00    -0.245 C  
ENDROOT
BRANCH   2   3
HETATM    3  C   UNL     1     -12.165  11.595  69.893  1.00  0.00    -0.239 C  
HETATM    4  H   UNL     1     -12.900  12.504  71.492  1.00  0.00     0.000 HD 
HETATM    5  O   UNL     1     -12.271  12.698  70.807  1.00  0.00    -0.366 OA 
BRANCH   3   6
HETATM    6  C   UNL     1     -12.002  10.301  70.681  1.00  0.00    -0.436 A  
HETATM    7  C   UNL     1     -13.088   9.780  71.408  1.00  0.00    -0.489 A  
HETATM    8  C   UNL     1     -12.898   8.723  72.306  1.00  0.00    -0.465 A  
HETATM    9  C   UNL     1     -11.635   8.160  72.475  1.00  0.00    -0.468 A  
HETATM   10  C   UNL     1     -10.566   8.619  71.711  1.00  0.00    -0.395 A  
HETATM   11  C   UNL     1     -10.751   9.674  70.813  1.00  0.00    -0.401 A  
ENDBRANCH   3   6
ENDBRANCH   2   3
BRANCH   2  12
HETATM   12  N   UNL     1     -11.583  11.500  67.388  1.00  0.00    -0.556 NA 
HETATM   13  C   UNL     1     -10.661  10.592  66.710  1.00  0.00    -0.237 C  
HETATM   14  C   UNL     1     -11.882  12.632  66.503  1.00  0.00    -0.396 C  
ENDBRANCH   2  12
TORSDOF 3
ENDMDL
MODEL       29
REMARK 921   NORMALIZED FREE ENERGY PREDICTED BY IDOCK:   -4.19 KCAL/MOL
REMARK 922        TOTAL FREE ENERGY PREDICTED BY IDOCK:   -5.18 KCAL/MOL
REMARK 923 INTER-LIGAND FREE ENERGY PREDICTED BY IDOCK:   -4.84 KCAL/MOL
REMARK 924 INTRA-LIGAND FREE ENERGY PREDICTED BY IDOCK:   -0.34 KCAL/MOL
REMARK 927      BINDING AFFINITY PREDICTED BY RF-SCORE:    0.00 PKD
ROOT
HETATM    1  C   UNL     1      -7.952  15.988  66.600  1.00  0.00    -0.291 C  
HETATM    2  C   UNL     1      -9.246  16.570  65.997  1.00  0.00    -0.260 C  
ENDROOT
BRANCH   2   3
HETATM    3  C   UNL     1     -10.502  15.966  66.734  1.00  0.00    -0.309 C  
HETATM    4  H   UNL     1     -10.921  15.222  68.521  1.00  0.00     0.000 HD 
HETATM    5  O   UNL     1     -10.164  15.585  68.077  1.00  0.00    -0.225 OA 
BRANCH   3   6
HETATM    6  C   UNL     1     -11.259  14.826  66.062  1.00  0.00    -0.341 A  
HETATM    7  C   UNL     1     -11.458  13.614  66.749  1.00  0.00    -0.370 A  
HETATM    8  C   UNL     1     -11.951  12.491  66.076  1.00  0.00    -0.456 A  
HETATM    9  C   UNL     1     -12.274  12.565  64.722  1.00  0.00    -0.532 A  
HETATM   10  C   UNL     1     -12.148  13.777  64.048  1.00  0.00    -0.448 A  
HETATM   11  C   UNL     1     -11.655  14.900  64.716  1.00  0.00    -0.410 A  
ENDBRANCH   3   6
ENDBRANCH   2   3
BRANCH   2  12
HETATM   12  N   UNL     1      -9.190  18.070  66.048  1.00  0.00    -0.522 NA 
HETATM   13  C   UNL     1      -8.413  18.590  67.171  1.00  0.00    -0.265 C  
HETATM   14  C   UNL     1     -10.513  18.705  66.042  1.00  0.00    -0.414 C  
ENDBRANCH   2  12
TORSDOF 3
ENDMDL
MODEL       30
REMARK 921   NORMALIZED FREE ENERGY PREDICTED BY IDOCK:   -4.19 KCAL/MOL
REMARK 922        TOTAL FREE ENERGY PREDICTED BY IDOCK:   -5.18 KCAL/MOL
REMARK 923 INTER-LIGAND FREE ENERGY PREDICTED BY IDOCK:   -4.86 KCAL/MOL
REMARK 924 INTRA-LIGAND FREE ENERGY PREDICTED BY IDOCK:   -0.32 KCAL/MOL
REMARK 927      BINDING AFFINITY PREDICTED BY RF-SCORE:    0.00 PKD
ROOT
HETATM    1  C   UNL     1     -12.722  13.953  65.215  1.00  0.00    -0.485 C  
HETATM    2  C   UNL     1     -11.409  13.155  65.338  1.00  0.00    -0.297 C  
ENDROOT
BRANCH   2   3
HETATM    3  C   UNL     1     -11.185  12.716  66.836  1.00  0.00    -0.300 C  
HETATM    4  H   UNL     1     -11.990  11.433  68.111  1.00  0.00     0.000 HD 
HETATM    5  O   UNL     1     -12.126  11.698  67.209  1.00  0.00    -0.595 OA 
BRANCH   3   6
HETATM    6  C   UNL     1     -11.157  13.796  67.912  1.00  0.00    -0.285 A  
HETATM    7  C   UNL     1     -12.033  13.715  69.010  1.00  0.00    -0.392 A  
HETATM    8  C   UNL     1     -12.176  14.799  69.884  1.00  0.00    -0.358 A  
HETATM    9  C   UNL     1     -11.434  15.963  69.691  1.00  0.00    -0.346 A  
HETATM   10  C   UNL     1     -10.513  16.030  68.649  1.00  0.00    -0.251 A  
HETATM   11  C   UNL     1     -10.368  14.951  67.774  1.00  0.00    -0.244 A  
ENDBRANCH   3   6
ENDBRANCH   2   3
BRANCH   2  12
HETATM   12  N   UNL     1     -11.433  12.002  64.377  1.00  0.00    -0.344 NA 
HETATM   13  C   UNL     1     -10.241  11.915  63.536  1.00  0.00    -0.457 C  
HETATM   14  C   UNL     1     -12.627  11.977  63.524  1.00  0.00    -0.507 C  
ENDBRANCH   2  12
TORSDOF 3
ENDMDL
MODEL       31
REMARK 921   NORMALIZED FREE ENERGY PREDICTED BY IDOCK:   -4.18 KCAL/MOL
REMARK 922        TOTAL FREE ENERGY PREDICTED BY IDOCK:   -5.17 KCAL/MOL
REMARK 923 INTER-LIGAND FREE ENERGY PREDICTED BY IDOCK:   -4.92 KCAL/MOL
REMARK 924 INTRA-LIGAND FREE ENERGY PREDICTED BY IDOCK:   -0.25 KCAL/MOL
REMARK 927      BINDING AFFINITY PREDICTED BY RF-SCORE:    0.00 PKD
ROOT
HETATM    1  C   UNL     1     -11.274  16.417  68.631  1.00  0.00    -0.332 C  
HETATM    2  C   UNL     1     -10.704  15.483  67.545  1.00  0.00    -0.300 C  
ENDROOT
BRANCH   2   3
HETATM    3  C   UNL     1     -11.822  14.486  67.053  1.00  0.00    -0.385 C  
HETATM    4  H   UNL     1     -12.919  13.033  67.831  1.00  0.00     0.000 HD 
HETATM    5  O   UNL     1     -12.245  13.633  68.128  1.00  0.00    -0.322 OA 
BRANCH   3   6
HETATM    6  C   UNL     1     -11.544  13.639  65.816  1.00  0.00    -0.349 A  
HETATM    7  C   UNL     1     -12.167  13.954  64.595  1.00  0.00    -0.449 A  
HETATM    8  C   UNL     1     -12.098  13.067  63.515  1.00  0.00    -0.617 A  
HETATM    9  C   UNL     1     -11.392  11.871  63.629  1.00  0.00    -0.536 A  
HETATM   10  C   UNL     1     -10.714  11.579  64.809  1.00  0.00    -0.366 A  
HETATM   11  C   UNL     1     -10.780  12.461  65.890  1.00  0.00    -0.299 A  
ENDBRANCH   3   6
ENDBRANCH   2   3
BRANCH   2  12
HETATM   12  N   UNL     1     -10.111  16.308  66.438  1.00  0.00    -0.289 NA 
HETATM   13  C   UNL     1      -8.712  15.993  66.158  1.00  0.00    -0.313 C  
HETATM   14  C   UNL     1     -10.247  17.753  66.650  1.00  0.00    -0.361 C  
ENDBRANCH   2  12
TORSDOF 3
ENDMDL
MODEL       32
REMARK 921   NORMALIZED FREE ENERGY PREDICTED BY IDOCK:   -4.18 KCAL/MOL
REMARK 922        TOTAL FREE ENERGY PREDICTED BY IDOCK:   -5.17 KCAL/MOL
REMARK 923 INTER-LIGAND FREE ENERGY PREDICTED BY IDOCK:   -4.82 KCAL/MOL
REMARK 924 INTRA-LIGAND FREE ENERGY PREDICTED BY IDOCK:   -0.34 KCAL/MOL
REMARK 927      BINDING AFFINITY PREDICTED BY RF-SCORE:    0.00 PKD
ROOT
HETATM    1  C   UNL     1     -10.608  14.740  64.947  1.00  0.00    -0.431 C  
HETATM    2  C   UNL     1     -10.816  13.219  65.083  1.00  0.00    -0.310 C  
ENDROOT
BRANCH   2   3
HETATM    3  C   UNL     1     -11.989  12.925  66.095  1.00  0.00    -0.429 C  
HETATM    4  H   UNL     1     -13.236  13.974  67.221  1.00  0.00     0.000 HD 
HETATM    5  O   UNL     1     -12.528  14.152  66.612  1.00  0.00    -0.426 OA 
BRANCH   3   6
HETATM    6  C   UNL     1     -11.729  11.963  67.248  1.00  0.00    -0.319 A  
HETATM    7  C   UNL     1     -11.996  12.363  68.570  1.00  0.00    -0.273 A  
HETATM    8  C   UNL     1     -11.561  11.584  69.648  1.00  0.00    -0.403 A  
HETATM    9  C   UNL     1     -10.877  10.390  69.425  1.00  0.00    -0.287 A  
HETATM   10  C   UNL     1     -10.667   9.948  68.121  1.00  0.00    -0.279 A  
HETATM   11  C   UNL     1     -11.099  10.723  67.043  1.00  0.00    -0.245 A  
ENDBRANCH   3   6
ENDBRANCH   2   3
BRANCH   2  12
HETATM   12  N   UNL     1     -11.038  12.621  63.723  1.00  0.00    -0.432 NA 
HETATM   13  C   UNL     1     -12.383  12.084  63.532  1.00  0.00    -0.551 C  
HETATM   14  C   UNL     1     -10.054  11.592  63.370  1.00  0.00    -0.440 C  
ENDBRANCH   2  12
TORSDOF 3
ENDMDL
MODEL       33
REMARK 921   NORMALIZED FREE ENERGY PREDICTED BY IDOCK:   -4.17 KCAL/MOL
REMARK 922        TOTAL FREE ENERGY PREDICTED BY IDOCK:   -5.16 KCAL/MOL
REMARK 923 INTER-LIGAND FREE ENERGY PREDICTED BY IDOCK:   -4.90 KCAL/MOL
REMARK 924 INTRA-LIGAND FREE ENERGY PREDICTED BY IDOCK:   -0.26 KCAL/MOL
REMARK 927      BINDING AFFINITY PREDICTED BY RF-SCORE:    0.00 PKD
ROOT
HETATM    1  C   UNL     1     -12.167  12.552  63.462  1.00  0.00    -0.652 C  
HETATM    2  C   UNL     1     -10.859  12.272  64.229  1.00  0.00    -0.348 C  
ENDROOT
BRANCH   2   3
HETATM    3  C   UNL     1     -11.057  12.583  65.762  1.00  0.00    -0.308 C  
HETATM    4  H   UNL     1     -12.502  12.413  67.105  1.00  0.00     0.000 HD 
HETATM    5  O   UNL     1     -12.383  12.226  66.181  1.00  0.00    -0.588 OA 
BRANCH   3   6
HETATM    6  C   UNL     1     -10.728  13.984  66.266  1.00  0.00    -0.289 A  
HETATM    7  C   UNL     1     -11.199  14.405  67.523  1.00  0.00    -0.329 A  
HETATM    8  C   UNL     1     -11.096  15.748  67.904  1.00  0.00    -0.326 A  
HETATM    9  C   UNL     1     -10.505  16.679  67.053  1.00  0.00    -0.283 A  
HETATM   10  C   UNL     1      -9.973  16.262  65.836  1.00  0.00    -0.366 A  
HETATM   11  C   UNL     1     -10.074  14.923  65.451  1.00  0.00    -0.400 A  
ENDBRANCH   3   6
ENDBRANCH   2   3
BRANCH   2  12
HETATM   12  N   UNL     1     -10.413  10.864  63.959  1.00  0.00    -0.359 NA 
HETATM   13  C   UNL     1      -9.831  10.200  65.123  1.00  0.00    -0.325 C  
HETATM   14  C   UNL     1      -9.486  10.752  62.827  1.00  0.00    -0.331 C  
ENDBRANCH   2  12
TORSDOF 3
ENDMDL
MODEL       34
REMARK 921   NORMALIZED FREE ENERGY PREDICTED BY IDOCK:   -4.13 KCAL/MOL
REMARK 922        TOTAL FREE ENERGY PREDICTED BY IDOCK:   -5.11 KCAL/MOL
REMARK 923 INTER-LIGAND FREE ENERGY PREDICTED BY IDOCK:   -4.95 KCAL/MOL
REMARK 924 INTRA-LIGAND FREE ENERGY PREDICTED BY IDOCK:   -0.17 KCAL/MOL
REMARK 927      BINDING AFFINITY PREDICTED BY RF-SCORE:    0.00 PKD
ROOT
HETATM    1  C   UNL     1     -11.793  14.407  67.404  1.00  0.00    -0.430 C  
HETATM    2  C   UNL     1     -10.984  13.761  66.262  1.00  0.00    -0.297 C  
ENDROOT
BRANCH   2   3
HETATM    3  C   UNL     1     -11.617  12.369  65.876  1.00  0.00    -0.396 C  
HETATM    4  H   UNL     1     -12.444  10.836  66.818  1.00  0.00     0.000 HD 
HETATM    5  O   UNL     1     -12.062  11.674  67.051  1.00  0.00    -0.547 OA 
BRANCH   3   6
HETATM    6  C   UNL     1     -10.802  11.418  65.007  1.00  0.00    -0.311 A  
HETATM    7  C   UNL     1     -10.023  10.411  65.606  1.00  0.00    -0.337 A  
HETATM    8  C   UNL     1      -9.106   9.677  64.846  1.00  0.00    -0.284 A  
HETATM    9  C   UNL     1      -8.968   9.920  63.481  1.00  0.00    -0.277 A  
HETATM   10  C   UNL     1      -9.781  10.865  62.861  1.00  0.00    -0.349 A  
HETATM   11  C   UNL     1     -10.698  11.600  63.617  1.00  0.00    -0.500 A  
ENDBRANCH   3   6
ENDBRANCH   2   3
BRANCH   2  12
HETATM   12  N   UNL     1     -10.897  14.717  65.107  1.00  0.00    -0.375 NA 
HETATM   13  C   UNL     1     -10.431  16.050  65.484  1.00  0.00    -0.405 C  
HETATM   14  C   UNL     1     -12.151  14.840  64.356  1.00  0.00    -0.440 C  
ENDBRANCH   2  12
TORSDOF 3
ENDMDL
MODEL       35
REMARK 921   NORMALIZED FREE ENERGY PREDICTED BY IDOCK:   -4.13 KCAL/MOL
REMARK 922        TOTAL FREE ENERGY PREDICTED BY IDOCK:   -5.11 KCAL/MOL
REMARK 923 INTER-LIGAND FREE ENERGY PREDICTED BY IDOCK:   -4.88 KCAL/MOL
REMARK 924 INTRA-LIGAND FREE ENERGY PREDICTED BY IDOCK:   -0.24 KCAL/MOL
REMARK 927      BINDING AFFINITY PREDICTED BY RF-SCORE:    0.00 PKD
ROOT
HETATM    1  C   UNL     1     -12.052  14.824  71.656  1.00  0.00    -0.414 C  
HETATM    2  C   UNL     1     -12.052  13.666  70.639  1.00  0.00    -0.323 C  
ENDROOT
BRANCH   2   3
HETATM    3  C   UNL     1     -13.087  12.561  71.080  1.00  0.00    -0.045 C  
HETATM    4  H   UNL     1     -14.341  12.262  72.584  1.00  0.00     0.000 HD 
HETATM    5  O   UNL     1     -13.717  12.927  72.318  1.00  0.00    -0.541 OA 
BRANCH   3   6
HETATM    6  C   UNL     1     -12.613  11.115  71.165  1.00  0.00    -0.513 A  
HETATM    7  C   UNL     1     -13.316  10.190  71.958  1.00  0.00    -0.492 A  
HETATM    8  C   UNL     1     -12.776   8.926  72.221  1.00  0.00    -0.464 A  
HETATM    9  C   UNL     1     -11.545   8.560  71.681  1.00  0.00    -0.364 A  
HETATM   10  C   UNL     1     -10.871   9.439  70.837  1.00  0.00    -0.392 A  
HETATM   11  C   UNL     1     -11.406  10.702  70.573  1.00  0.00    -0.355 A  
ENDBRANCH   3   6
ENDBRANCH   2   3
BRANCH   2  12
HETATM   12  N   UNL     1     -12.312  14.209  69.263  1.00  0.00    -0.258 NA 
HETATM   13  C   UNL     1     -11.789  13.365  68.191  1.00  0.00    -0.361 C  
HETATM   14  C   UNL     1     -11.826  15.581  69.076  1.00  0.00    -0.354 C  
ENDBRANCH   2  12
TORSDOF 3
ENDMDL
MODEL       36
REMARK 921   NORMALIZED FREE ENERGY PREDICTED BY IDOCK:   -4.13 KCAL/MOL
REMARK 922        TOTAL FREE ENERGY PREDICTED BY IDOCK:   -5.11 KCAL/MOL
REMARK 923 INTER-LIGAND FREE ENERGY PREDICTED BY IDOCK:   -4.87 KCAL/MOL
REMARK 924 INTRA-LIGAND FREE ENERGY PREDICTED BY IDOCK:   -0.24 KCAL/MOL
REMARK 927      BINDING AFFINITY PREDICTED BY RF-SCORE:    0.00 PKD
ROOT
HETATM    1  C   UNL     1     -12.892   7.002  71.250  1.00  0.00    -0.376 C  
HETATM    2  C   UNL     1     -12.087   8.314  71.164  1.00  0.00    -0.252 C  
ENDROOT
BRANCH   2   3
HETATM    3  C   UNL     1     -12.792   9.435  72.019  1.00  0.00    -0.414 C  
HETATM    4  H   UNL     1     -14.555   9.716  72.879  1.00  0.00     0.000 HD 
HETATM    5  O   UNL     1     -14.130   9.040  72.363  1.00  0.00    -0.469 OA 
BRANCH   3   6
HETATM    6  C   UNL     1     -12.811  10.859  71.475  1.00  0.00    -0.560 A  
HETATM    7  C   UNL     1     -12.047  11.187  70.341  1.00  0.00    -0.475 A  
HETATM    8  C   UNL     1     -11.879  12.523  69.961  1.00  0.00    -0.363 A  
HETATM    9  C   UNL     1     -12.486  13.545  70.690  1.00  0.00    -0.405 A  
HETATM   10  C   UNL     1     -13.301  13.229  71.774  1.00  0.00    -0.479 A  
HETATM   11  C   UNL     1     -13.471  11.896  72.156  1.00  0.00    -0.300 A  
ENDBRANCH   3   6
ENDBRANCH   2   3
BRANCH   2  12
HETATM   12  N   UNL     1     -10.666   8.056  71.576  1.00  0.00    -0.222 NA 
HETATM   13  C   UNL     1     -10.000   7.032  70.774  1.00  0.00    -0.190 C  
HETATM   14  C   UNL     1     -10.521   7.723  72.998  1.00  0.00    -0.369 C  
ENDBRANCH   2  12
TORSDOF 3
ENDMDL
MODEL       37
REMARK 921   NORMALIZED FREE ENERGY PREDICTED BY IDOCK:   -4.13 KCAL/MOL
REMARK 922        TOTAL FREE ENERGY PREDICTED BY IDOCK:   -5.11 KCAL/MOL
REMARK 923 INTER-LIGAND FREE ENERGY PREDICTED BY IDOCK:   -4.90 KCAL/MOL
REMARK 924 INTRA-LIGAND FREE ENERGY PREDICTED BY IDOCK:   -0.21 KCAL/MOL
REMARK 927      BINDING AFFINITY PREDICTED BY RF-SCORE:    0.00 PKD
ROOT
HETATM    1  C   UNL     1     -10.756  16.979  67.961  1.00  0.00    -0.365 C  
HETATM    2  C   UNL     1     -11.178  15.567  67.507  1.00  0.00    -0.272 C  
ENDROOT
BRANCH   2   3
HETATM    3  C   UNL     1     -10.466  15.203  66.149  1.00  0.00    -0.312 C  
HETATM    4  H   UNL     1      -9.938  16.142  64.486  1.00  0.00     0.000 HD 
HETATM    5  O   UNL     1     -10.368  16.361  65.305  1.00  0.00    -0.581 OA 
BRANCH   3   6
HETATM    6  C   UNL     1     -11.008  14.032  65.336  1.00  0.00    -0.321 A  
HETATM    7  C   UNL     1     -10.431  12.757  65.472  1.00  0.00    -0.306 A  
HETATM    8  C   UNL     1     -10.765  11.729  64.583  1.00  0.00    -0.363 A  
HETATM    9  C   UNL     1     -11.691  11.951  63.566  1.00  0.00    -0.550 A  
HETATM   10  C   UNL     1     -12.321  13.188  63.463  1.00  0.00    -0.478 A  
HETATM   11  C   UNL     1     -11.990  14.216  64.348  1.00  0.00    -0.478 A  
ENDBRANCH   3   6
ENDBRANCH   2   3
BRANCH   2  12
HETATM   12  N   UNL     1     -10.899  14.584  68.608  1.00  0.00    -0.243 NA 
HETATM   13  C   UNL     1     -11.957  13.593  68.791  1.00  0.00    -0.359 C  
HETATM   14  C   UNL     1     -10.607  15.220  69.898  1.00  0.00    -0.276 C  
ENDBRANCH   2  12
TORSDOF 3
ENDMDL
MODEL       38
REMARK 921   NORMALIZED FREE ENERGY PREDICTED BY IDOCK:   -4.12 KCAL/MOL
REMARK 922        TOTAL FREE ENERGY PREDICTED BY IDOCK:   -5.10 KCAL/MOL
REMARK 923 INTER-LIGAND FREE ENERGY PREDICTED BY IDOCK:   -4.83 KCAL/MOL
REMARK 924 INTRA-LIGAND FREE ENERGY PREDICTED BY IDOCK:   -0.27 KCAL/MOL
REMARK 927      BINDING AFFINITY PREDICTED BY RF-SCORE:    0.00 PKD
ROOT
HETATM    1  C   UNL     1     -10.095  11.349  65.856  1.00  0.00    -0.286 C  
HETATM    2  C   UNL     1     -11.250  11.479  66.868  1.00  0.00    -0.298 C  
ENDROOT
BRANCH   2   3
HETATM    3  C   UNL     1     -10.674  11.734  68.313  1.00  0.00    -0.214 C  
HETATM    4  H   UNL     1      -8.893  11.952  69.151  1.00  0.00     0.000 HD 
HETATM    5  O   UNL     1      -9.240  11.798  68.280  1.00  0.00    -0.180 OA 
BRANCH   3   6
HETATM    6  C   UNL     1     -11.112  10.808  69.442  1.00  0.00    -0.324 A  
HETATM    7  C   UNL     1     -12.374  10.976  70.040  1.00  0.00    -0.377 A  
HETATM    8  C   UNL     1     -12.701  10.286  71.212  1.00  0.00    -0.523 A  
HETATM    9  C   UNL     1     -11.789   9.405  71.789  1.00  0.00    -0.452 A  
HETATM   10  C   UNL     1     -10.563   9.176  71.170  1.00  0.00    -0.379 A  
HETATM   11  C   UNL     1     -10.232   9.864  70.000  1.00  0.00    -0.319 A  
ENDBRANCH   3   6
ENDBRANCH   2   3
BRANCH   2  12
HETATM   12  N   UNL     1     -12.199  12.549  66.407  1.00  0.00    -0.555 NA 
HETATM   13  C   UNL     1     -12.332  12.629  64.954  1.00  0.00    -0.498 C  
HETATM   14  C   UNL     1     -11.878  13.880  66.935  1.00  0.00    -0.423 C  
ENDBRANCH   2  12
TORSDOF 3
ENDMDL
MODEL       39
REMARK 921   NORMALIZED FREE ENERGY PREDICTED BY IDOCK:   -4.11 KCAL/MOL
REMARK 922        TOTAL FREE ENERGY PREDICTED BY IDOCK:   -5.09 KCAL/MOL
REMARK 923 INTER-LIGAND FREE ENERGY PREDICTED BY IDOCK:   -4.84 KCAL/MOL
REMARK 924 INTRA-LIGAND FREE ENERGY PREDICTED BY IDOCK:   -0.26 KCAL/MOL
REMARK 927      BINDING AFFINITY PREDICTED BY RF-SCORE:    0.00 PKD
ROOT
HETATM    1  C   UNL     1     -10.998  11.664  63.488  1.00  0.00    -0.485 C  
HETATM    2  C   UNL     1     -10.763  11.829  65.002  1.00  0.00    -0.292 C  
ENDROOT
BRANCH   2   3
HETATM    3  C   UNL     1     -11.895  12.731  65.628  1.00  0.00    -0.425 C  
HETATM    4  H   UNL     1     -13.737  13.287  65.157  1.00  0.00     0.000 HD 
HETATM    5  O   UNL     1     -13.055  12.743  64.780  1.00  0.00    -0.813 OA 
BRANCH   3   6
HETATM    6  C   UNL     1     -11.547  14.160  66.026  1.00  0.00    -0.364 A  
HETATM    7  C   UNL     1     -10.989  15.037  65.078  1.00  0.00    -0.436 A  
HETATM    8  C   UNL     1     -10.464  16.272  65.477  1.00  0.00    -0.383 A  
HETATM    9  C   UNL     1     -10.507  16.656  66.816  1.00  0.00    -0.261 A  
HETATM   10  C   UNL     1     -11.118  15.828  67.753  1.00  0.00    -0.313 A  
HETATM   11  C   UNL     1     -11.643  14.595  67.359  1.00  0.00    -0.408 A  
ENDBRANCH   3   6
ENDBRANCH   2   3
BRANCH   2  12
HETATM   12  N   UNL     1     -10.660  10.473  65.643  1.00  0.00    -0.126 NA 
HETATM   13  C   UNL     1     -10.659  10.514  67.103  1.00  0.00    -0.264 C  
HETATM   14  C   UNL     1      -9.504   9.696  65.181  1.00  0.00    -0.265 C  
ENDBRANCH   2  12
TORSDOF 3
ENDMDL
MODEL       40
REMARK 921   NORMALIZED FREE ENERGY PREDICTED BY IDOCK:   -4.10 KCAL/MOL
REMARK 922        TOTAL FREE ENERGY PREDICTED BY IDOCK:   -5.08 KCAL/MOL
REMARK 923 INTER-LIGAND FREE ENERGY PREDICTED BY IDOCK:   -4.95 KCAL/MOL
REMARK 924 INTRA-LIGAND FREE ENERGY PREDICTED BY IDOCK:   -0.13 KCAL/MOL
REMARK 927      BINDING AFFINITY PREDICTED BY RF-SCORE:    0.00 PKD
ROOT
HETATM    1  C   UNL     1     -11.316  10.675  67.903  1.00  0.00    -0.342 C  
HETATM    2  C   UNL     1     -11.353  12.022  68.651  1.00  0.00    -0.277 C  
ENDROOT
BRANCH   2   3
HETATM    3  C   UNL     1     -11.863  11.806  70.127  1.00  0.00    -0.324 C  
HETATM    4  H   UNL     1     -13.089  10.573  71.076  1.00  0.00     0.000 HD 
HETATM    5  O   UNL     1     -12.781  10.704  70.186  1.00  0.00    -0.308 OA 
BRANCH   3   6
HETATM    6  C   UNL     1     -12.456  12.996  70.872  1.00  0.00    -0.396 A  
HETATM    7  C   UNL     1     -13.296  12.784  71.979  1.00  0.00    -0.565 A  
HETATM    8  C   UNL     1     -14.020  13.846  72.535  1.00  0.00    -0.565 A  
HETATM    9  C   UNL     1     -13.898  15.131  72.011  1.00  0.00    -0.608 A  
HETATM   10  C   UNL     1     -13.017  15.368  70.959  1.00  0.00    -0.556 A  
HETATM   11  C   UNL     1     -12.294  14.311  70.402  1.00  0.00    -0.419 A  
ENDBRANCH   3   6
ENDBRANCH   2   3
BRANCH   2  12
HETATM   12  N   UNL     1      -9.999  12.671  68.578  1.00  0.00    -0.199 NA 
HETATM   13  C   UNL     1      -9.902  13.709  67.554  1.00  0.00    -0.227 C  
HETATM   14  C   UNL     1      -8.902  11.713  68.400  1.00  0.00    -0.161 C  
ENDBRANCH   2  12
TORSDOF 3
ENDMDL
MODEL       41
REMARK 921   NORMALIZED FREE ENERGY PREDICTED BY IDOCK:   -4.10 KCAL/MOL
REMARK 922        TOTAL FREE ENERGY PREDICTED BY IDOCK:   -5.07 KCAL/MOL
REMARK 923 INTER-LIGAND FREE ENERGY PREDICTED BY IDOCK:   -4.79 KCAL/MOL
REMARK 924 INTRA-LIGAND FREE ENERGY PREDICTED BY IDOCK:   -0.28 KCAL/MOL
REMARK 927      BINDING AFFINITY PREDICTED BY RF-SCORE:    0.00 PKD
ROOT
HETATM    1  C   UNL     1     -10.756  16.724  69.268  1.00  0.00    -0.324 C  
HETATM    2  C   UNL     1     -11.883  15.679  69.153  1.00  0.00    -0.362 C  
ENDROOT
BRANCH   2   3
HETATM    3  C   UNL     1     -11.324  14.353  68.509  1.00  0.00    -0.282 C  
HETATM    4  H   UNL     1      -9.582  13.418  68.385  1.00  0.00     0.000 HD 
HETATM    5  O   UNL     1      -9.919  14.217  68.773  1.00  0.00    -0.231 OA 
BRANCH   3   6
HETATM    6  C   UNL     1     -11.585  14.099  67.029  1.00  0.00    -0.404 A  
HETATM    7  C   UNL     1     -12.065  12.847  66.604  1.00  0.00    -0.360 A  
HETATM    8  C   UNL     1     -12.100  12.526  65.243  1.00  0.00    -0.500 A  
HETATM    9  C   UNL     1     -11.682  13.452  64.289  1.00  0.00    -0.455 A  
HETATM   10  C   UNL     1     -11.270  14.719  64.691  1.00  0.00    -0.350 A  
HETATM   11  C   UNL     1     -11.233  15.044  66.049  1.00  0.00    -0.310 A  
ENDBRANCH   3   6
ENDBRANCH   2   3
BRANCH   2  12
HETATM   12  N   UNL     1     -12.508  15.468  70.503  1.00  0.00    -0.423 NA 
HETATM   13  C   UNL     1     -11.700  15.978  71.609  1.00  0.00    -0.506 C  
HETATM   14  C   UNL     1     -12.861  14.069  70.771  1.00  0.00    -0.285 C  
ENDBRANCH   2  12
TORSDOF 3
ENDMDL
MODEL       42
REMARK 921   NORMALIZED FREE ENERGY PREDICTED BY IDOCK:   -4.07 KCAL/MOL
REMARK 922        TOTAL FREE ENERGY PREDICTED BY IDOCK:   -5.05 KCAL/MOL
REMARK 923 INTER-LIGAND FREE ENERGY PREDICTED BY IDOCK:   -4.80 KCAL/MOL
REMARK 924 INTRA-LIGAND FREE ENERGY PREDICTED BY IDOCK:   -0.25 KCAL/MOL
REMARK 927      BINDING AFFINITY PREDICTED BY RF-SCORE:    0.00 PKD
ROOT
HETATM    1  C   UNL     1      -9.665  14.117  68.417  1.00  0.00    -0.226 C  
HETATM    2  C   UNL     1     -10.528  15.354  68.733  1.00  0.00    -0.231 C  
ENDROOT
BRANCH   2   3
HETATM    3  C   UNL     1     -10.794  16.176  67.415  1.00  0.00    -0.265 C  
HETATM    4  H   UNL     1     -10.506  15.939  65.469  1.00  0.00     0.000 HD 
HETATM    5  O   UNL     1     -10.345  15.443  66.264  1.00  0.00    -0.271 OA 
BRANCH   3   6
HETATM    6  C   UNL     1     -10.274  17.607  67.334  1.00  0.00    -0.345 A  
HETATM    7  C   UNL     1      -9.688  18.206  68.464  1.00  0.00    -0.372 A  
HETATM    8  C   UNL     1      -9.408  19.577  68.476  1.00  0.00    -0.435 A  
HETATM    9  C   UNL     1      -9.686  20.362  67.358  1.00  0.00    -0.597 A  
HETATM   10  C   UNL     1     -10.201  19.770  66.209  1.00  0.00    -0.615 A  
HETATM   11  C   UNL     1     -10.483  18.402  66.194  1.00  0.00    -0.422 A  
ENDBRANCH   3   6
ENDBRANCH   2   3
BRANCH   2  12
HETATM   12  N   UNL     1     -11.787  14.921  69.429  1.00  0.00    -0.313 NA 
HETATM   13  C   UNL     1     -11.995  15.569  70.722  1.00  0.00    -0.378 C  
HETATM   14  C   UNL     1     -11.891  13.467  69.597  1.00  0.00    -0.331 C  
ENDBRANCH   2  12
TORSDOF 3
ENDMDL
MODEL       43
REMARK 921   NORMALIZED FREE ENERGY PREDICTED BY IDOCK:   -4.07 KCAL/MOL
REMARK 922        TOTAL FREE ENERGY PREDICTED BY IDOCK:   -5.04 KCAL/MOL
REMARK 923 INTER-LIGAND FREE ENERGY PREDICTED BY IDOCK:   -4.77 KCAL/MOL
REMARK 924 INTRA-LIGAND FREE ENERGY PREDICTED BY IDOCK:   -0.28 KCAL/MOL
REMARK 927      BINDING AFFINITY PREDICTED BY RF-SCORE:    0.00 PKD
ROOT
HETATM    1  C   UNL     1      -8.154  16.718  66.247  1.00  0.00    -0.365 C  
HETATM    2  C   UNL     1      -9.588  17.278  66.327  1.00  0.00    -0.248 C  
ENDROOT
BRANCH   2   3
HETATM    3  C   UNL     1     -10.524  16.254  67.076  1.00  0.00    -0.306 C  
HETATM    4  H   UNL     1     -10.487  15.212  68.759  1.00  0.00     0.000 HD 
HETATM    5  O   UNL     1      -9.922  15.828  68.308  1.00  0.00    -0.218 OA 
BRANCH   3   6
HETATM    6  C   UNL     1     -11.024  15.034  66.311  1.00  0.00    -0.338 A  
HETATM    7  C   UNL     1     -11.276  15.125  64.930  1.00  0.00    -0.424 A  
HETATM    8  C   UNL     1     -11.938  14.089  64.260  1.00  0.00    -0.463 A  
HETATM    9  C   UNL     1     -12.334  12.945  64.949  1.00  0.00    -0.532 A  
HETATM   10  C   UNL     1     -12.029  12.812  66.301  1.00  0.00    -0.460 A  
HETATM   11  C   UNL     1     -11.370  13.843  66.973  1.00  0.00    -0.343 A  
ENDBRANCH   3   6
ENDBRANCH   2   3
BRANCH   2  12
HETATM   12  N   UNL     1      -9.559  18.637  66.966  1.00  0.00    -0.295 NA 
HETATM   13  C   UNL     1     -10.868  19.285  67.024  1.00  0.00    -0.414 C  
HETATM   14  C   UNL     1      -8.595  19.553  66.346  1.00  0.00    -0.360 C  
ENDBRANCH   2  12
TORSDOF 3
ENDMDL
MODEL       44
REMARK 921   NORMALIZED FREE ENERGY PREDICTED BY IDOCK:   -4.06 KCAL/MOL
REMARK 922        TOTAL FREE ENERGY PREDICTED BY IDOCK:   -5.03 KCAL/MOL
REMARK 923 INTER-LIGAND FREE ENERGY PREDICTED BY IDOCK:   -4.73 KCAL/MOL
REMARK 924 INTRA-LIGAND FREE ENERGY PREDICTED BY IDOCK:   -0.30 KCAL/MOL
REMARK 927      BINDING AFFINITY PREDICTED BY RF-SCORE:    0.00 PKD
ROOT
HETATM    1  C   UNL     1      -8.660  15.113  66.974  1.00  0.00    -0.265 C  
HETATM    2  C   UNL     1     -10.013  15.133  67.713  1.00  0.00    -0.225 C  
ENDROOT
BRANCH   2   3
HETATM    3  C   UNL     1     -10.101  16.405  68.640  1.00  0.00    -0.244 C  
HETATM    4  H   UNL     1     -11.421  17.218  69.872  1.00  0.00     0.000 HD 
HETATM    5  O   UNL     1     -11.368  16.451  69.313  1.00  0.00    -0.300 OA 
BRANCH   3   6
HETATM    6  C   UNL     1      -9.805  17.771  68.029  1.00  0.00    -0.317 A  
HETATM    7  C   UNL     1      -8.583  18.412  68.301  1.00  0.00    -0.321 A  
HETATM    8  C   UNL     1      -8.386  19.748  67.933  1.00  0.00    -0.342 A  
HETATM    9  C   UNL     1      -9.390  20.452  67.272  1.00  0.00    -0.547 A  
HETATM   10  C   UNL     1     -10.578  19.809  66.935  1.00  0.00    -0.588 A  
HETATM   11  C   UNL     1     -10.779  18.476  67.301  1.00  0.00    -0.417 A  
ENDBRANCH   3   6
ENDBRANCH   2   3
BRANCH   2  12
HETATM   12  N   UNL     1     -11.129  15.047  66.711  1.00  0.00    -0.328 NA 
HETATM   13  C   UNL     1     -11.980  13.872  66.882  1.00  0.00    -0.433 C  
HETATM   14  C   UNL     1     -10.671  15.113  65.319  1.00  0.00    -0.404 C  
ENDBRANCH   2  12
TORSDOF 3
ENDMDL
MODEL       45
REMARK 921   NORMALIZED FREE ENERGY PREDICTED BY IDOCK:   -4.06 KCAL/MOL
REMARK 922        TOTAL FREE ENERGY PREDICTED BY IDOCK:   -5.03 KCAL/MOL
REMARK 923 INTER-LIGAND FREE ENERGY PREDICTED BY IDOCK:   -4.73 KCAL/MOL
REMARK 924 INTRA-LIGAND FREE ENERGY PREDICTED BY IDOCK:   -0.29 KCAL/MOL
REMARK 927      BINDING AFFINITY PREDICTED BY RF-SCORE:    0.00 PKD
ROOT
HETATM    1  C   UNL     1      -9.166  15.686  66.443  1.00  0.00    -0.346 C  
HETATM    2  C   UNL     1     -10.576  16.187  66.812  1.00  0.00    -0.277 C  
ENDROOT
BRANCH   2   3
HETATM    3  C   UNL     1     -11.524  14.962  67.107  1.00  0.00    -0.335 C  
HETATM    4  H   UNL     1     -11.674  13.535  68.472  1.00  0.00     0.000 HD 
HETATM    5  O   UNL     1     -11.102  14.274  68.294  1.00  0.00    -0.243 OA 
BRANCH   3   6
HETATM    6  C   UNL     1     -11.765  13.948  65.994  1.00  0.00    -0.381 A  
HETATM    7  C   UNL     1     -11.472  12.589  66.208  1.00  0.00    -0.421 A  
HETATM    8  C   UNL     1     -11.478  11.685  65.139  1.00  0.00    -0.180 A  
HETATM    9  C   UNL     1     -11.797  12.118  63.853  1.00  0.00    -0.558 A  
HETATM   10  C   UNL     1     -12.157  13.446  63.640  1.00  0.00    -0.513 A  
HETATM   11  C   UNL     1     -12.151  14.351  64.704  1.00  0.00    -0.485 A  
ENDBRANCH   3   6
ENDBRANCH   2   3
BRANCH   2  12
HETATM   12  N   UNL     1     -10.478  17.154  67.958  1.00  0.00    -0.354 NA 
HETATM   13  C   UNL     1     -10.725  18.543  67.576  1.00  0.00    -0.377 C  
HETATM   14  C   UNL     1      -9.205  17.073  68.683  1.00  0.00    -0.266 C  
ENDBRANCH   2  12
TORSDOF 3
ENDMDL
MODEL       46
REMARK 921   NORMALIZED FREE ENERGY PREDICTED BY IDOCK:   -4.04 KCAL/MOL
REMARK 922        TOTAL FREE ENERGY PREDICTED BY IDOCK:   -5.01 KCAL/MOL
REMARK 923 INTER-LIGAND FREE ENERGY PREDICTED BY IDOCK:   -4.72 KCAL/MOL
REMARK 924 INTRA-LIGAND FREE ENERGY PREDICTED BY IDOCK:   -0.29 KCAL/MOL
REMARK 927      BINDING AFFINITY PREDICTED BY RF-SCORE:    0.00 PKD
ROOT
HETATM    1  C   UNL     1     -10.486  15.286  67.777  1.00  0.00    -0.253 C  
HETATM    2  C   UNL     1     -11.679  14.553  68.421  1.00  0.00    -0.333 C  
ENDROOT
BRANCH   2   3
HETATM    3  C   UNL     1     -11.699  13.047  67.957  1.00  0.00    -0.355 C  
HETATM    4  H   UNL     1     -10.736  11.374  68.403  1.00  0.00     0.000 HD 
HETATM    5  O   UNL     1     -10.724  12.283  68.683  1.00  0.00    -0.225 OA 
BRANCH   3   6
HETATM    6  C   UNL     1     -11.570  12.744  66.468  1.00  0.00    -0.435 A  
HETATM    7  C   UNL     1     -12.507  13.271  65.561  1.00  0.00    -0.531 A  
HETATM    8  C   UNL     1     -12.534  12.829  64.233  1.00  0.00    -0.461 A  
HETATM    9  C   UNL     1     -11.618  11.878  63.788  1.00  0.00    -0.555 A  
HETATM   10  C   UNL     1     -10.641  11.400  64.657  1.00  0.00    -0.380 A  
HETATM   11  C   UNL     1     -10.611  11.838  65.984  1.00  0.00    -0.302 A  
ENDBRANCH   3   6
ENDBRANCH   2   3
BRANCH   2  12
HETATM   12  N   UNL     1     -11.619  14.716  69.913  1.00  0.00    -0.271 NA 
HETATM   13  C   UNL     1     -12.928  14.668  70.561  1.00  0.00    -0.268 C  
HETATM   14  C   UNL     1     -10.915  15.931  70.340  1.00  0.00    -0.350 C  
ENDBRANCH   2  12
TORSDOF 3
ENDMDL
MODEL       47
REMARK 921   NORMALIZED FREE ENERGY PREDICTED BY IDOCK:   -4.01 KCAL/MOL
REMARK 922        TOTAL FREE ENERGY PREDICTED BY IDOCK:   -4.98 KCAL/MOL
REMARK 923 INTER-LIGAND FREE ENERGY PREDICTED BY IDOCK:   -4.90 KCAL/MOL
REMARK 924 INTRA-LIGAND FREE ENERGY PREDICTED BY IDOCK:   -0.07 KCAL/MOL
REMARK 927      BINDING AFFINITY PREDICTED BY RF-SCORE:    0.00 PKD
ROOT
HETATM    1  C   UNL     1     -12.593  13.329  70.985  1.00  0.00    -0.408 C  
HETATM    2  C   UNL     1     -11.734  14.606  71.076  1.00  0.00    -0.277 C  
ENDROOT
BRANCH   2   3
HETATM    3  C   UNL     1     -11.112  14.938  69.666  1.00  0.00    -0.276 C  
HETATM    4  H   UNL     1     -11.120  16.457  68.395  1.00  0.00     0.000 HD 
HETATM    5  O   UNL     1     -11.495  16.256  69.245  1.00  0.00    -0.316 OA 
BRANCH   3   6
HETATM    6  C   UNL     1     -11.342  13.957  68.522  1.00  0.00    -0.311 A  
HETATM    7  C   UNL     1     -10.650  12.733  68.497  1.00  0.00    -0.270 A  
HETATM    8  C   UNL     1     -10.681  11.924  67.355  1.00  0.00    -0.271 A  
HETATM    9  C   UNL     1     -11.417  12.311  66.237  1.00  0.00    -0.435 A  
HETATM   10  C   UNL     1     -12.163  13.486  66.274  1.00  0.00    -0.468 A  
HETATM   11  C   UNL     1     -12.134  14.297  67.411  1.00  0.00    -0.371 A  
ENDBRANCH   3   6
ENDBRANCH   2   3
BRANCH   2  12
HETATM   12  N   UNL     1     -12.560  15.725  71.642  1.00  0.00    -0.445 NA 
HETATM   13  C   UNL     1     -12.048  16.251  72.905  1.00  0.00    -0.527 C  
HETATM   14  C   UNL     1     -13.977  15.381  71.803  1.00  0.00    -0.525 C  
ENDBRANCH   2  12
TORSDOF 3
ENDMDL
MODEL       48
REMARK 921   NORMALIZED FREE ENERGY PREDICTED BY IDOCK:   -3.99 KCAL/MOL
REMARK 922        TOTAL FREE ENERGY PREDICTED BY IDOCK:   -4.95 KCAL/MOL
REMARK 923 INTER-LIGAND FREE ENERGY PREDICTED BY IDOCK:   -4.73 KCAL/MOL
REMARK 924 INTRA-LIGAND FREE ENERGY PREDICTED BY IDOCK:   -0.22 KCAL/MOL
REMARK 927      BINDING AFFINITY PREDICTED BY RF-SCORE:    0.00 PKD
ROOT
HETATM    1  C   UNL     1     -12.181  13.335  70.499  1.00  0.00    -0.416 C  
HETATM    2  C   UNL     1     -11.831  14.798  70.162  1.00  0.00    -0.307 C  
ENDROOT
BRANCH   2   3
HETATM    3  C   UNL     1     -12.028  15.058  68.620  1.00  0.00    -0.246 C  
HETATM    4  H   UNL     1     -12.276  13.971  66.982  1.00  0.00     0.000 HD 
HETATM    5  O   UNL     1     -12.157  13.815  67.912  1.00  0.00    -0.365 OA 
BRANCH   3   6
HETATM    6  C   UNL     1     -11.019  15.945  67.899  1.00  0.00    -0.327 A  
HETATM    7  C   UNL     1     -10.328  15.455  66.776  1.00  0.00    -0.279 A  
HETATM    8  C   UNL     1      -9.250  16.167  66.240  1.00  0.00    -0.366 A  
HETATM    9  C   UNL     1      -8.861  17.383  66.798  1.00  0.00    -0.272 A  
HETATM   10  C   UNL     1      -9.580  17.914  67.866  1.00  0.00    -0.286 A  
HETATM   11  C   UNL     1     -10.656  17.205  68.405  1.00  0.00    -0.371 A  
ENDBRANCH   3   6
ENDBRANCH   2   3
BRANCH   2  12
HETATM   12  N   UNL     1     -12.642  15.718  71.030  1.00  0.00    -0.454 NA 
HETATM   13  C   UNL     1     -11.973  16.092  72.274  1.00  0.00    -0.538 C  
HETATM   14  C   UNL     1     -13.980  15.201  71.338  1.00  0.00    -0.506 C  
ENDBRANCH   2  12
TORSDOF 3
ENDMDL
MODEL       49
REMARK 921   NORMALIZED FREE ENERGY PREDICTED BY IDOCK:   -3.95 KCAL/MOL
REMARK 922        TOTAL FREE ENERGY PREDICTED BY IDOCK:   -4.91 KCAL/MOL
REMARK 923 INTER-LIGAND FREE ENERGY PREDICTED BY IDOCK:   -4.67 KCAL/MOL
REMARK 924 INTRA-LIGAND FREE ENERGY PREDICTED BY IDOCK:   -0.24 KCAL/MOL
REMARK 927      BINDING AFFINITY PREDICTED BY RF-SCORE:    0.00 PKD
ROOT
HETATM    1  C   UNL     1     -12.118  11.411  70.145  1.00  0.00    -0.439 C  
HETATM    2  C   UNL     1     -11.571  11.226  68.716  1.00  0.00    -0.316 C  
ENDROOT
BRANCH   2   3
HETATM    3  C   UNL     1     -11.319  12.632  68.049  1.00  0.00    -0.290 C  
HETATM    4  H   UNL     1     -11.771  14.523  68.427  1.00  0.00     0.000 HD 
HETATM    5  O   UNL     1     -11.924  13.675  68.829  1.00  0.00    -0.345 OA 
BRANCH   3   6
HETATM    6  C   UNL     1     -11.695  12.817  66.583  1.00  0.00    -0.459 A  
HETATM    7  C   UNL     1     -11.309  11.855  65.632  1.00  0.00    -0.339 A  
HETATM    8  C   UNL     1     -11.451  12.113  64.264  1.00  0.00    -0.437 A  
HETATM    9  C   UNL     1     -11.997  13.319  63.827  1.00  0.00    -0.551 A  
HETATM   10  C   UNL     1     -12.446  14.251  64.758  1.00  0.00    -0.390 A  
HETATM   11  C   UNL     1     -12.306  13.997  66.125  1.00  0.00    -0.491 A  
ENDBRANCH   3   6
ENDBRANCH   2   3
BRANCH   2  12
HETATM   12  N   UNL     1     -10.345  10.359  68.759  1.00  0.00    -0.184 NA 
HETATM   13  C   UNL     1     -10.197   9.615  70.008  1.00  0.00    -0.255 C  
HETATM   14  C   UNL     1      -9.103  11.090  68.484  1.00  0.00    -0.173 C  
ENDBRANCH   2  12
TORSDOF 3
ENDMDL
MODEL       50
REMARK 921   NORMALIZED FREE ENERGY PREDICTED BY IDOCK:   -3.95 KCAL/MOL
REMARK 922        TOTAL FREE ENERGY PREDICTED BY IDOCK:   -4.90 KCAL/MOL
REMARK 923 INTER-LIGAND FREE ENERGY PREDICTED BY IDOCK:   -4.58 KCAL/MOL
REMARK 924 INTRA-LIGAND FREE ENERGY PREDICTED BY IDOCK:   -0.32 KCAL/MOL
REMARK 927      BINDING AFFINITY PREDICTED BY RF-SCORE:    0.00 PKD
ROOT
HETATM    1  C   UNL     1      -9.687  10.805  68.120  1.00  0.00    -0.169 C  
HETATM    2  C   UNL     1     -10.402  10.418  69.429  1.00  0.00    -0.237 C  
ENDROOT
BRANCH   2   3
HETATM    3  C   UNL     1     -11.869  10.996  69.432  1.00  0.00    -0.335 C  
HETATM    4  H   UNL     1     -13.170  11.669  68.098  1.00  0.00     0.000 HD 
HETATM    5  O   UNL     1     -12.285  11.322  68.096  1.00  0.00    -0.622 OA 
BRANCH   3   6
HETATM    6  C   UNL     1     -12.188  12.164  70.358  1.00  0.00    -0.378 A  
HETATM    7  C   UNL     1     -12.876  11.938  71.563  1.00  0.00    -0.421 A  
HETATM    8  C   UNL     1     -13.366  13.013  72.312  1.00  0.00    -0.606 A  
HETATM    9  C   UNL     1     -13.159  14.323  71.885  1.00  0.00    -0.445 A  
HETATM   10  C   UNL     1     -12.419  14.564  70.730  1.00  0.00    -0.420 A  
HETATM   11  C   UNL     1     -11.928  13.493  69.979  1.00  0.00    -0.410 A  
ENDBRANCH   3   6
ENDBRANCH   2   3
BRANCH   2  12
HETATM   12  N   UNL     1     -10.349   8.928  69.606  1.00  0.00    -0.207 NA 
HETATM   13  C   UNL     1     -10.199   8.194  68.352  1.00  0.00    -0.209 C  
HETATM   14  C   UNL     1     -11.493   8.386  70.347  1.00  0.00    -0.125 C  
ENDBRANCH   2  12
TORSDOF 3
ENDMDL
MODEL       51
REMARK 921   NORMALIZED FREE ENERGY PREDICTED BY IDOCK:   -3.93 KCAL/MOL
REMARK 922        TOTAL FREE ENERGY PREDICTED BY IDOCK:   -4.88 KCAL/MOL
REMARK 923 INTER-LIGAND FREE ENERGY PREDICTED BY IDOCK:   -4.67 KCAL/MOL
REMARK 924 INTRA-LIGAND FREE ENERGY PREDICTED BY IDOCK:   -0.21 KCAL/MOL
REMARK 927      BINDING AFFINITY PREDICTED BY RF-SCORE:    0.00 PKD
ROOT
HETATM    1  C   UNL     1     -11.266  13.695  68.980  1.00  0.00    -0.316 C  
HETATM    2  C   UNL     1     -10.853  13.821  67.501  1.00  0.00    -0.265 C  
ENDROOT
BRANCH   2   3
HETATM    3  C   UNL     1     -11.565  12.702  66.647  1.00  0.00    -0.381 C  
HETATM    4  H   UNL     1     -12.609  11.055  66.990  1.00  0.00     0.000 HD 
HETATM    5  O   UNL     1     -12.180  11.728  67.504  1.00  0.00    -0.526 OA 
BRANCH   3   6
HETATM    6  C   UNL     1     -10.756  11.987  65.570  1.00  0.00    -0.318 A  
HETATM    7  C   UNL     1     -10.808  12.437  64.238  1.00  0.00    -0.395 A  
HETATM    8  C   UNL     1     -10.254  11.669  63.208  1.00  0.00    -0.445 A  
HETATM    9  C   UNL     1      -9.623  10.459  63.493  1.00  0.00    -0.361 A  
HETATM   10  C   UNL     1      -9.504  10.036  64.814  1.00  0.00    -0.366 A  
HETATM   11  C   UNL     1     -10.057  10.799  65.845  1.00  0.00    -0.314 A  
ENDBRANCH   3   6
ENDBRANCH   2   3
BRANCH   2  12
HETATM   12  N   UNL     1     -11.142  15.213  67.018  1.00  0.00    -0.334 NA 
HETATM   13  C   UNL     1     -10.307  15.628  65.893  1.00  0.00    -0.350 C  
HETATM   14  C   UNL     1     -11.063  16.227  68.076  1.00  0.00    -0.299 C  
ENDBRANCH   2  12
TORSDOF 3
ENDMDL
MODEL       52
REMARK 921   NORMALIZED FREE ENERGY PREDICTED BY IDOCK:   -3.91 KCAL/MOL
REMARK 922        TOTAL FREE ENERGY PREDICTED BY IDOCK:   -4.86 KCAL/MOL
REMARK 923 INTER-LIGAND FREE ENERGY PREDICTED BY IDOCK:   -4.64 KCAL/MOL
REMARK 924 INTRA-LIGAND FREE ENERGY PREDICTED BY IDOCK:   -0.22 KCAL/MOL
REMARK 927      BINDING AFFINITY PREDICTED BY RF-SCORE:    0.00 PKD
ROOT
HETATM    1  C   UNL     1     -12.109  14.075  66.966  1.00  0.00    -0.455 C  
HETATM    2  C   UNL     1     -11.801  13.451  68.341  1.00  0.00    -0.366 C  
ENDROOT
BRANCH   2   3
HETATM    3  C   UNL     1     -11.158  12.024  68.152  1.00  0.00    -0.245 C  
HETATM    4  H   UNL     1     -11.223  10.565  66.814  1.00  0.00     0.000 HD 
HETATM    5  O   UNL     1     -11.611  11.425  66.928  1.00  0.00    -0.492 OA 
BRANCH   3   6
HETATM    6  C   UNL     1     -11.290  11.013  69.286  1.00  0.00    -0.350 A  
HETATM    7  C   UNL     1     -12.356  11.115  70.198  1.00  0.00    -0.373 A  
HETATM    8  C   UNL     1     -12.370  10.339  71.363  1.00  0.00    -0.502 A  
HETATM    9  C   UNL     1     -11.339   9.438  71.621  1.00  0.00    -0.452 A  
HETATM   10  C   UNL     1     -10.313   9.277  70.694  1.00  0.00    -0.326 A  
HETATM   11  C   UNL     1     -10.295  10.050  69.531  1.00  0.00    -0.256 A  
ENDBRANCH   3   6
ENDBRANCH   2   3
BRANCH   2  12
HETATM   12  N   UNL     1     -10.940  14.392  69.136  1.00  0.00    -0.260 NA 
HETATM   13  C   UNL     1     -11.675  15.517  69.708  1.00  0.00    -0.349 C  
HETATM   14  C   UNL     1      -9.786  14.901  68.386  1.00  0.00    -0.216 C  
ENDBRANCH   2  12
TORSDOF 3
ENDMDL
MODEL       53
REMARK 921   NORMALIZED FREE ENERGY PREDICTED BY IDOCK:   -3.91 KCAL/MOL
REMARK 922        TOTAL FREE ENERGY PREDICTED BY IDOCK:   -4.86 KCAL/MOL
REMARK 923 INTER-LIGAND FREE ENERGY PREDICTED BY IDOCK:   -4.66 KCAL/MOL
REMARK 924 INTRA-LIGAND FREE ENERGY PREDICTED BY IDOCK:   -0.20 KCAL/MOL
REMARK 927      BINDING AFFINITY PREDICTED BY RF-SCORE:    0.00 PKD
ROOT
HETATM    1  C   UNL     1      -9.218  13.872  66.749  1.00  0.00    -0.267 C  
HETATM    2  C   UNL     1      -9.871  14.911  67.682  1.00  0.00    -0.217 C  
ENDROOT
BRANCH   2   3
HETATM    3  C   UNL     1     -10.667  15.973  66.831  1.00  0.00    -0.262 C  
HETATM    4  H   UNL     1     -11.099  16.279  64.923  1.00  0.00     0.000 HD 
HETATM    5  O   UNL     1     -10.619  15.639  65.436  1.00  0.00    -0.363 OA 
BRANCH   3   6
HETATM    6  C   UNL     1     -10.327  17.448  67.009  1.00  0.00    -0.318 A  
HETATM    7  C   UNL     1     -10.049  17.955  68.291  1.00  0.00    -0.376 A  
HETATM    8  C   UNL     1      -9.952  19.335  68.503  1.00  0.00    -0.513 A  
HETATM    9  C   UNL     1     -10.107  20.223  67.440  1.00  0.00    -0.534 A  
HETATM   10  C   UNL     1     -10.313  19.732  66.154  1.00  0.00    -0.627 A  
HETATM   11  C   UNL     1     -10.412  18.355  65.939  1.00  0.00    -0.346 A  
ENDBRANCH   3   6
ENDBRANCH   2   3
BRANCH   2  12
HETATM   12  N   UNL     1     -10.720  14.204  68.700  1.00  0.00    -0.248 NA 
HETATM   13  C   UNL     1     -11.259  12.930  68.230  1.00  0.00    -0.270 C  
HETATM   14  C   UNL     1     -11.817  15.029  69.219  1.00  0.00    -0.315 C  
ENDBRANCH   2  12
TORSDOF 3
ENDMDL
MODEL       54
REMARK 921   NORMALIZED FREE ENERGY PREDICTED BY IDOCK:   -3.91 KCAL/MOL
REMARK 922        TOTAL FREE ENERGY PREDICTED BY IDOCK:   -4.86 KCAL/MOL
REMARK 923 INTER-LIGAND FREE ENERGY PREDICTED BY IDOCK:   -4.59 KCAL/MOL
REMARK 924 INTRA-LIGAND FREE ENERGY PREDICTED BY IDOCK:   -0.27 KCAL/MOL
REMARK 927      BINDING AFFINITY PREDICTED BY RF-SCORE:    0.00 PKD
ROOT
HETATM    1  C   UNL     1      -9.674  14.099  68.170  1.00  0.00    -0.225 C  
HETATM    2  C   UNL     1     -10.122  12.637  68.367  1.00  0.00    -0.222 C  
ENDROOT
BRANCH   2   3
HETATM    3  C   UNL     1     -11.477  12.381  67.603  1.00  0.00    -0.337 C  
HETATM    4  H   UNL     1     -12.779  10.902  67.407  1.00  0.00     0.000 HD 
HETATM    5  O   UNL     1     -11.962  11.056  67.868  1.00  0.00    -0.620 OA 
BRANCH   3   6
HETATM    6  C   UNL     1     -11.524  12.645  66.102  1.00  0.00    -0.413 A  
HETATM    7  C   UNL     1     -12.296  13.708  65.600  1.00  0.00    -0.518 A  
HETATM    8  C   UNL     1     -12.527  13.830  64.225  1.00  0.00    -0.308 A  
HETATM    9  C   UNL     1     -11.975  12.911  63.334  1.00  0.00    -0.612 A  
HETATM   10  C   UNL     1     -11.152  11.895  63.812  1.00  0.00    -0.510 A  
HETATM   11  C   UNL     1     -10.920  11.769  65.183  1.00  0.00    -0.351 A  
ENDBRANCH   3   6
ENDBRANCH   2   3
BRANCH   2  12
HETATM   12  N   UNL     1      -9.015  11.714  67.943  1.00  0.00    -0.163 NA 
HETATM   13  C   UNL     1      -8.592  10.786  68.989  1.00  0.00    -0.138 C  
HETATM   14  C   UNL     1      -7.839  12.416  67.418  1.00  0.00    -0.174 C  
ENDBRANCH   2  12
TORSDOF 3
ENDMDL
MODEL       55
REMARK 921   NORMALIZED FREE ENERGY PREDICTED BY IDOCK:   -3.91 KCAL/MOL
REMARK 922        TOTAL FREE ENERGY PREDICTED BY IDOCK:   -4.86 KCAL/MOL
REMARK 923 INTER-LIGAND FREE ENERGY PREDICTED BY IDOCK:   -4.53 KCAL/MOL
REMARK 924 INTRA-LIGAND FREE ENERGY PREDICTED BY IDOCK:   -0.33 KCAL/MOL
REMARK 927      BINDING AFFINITY PREDICTED BY RF-SCORE:    0.00 PKD
ROOT
HETATM    1  C   UNL     1      -9.085  16.518  67.852  1.00  0.00    -0.206 C  
HETATM    2  C   UNL     1      -9.954  15.704  66.873  1.00  0.00    -0.248 C  
ENDROOT
BRANCH   2   3
HETATM    3  C   UNL     1     -11.329  15.338  67.551  1.00  0.00    -0.297 C  
HETATM    4  H   UNL     1     -12.392  15.948  69.107  1.00  0.00     0.000 HD 
HETATM    5  O   UNL     1     -11.562  16.169  68.699  1.00  0.00    -0.376 OA 
BRANCH   3   6
HETATM    6  C   UNL     1     -11.591  13.882  67.920  1.00  0.00    -0.377 A  
HETATM    7  C   UNL     1     -11.846  13.533  69.259  1.00  0.00    -0.392 A  
HETATM    8  C   UNL     1     -11.869  12.188  69.648  1.00  0.00    -0.391 A  
HETATM    9  C   UNL     1     -11.664  11.179  68.710  1.00  0.00    -0.394 A  
HETATM   10  C   UNL     1     -11.480  11.509  67.370  1.00  0.00    -0.349 A  
HETATM   11  C   UNL     1     -11.455  12.849  66.977  1.00  0.00    -0.390 A  
ENDBRANCH   3   6
ENDBRANCH   2   3
BRANCH   2  12
HETATM   12  N   UNL     1     -10.108  16.468  65.588  1.00  0.00    -0.543 NA 
HETATM   13  C   UNL     1     -10.345  17.897  65.781  1.00  0.00    -0.180 C  
HETATM   14  C   UNL     1     -11.145  15.922  64.705  1.00  0.00    -0.384 C  
ENDBRANCH   2  12
TORSDOF 3
ENDMDL
MODEL       56
REMARK 921   NORMALIZED FREE ENERGY PREDICTED BY IDOCK:   -3.91 KCAL/MOL
REMARK 922        TOTAL FREE ENERGY PREDICTED BY IDOCK:   -4.86 KCAL/MOL
REMARK 923 INTER-LIGAND FREE ENERGY PREDICTED BY IDOCK:   -4.62 KCAL/MOL
REMARK 924 INTRA-LIGAND FREE ENERGY PREDICTED BY IDOCK:   -0.23 KCAL/MOL
REMARK 927      BINDING AFFINITY PREDICTED BY RF-SCORE:    0.00 PKD
ROOT
HETATM    1  C   UNL     1     -10.592  14.247  66.588  1.00  0.00    -0.278 C  
HETATM    2  C   UNL     1     -10.148  13.669  67.946  1.00  0.00    -0.244 C  
ENDROOT
BRANCH   2   3
HETATM    3  C   UNL     1     -11.142  12.533  68.399  1.00  0.00    -0.258 C  
HETATM    4  H   UNL     1     -12.734  11.615  67.661  1.00  0.00     0.000 HD 
HETATM    5  O   UNL     1     -12.135  12.300  67.388  1.00  0.00    -0.533 OA 
BRANCH   3   6
HETATM    6  C   UNL     1     -11.826  12.666  69.756  1.00  0.00    -0.379 A  
HETATM    7  C   UNL     1     -12.197  11.513  70.471  1.00  0.00    -0.469 A  
HETATM    8  C   UNL     1     -13.015  11.613  71.602  1.00  0.00    -0.483 A  
HETATM    9  C   UNL     1     -13.453  12.859  72.047  1.00  0.00    -0.568 A  
HETATM   10  C   UNL     1     -13.037  14.013  71.389  1.00  0.00    -0.423 A  
HETATM   11  C   UNL     1     -12.221  13.917  70.259  1.00  0.00    -0.428 A  
ENDBRANCH   3   6
ENDBRANCH   2   3
BRANCH   2  12
HETATM   12  N   UNL     1      -8.721  13.209  67.851  1.00  0.00    -0.181 NA 
HETATM   13  C   UNL     1      -7.787  14.267  67.472  1.00  0.00    -0.194 C  
HETATM   14  C   UNL     1      -8.537  12.061  66.955  1.00  0.00    -0.185 C  
ENDBRANCH   2  12
TORSDOF 3
ENDMDL
MODEL       57
REMARK 921   NORMALIZED FREE ENERGY PREDICTED BY IDOCK:   -3.90 KCAL/MOL
REMARK 922        TOTAL FREE ENERGY PREDICTED BY IDOCK:   -4.85 KCAL/MOL
REMARK 923 INTER-LIGAND FREE ENERGY PREDICTED BY IDOCK:   -4.58 KCAL/MOL
REMARK 924 INTRA-LIGAND FREE ENERGY PREDICTED BY IDOCK:   -0.27 KCAL/MOL
REMARK 927      BINDING AFFINITY PREDICTED BY RF-SCORE:    0.00 PKD
ROOT
HETATM    1  C   UNL     1     -12.215  12.200  63.421  1.00  0.00    -0.635 C  
HETATM    2  C   UNL     1     -10.818  12.153  64.071  1.00  0.00    -0.383 C  
ENDROOT
BRANCH   2   3
HETATM    3  C   UNL     1     -10.943  12.345  65.631  1.00  0.00    -0.286 C  
HETATM    4  H   UNL     1     -12.338  12.115  67.017  1.00  0.00     0.000 HD 
HETATM    5  O   UNL     1     -12.263  12.000  66.077  1.00  0.00    -0.546 OA 
BRANCH   3   6
HETATM    6  C   UNL     1     -10.543  13.688  66.231  1.00  0.00    -0.289 A  
HETATM    7  C   UNL     1     -10.391  14.812  65.398  1.00  0.00    -0.410 A  
HETATM    8  C   UNL     1      -9.816  15.988  65.893  1.00  0.00    -0.380 A  
HETATM    9  C   UNL     1      -9.408  16.068  67.223  1.00  0.00    -0.218 A  
HETATM   10  C   UNL     1      -9.616  14.987  68.075  1.00  0.00    -0.208 A  
HETATM   11  C   UNL     1     -10.189  13.811  67.586  1.00  0.00    -0.242 A  
ENDBRANCH   3   6
ENDBRANCH   2   3
BRANCH   2  12
HETATM   12  N   UNL     1     -10.129  10.876  63.681  1.00  0.00    -0.344 NA 
HETATM   13  C   UNL     1      -9.509  10.178  64.805  1.00  0.00    -0.295 C  
HETATM   14  C   UNL     1      -9.136  11.051  62.616  1.00  0.00    -0.343 C  
ENDBRANCH   2  12
TORSDOF 3
ENDMDL
MODEL       58
REMARK 921   NORMALIZED FREE ENERGY PREDICTED BY IDOCK:   -3.89 KCAL/MOL
REMARK 922        TOTAL FREE ENERGY PREDICTED BY IDOCK:   -4.83 KCAL/MOL
REMARK 923 INTER-LIGAND FREE ENERGY PREDICTED BY IDOCK:   -4.64 KCAL/MOL
REMARK 924 INTRA-LIGAND FREE ENERGY PREDICTED BY IDOCK:   -0.19 KCAL/MOL
REMARK 927      BINDING AFFINITY PREDICTED BY RF-SCORE:    0.00 PKD
ROOT
HETATM    1  C   UNL     1     -10.385  14.714  66.977  1.00  0.00    -0.263 C  
HETATM    2  C   UNL     1     -11.077  13.433  67.482  1.00  0.00    -0.274 C  
ENDROOT
BRANCH   2   3
HETATM    3  C   UNL     1     -11.755  13.702  68.880  1.00  0.00    -0.338 C  
HETATM    4  H   UNL     1     -11.365  14.766  70.504  1.00  0.00     0.000 HD 
HETATM    5  O   UNL     1     -10.957  14.603  69.662  1.00  0.00    -0.255 OA 
BRANCH   3   6
HETATM    6  C   UNL     1     -12.150  12.505  69.737  1.00  0.00    -0.293 A  
HETATM    7  C   UNL     1     -12.903  12.698  70.909  1.00  0.00    -0.178 A  
HETATM    8  C   UNL     1     -13.085  11.648  71.817  1.00  0.00    -0.487 A  
HETATM    9  C   UNL     1     -12.541  10.392  71.559  1.00  0.00    -0.544 A  
HETATM   10  C   UNL     1     -11.852  10.168  70.370  1.00  0.00    -0.373 A  
HETATM   11  C   UNL     1     -11.668  11.214  69.462  1.00  0.00    -0.405 A  
ENDBRANCH   3   6
ENDBRANCH   2   3
BRANCH   2  12
HETATM   12  N   UNL     1     -12.039  12.940  66.438  1.00  0.00    -0.464 NA 
HETATM   13  C   UNL     1     -11.437  12.025  65.472  1.00  0.00    -0.313 C  
HETATM   14  C   UNL     1     -12.722  14.021  65.718  1.00  0.00    -0.450 C  
ENDBRANCH   2  12
TORSDOF 3
ENDMDL
MODEL       59
REMARK 921   NORMALIZED FREE ENERGY PREDICTED BY IDOCK:   -3.84 KCAL/MOL
REMARK 922        TOTAL FREE ENERGY PREDICTED BY IDOCK:   -4.77 KCAL/MOL
REMARK 923 INTER-LIGAND FREE ENERGY PREDICTED BY IDOCK:   -4.52 KCAL/MOL
REMARK 924 INTRA-LIGAND FREE ENERGY PREDICTED BY IDOCK:   -0.25 KCAL/MOL
REMARK 927      BINDING AFFINITY PREDICTED BY RF-SCORE:    0.00 PKD
ROOT
HETATM    1  C   UNL     1     -12.269  14.532  64.374  1.00  0.00    -0.480 C  
HETATM    2  C   UNL     1     -11.384  14.056  65.543  1.00  0.00    -0.313 C  
ENDROOT
BRANCH   2   3
HETATM    3  C   UNL     1     -10.500  12.833  65.085  1.00  0.00    -0.300 C  
HETATM    4  H   UNL     1     -10.131  11.854  63.404  1.00  0.00     0.000 HD 
HETATM    5  O   UNL     1     -10.664  12.591  63.680  1.00  0.00    -0.430 OA 
BRANCH   3   6
HETATM    6  C   UNL     1     -10.635  11.516  65.842  1.00  0.00    -0.318 A  
HETATM    7  C   UNL     1     -11.216  11.499  67.123  1.00  0.00    -0.365 A  
HETATM    8  C   UNL     1     -11.149  10.348  67.917  1.00  0.00    -0.363 A  
HETATM    9  C   UNL     1     -10.526   9.198  67.438  1.00  0.00    -0.339 A  
HETATM   10  C   UNL     1     -10.008   9.179  66.146  1.00  0.00    -0.338 A  
HETATM   11  C   UNL     1     -10.072  10.326  65.351  1.00  0.00    -0.354 A  
ENDBRANCH   3   6
ENDBRANCH   2   3
BRANCH   2  12
HETATM   12  N   UNL     1     -10.579  15.212  66.064  1.00  0.00    -0.308 NA 
HETATM   13  C   UNL     1     -10.904  15.580  67.440  1.00  0.00    -0.312 C  
HETATM   14  C   UNL     1     -10.654  16.406  65.214  1.00  0.00    -0.299 C  
ENDBRANCH   2  12
TORSDOF 3
ENDMDL
MODEL       60
REMARK 921   NORMALIZED FREE ENERGY PREDICTED BY IDOCK:   -3.83 KCAL/MOL
REMARK 922        TOTAL FREE ENERGY PREDICTED BY IDOCK:   -4.76 KCAL/MOL
REMARK 923 INTER-LIGAND FREE ENERGY PREDICTED BY IDOCK:   -4.48 KCAL/MOL
REMARK 924 INTRA-LIGAND FREE ENERGY PREDICTED BY IDOCK:   -0.28 KCAL/MOL
REMARK 927      BINDING AFFINITY PREDICTED BY RF-SCORE:    0.00 PKD
ROOT
HETATM    1  C   UNL     1     -13.222  10.388  71.750  1.00  0.00    -0.529 C  
HETATM    2  C   UNL     1     -11.894   9.630  71.558  1.00  0.00    -0.407 C  
ENDROOT
BRANCH   2   3
HETATM    3  C   UNL     1     -12.173   8.088  71.385  1.00  0.00    -0.309 C  
HETATM    4  H   UNL     1     -13.752   6.894  71.331  1.00  0.00     0.000 HD 
HETATM    5  O   UNL     1     -13.584   7.823  71.435  1.00  0.00    -0.329 OA 
BRANCH   3   6
HETATM    6  C   UNL     1     -11.444   7.111  72.301  1.00  0.00    -0.309 A  
HETATM    7  C   UNL     1     -11.813   5.754  72.315  1.00  0.00    -0.215 A  
HETATM    8  C   UNL     1     -11.311   4.894  73.298  1.00  0.00    -0.408 A  
HETATM    9  C   UNL     1     -10.422   5.366  74.262  1.00  0.00    -0.294 A  
HETATM   10  C   UNL     1      -9.995   6.691  74.217  1.00  0.00    -0.372 A  
HETATM   11  C   UNL     1     -10.494   7.553  73.238  1.00  0.00    -0.426 A  
ENDBRANCH   3   6
ENDBRANCH   2   3
BRANCH   2  12
HETATM   12  N   UNL     1     -11.138  10.231  70.407  1.00  0.00    -0.310 NA 
HETATM   13  C   UNL     1     -11.832  11.347  69.768  1.00  0.00    -0.364 C  
HETATM   14  C   UNL     1     -10.757   9.251  69.384  1.00  0.00    -0.208 C  
ENDBRANCH   2  12
TORSDOF 3
ENDMDL
MODEL       61
REMARK 921   NORMALIZED FREE ENERGY PREDICTED BY IDOCK:   -3.81 KCAL/MOL
REMARK 922        TOTAL FREE ENERGY PREDICTED BY IDOCK:   -4.73 KCAL/MOL
REMARK 923 INTER-LIGAND FREE ENERGY PREDICTED BY IDOCK:   -4.43 KCAL/MOL
REMARK 924 INTRA-LIGAND FREE ENERGY PREDICTED BY IDOCK:   -0.31 KCAL/MOL
REMARK 927      BINDING AFFINITY PREDICTED BY RF-SCORE:    0.00 PKD
ROOT
HETATM    1  C   UNL     1     -11.533  13.656  69.073  1.00  0.00    -0.346 C  
HETATM    2  C   UNL     1     -11.202  13.335  67.602  1.00  0.00    -0.280 C  
ENDROOT
BRANCH   2   3
HETATM    3  C   UNL     1     -11.662  11.868  67.254  1.00  0.00    -0.247 C  
HETATM    4  H   UNL     1     -12.493  10.341  68.203  1.00  0.00     0.000 HD 
HETATM    5  O   UNL     1     -12.215  11.225  68.413  1.00  0.00    -0.604 OA 
BRANCH   3   6
HETATM    6  C   UNL     1     -10.660  10.932  66.588  1.00  0.00    -0.305 A  
HETATM    7  C   UNL     1     -10.085  11.282  65.354  1.00  0.00    -0.314 A  
HETATM    8  C   UNL     1      -9.339  10.346  64.627  1.00  0.00    -0.304 A  
HETATM    9  C   UNL     1      -9.139   9.062  65.130  1.00  0.00    -0.203 A  
HETATM   10  C   UNL     1      -9.645   8.724  66.382  1.00  0.00    -0.316 A  
HETATM   11  C   UNL     1     -10.390   9.654  67.109  1.00  0.00    -0.319 A  
ENDBRANCH   3   6
ENDBRANCH   2   3
BRANCH   2  12
HETATM   12  N   UNL     1     -11.815  14.379  66.712  1.00  0.00    -0.410 NA 
HETATM   13  C   UNL     1     -12.758  13.836  65.736  1.00  0.00    -0.446 C  
HETATM   14  C   UNL     1     -10.825  15.208  66.016  1.00  0.00    -0.335 C  
ENDBRANCH   2  12
TORSDOF 3
ENDMDL
MODEL       62
REMARK 921   NORMALIZED FREE ENERGY PREDICTED BY IDOCK:   -3.80 KCAL/MOL
REMARK 922        TOTAL FREE ENERGY PREDICTED BY IDOCK:   -4.72 KCAL/MOL
REMARK 923 INTER-LIGAND FREE ENERGY PREDICTED BY IDOCK:   -4.37 KCAL/MOL
REMARK 924 INTRA-LIGAND FREE ENERGY PREDICTED BY IDOCK:   -0.35 KCAL/MOL
REMARK 927      BINDING AFFINITY PREDICTED BY RF-SCORE:    0.00 PKD
ROOT
HETATM    1  C   UNL     1     -10.433   7.278  73.497  1.00  0.00    -0.421 C  
HETATM    2  C   UNL     1     -10.770   6.365  72.302  1.00  0.00    -0.222 C  
ENDROOT
BRANCH   2   3
HETATM    3  C   UNL     1     -11.922   7.010  71.440  1.00  0.00    -0.340 C  
HETATM    4  H   UNL     1     -12.604   6.868  69.586  1.00  0.00     0.000 HD 
HETATM    5  O   UNL     1     -11.910   6.479  70.105  1.00  0.00    -0.416 OA 
BRANCH   3   6
HETATM    6  C   UNL     1     -12.016   8.530  71.376  1.00  0.00    -0.345 A  
HETATM    7  C   UNL     1     -13.048   9.199  72.060  1.00  0.00    -0.497 A  
HETATM    8  C   UNL     1     -13.280  10.561  71.837  1.00  0.00    -0.526 A  
HETATM    9  C   UNL     1     -12.477  11.277  70.952  1.00  0.00    -0.493 A  
HETATM   10  C   UNL     1     -11.410  10.643  70.321  1.00  0.00    -0.401 A  
HETATM   11  C   UNL     1     -11.175   9.284  70.540  1.00  0.00    -0.315 A  
ENDBRANCH   3   6
ENDBRANCH   2   3
BRANCH   2  12
HETATM   12  N   UNL     1      -9.521   6.089  71.515  1.00  0.00    -0.149 NA 
HETATM   13  C   UNL     1      -9.055   4.708  71.621  1.00  0.00    -0.135 C  
HETATM   14  C   UNL     1      -8.414   6.996  71.840  1.00  0.00    -0.109 C  
ENDBRANCH   2  12
TORSDOF 3
ENDMDL
MODEL       63
REMARK 921   NORMALIZED FREE ENERGY PREDICTED BY IDOCK:   -3.79 KCAL/MOL
REMARK 922        TOTAL FREE ENERGY PREDICTED BY IDOCK:   -4.71 KCAL/MOL
REMARK 923 INTER-LIGAND FREE ENERGY PREDICTED BY IDOCK:   -4.41 KCAL/MOL
REMARK 924 INTRA-LIGAND FREE ENERGY PREDICTED BY IDOCK:   -0.31 KCAL/MOL
REMARK 927      BINDING AFFINITY PREDICTED BY RF-SCORE:    0.00 PKD
ROOT
HETATM    1  C   UNL     1      -9.307  13.893  68.230  1.00  0.00    -0.209 C  
HETATM    2  C   UNL     1     -10.165  13.544  66.999  1.00  0.00    -0.249 C  
ENDROOT
BRANCH   2   3
HETATM    3  C   UNL     1     -10.771  12.097  67.158  1.00  0.00    -0.232 C  
HETATM    4  H   UNL     1     -12.390  11.125  66.560  1.00  0.00     0.000 HD 
HETATM    5  O   UNL     1     -12.025  11.997  66.465  1.00  0.00    -0.616 OA 
BRANCH   3   6
HETATM    6  C   UNL     1     -10.924  11.525  68.563  1.00  0.00    -0.268 A  
HETATM    7  C   UNL     1     -10.079  10.487  68.994  1.00  0.00    -0.230 A  
HETATM    8  C   UNL     1     -10.346   9.805  70.187  1.00  0.00    -0.335 A  
HETATM    9  C   UNL     1     -11.439  10.163  70.974  1.00  0.00    -0.436 A  
HETATM   10  C   UNL     1     -12.243  11.234  70.594  1.00  0.00    -0.489 A  
HETATM   11  C   UNL     1     -11.981  11.916  69.403  1.00  0.00    -0.350 A  
ENDBRANCH   3   6
ENDBRANCH   2   3
BRANCH   2  12
HETATM   12  N   UNL     1     -11.207  14.607  66.798  1.00  0.00    -0.336 NA 
HETATM   13  C   UNL     1     -11.097  15.301  65.517  1.00  0.00    -0.327 C  
HETATM   14  C   UNL     1     -11.247  15.597  67.880  1.00  0.00    -0.328 C  
ENDBRANCH   2  12
TORSDOF 3
ENDMDL
MODEL       64
REMARK 921   NORMALIZED FREE ENERGY PREDICTED BY IDOCK:   -3.78 KCAL/MOL
REMARK 922        TOTAL FREE ENERGY PREDICTED BY IDOCK:   -4.71 KCAL/MOL
REMARK 923 INTER-LIGAND FREE ENERGY PREDICTED BY IDOCK:   -4.47 KCAL/MOL
REMARK 924 INTRA-LIGAND FREE ENERGY PREDICTED BY IDOCK:   -0.24 KCAL/MOL
REMARK 927      BINDING AFFINITY PREDICTED BY RF-SCORE:    0.00 PKD
ROOT
HETATM    1  C   UNL     1     -10.506  19.365  67.710  1.00  0.00    -0.556 C  
HETATM    2  C   UNL     1     -10.045  18.156  66.873  1.00  0.00    -0.357 C  
ENDROOT
BRANCH   2   3
HETATM    3  C   UNL     1      -8.612  18.431  66.275  1.00  0.00    -0.194 C  
HETATM    4  H   UNL     1      -7.196  17.394  65.358  1.00  0.00     0.000 HD 
HETATM    5  O   UNL     1      -8.059  17.228  65.720  1.00  0.00    -0.527 OA 
BRANCH   3   6
HETATM    6  C   UNL     1      -7.571  19.101  67.164  1.00  0.00    -0.250 A  
HETATM    7  C   UNL     1      -7.162  18.480  68.358  1.00  0.00    -0.292 A  
HETATM    8  C   UNL     1      -6.380  19.175  69.287  1.00  0.00    -0.320 A  
HETATM    9  C   UNL     1      -5.977  20.484  69.030  1.00  0.00    -0.383 A  
HETATM   10  C   UNL     1      -6.317  21.087  67.822  1.00  0.00    -0.410 A  
HETATM   11  C   UNL     1      -7.098  20.397  66.892  1.00  0.00    -0.328 A  
ENDBRANCH   3   6
ENDBRANCH   2   3
BRANCH   2  12
HETATM   12  N   UNL     1     -10.111  16.912  67.714  1.00  0.00    -0.281 NA 
HETATM   13  C   UNL     1     -10.865  15.826  67.094  1.00  0.00    -0.289 C  
HETATM   14  C   UNL     1     -10.629  17.148  69.066  1.00  0.00    -0.282 C  
ENDBRANCH   2  12
TORSDOF 3
ENDMDL
MODEL       65
REMARK 921   NORMALIZED FREE ENERGY PREDICTED BY IDOCK:   -3.76 KCAL/MOL
REMARK 922        TOTAL FREE ENERGY PREDICTED BY IDOCK:   -4.68 KCAL/MOL
REMARK 923 INTER-LIGAND FREE ENERGY PREDICTED BY IDOCK:   -4.38 KCAL/MOL
REMARK 924 INTRA-LIGAND FREE ENERGY PREDICTED BY IDOCK:   -0.30 KCAL/MOL
REMARK 927      BINDING AFFINITY PREDICTED BY RF-SCORE:    0.00 PKD
ROOT
HETATM    1  C   UNL     1      -8.743  10.768  68.504  1.00  0.00    -0.149 C  
HETATM    2  C   UNL     1     -10.219  11.203  68.601  1.00  0.00    -0.205 C  
ENDROOT
BRANCH   2   3
HETATM    3  C   UNL     1     -10.991  10.781  67.293  1.00  0.00    -0.297 C  
HETATM    4  H   UNL     1     -10.848   9.370  65.910  1.00  0.00     0.000 HD 
HETATM    5  O   UNL     1     -10.382   9.624  66.698  1.00  0.00    -0.239 OA 
BRANCH   3   6
HETATM    6  C   UNL     1     -11.226  11.836  66.217  1.00  0.00    -0.370 A  
HETATM    7  C   UNL     1     -11.903  13.026  66.536  1.00  0.00    -0.464 A  
HETATM    8  C   UNL     1     -12.319  13.899  65.525  1.00  0.00    -0.506 A  
HETATM    9  C   UNL     1     -12.046  13.611  64.189  1.00  0.00    -0.484 A  
HETATM   10  C   UNL     1     -11.316  12.471  63.864  1.00  0.00    -0.504 A  
HETATM   11  C   UNL     1     -10.900  11.596  64.871  1.00  0.00    -0.359 A  
ENDBRANCH   3   6
ENDBRANCH   2   3
BRANCH   2  12
HETATM   12  N   UNL     1     -10.824  10.642  69.857  1.00  0.00    -0.264 NA 
HETATM   13  C   UNL     1     -10.452   9.253  70.116  1.00  0.00    -0.230 C  
HETATM   14  C   UNL     1     -12.285  10.768  69.907  1.00  0.00    -0.313 C  
ENDBRANCH   2  12
TORSDOF 3
ENDMDL
MODEL       66
REMARK 921   NORMALIZED FREE ENERGY PREDICTED BY IDOCK:   -3.76 KCAL/MOL
REMARK 922        TOTAL FREE ENERGY PREDICTED BY IDOCK:   -4.68 KCAL/MOL
REMARK 923 INTER-LIGAND FREE ENERGY PREDICTED BY IDOCK:   -4.57 KCAL/MOL
REMARK 924 INTRA-LIGAND FREE ENERGY PREDICTED BY IDOCK:   -0.11 KCAL/MOL
REMARK 927      BINDING AFFINITY PREDICTED BY RF-SCORE:    0.00 PKD
ROOT
HETATM    1  C   UNL     1     -11.484  13.197  67.752  1.00  0.00    -0.352 C  
HETATM    2  C   UNL     1     -10.216  14.072  67.690  1.00  0.00    -0.241 C  
ENDROOT
BRANCH   2   3
HETATM    3  C   UNL     1      -9.691  14.155  66.206  1.00  0.00    -0.297 C  
HETATM    4  H   UNL     1      -9.112  15.568  64.945  1.00  0.00     0.000 HD 
HETATM    5  O   UNL     1      -9.429  15.518  65.840  1.00  0.00    -0.331 OA 
BRANCH   3   6
HETATM    6  C   UNL     1     -10.510  13.486  65.108  1.00  0.00    -0.375 A  
HETATM    7  C   UNL     1     -11.633  14.142  64.571  1.00  0.00    -0.400 A  
HETATM    8  C   UNL     1     -12.517  13.460  63.728  1.00  0.00    -0.318 A  
HETATM    9  C   UNL     1     -12.284  12.128  63.392  1.00  0.00    -0.635 A  
HETATM   10  C   UNL     1     -11.140  11.487  63.861  1.00  0.00    -0.458 A  
HETATM   11  C   UNL     1     -10.255  12.164  64.703  1.00  0.00    -0.312 A  
ENDBRANCH   3   6
ENDBRANCH   2   3
BRANCH   2  12
HETATM   12  N   UNL     1     -10.507  15.416  68.295  1.00  0.00    -0.237 NA 
HETATM   13  C   UNL     1      -9.548  15.816  69.322  1.00  0.00    -0.270 C  
HETATM   14  C   UNL     1     -11.867  15.531  68.835  1.00  0.00    -0.338 C  
ENDBRANCH   2  12
TORSDOF 3
ENDMDL
MODEL       67
REMARK 921   NORMALIZED FREE ENERGY PREDICTED BY IDOCK:   -3.75 KCAL/MOL
REMARK 922        TOTAL FREE ENERGY PREDICTED BY IDOCK:   -4.67 KCAL/MOL
REMARK 923 INTER-LIGAND FREE ENERGY PREDICTED BY IDOCK:   -4.45 KCAL/MOL
REMARK 924 INTRA-LIGAND FREE ENERGY PREDICTED BY IDOCK:   -0.22 KCAL/MOL
REMARK 927      BINDING AFFINITY PREDICTED BY RF-SCORE:    0.00 PKD
ROOT
HETATM    1  C   UNL     1      -9.568  13.258  67.280  1.00  0.00    -0.234 C  
HETATM    2  C   UNL     1     -10.215  12.444  68.417  1.00  0.00    -0.225 C  
ENDROOT
BRANCH   2   3
HETATM    3  C   UNL     1     -11.729  12.855  68.579  1.00  0.00    -0.339 C  
HETATM    4  H   UNL     1     -12.951  14.225  67.837  1.00  0.00     0.000 HD 
HETATM    5  O   UNL     1     -12.039  13.978  67.740  1.00  0.00    -0.371 OA 
BRANCH   3   6
HETATM    6  C   UNL     1     -12.265  13.113  69.983  1.00  0.00    -0.323 A  
HETATM    7  C   UNL     1     -12.554  12.030  70.834  1.00  0.00    -0.347 A  
HETATM    8  C   UNL     1     -13.247  12.236  72.032  1.00  0.00    -0.508 A  
HETATM    9  C   UNL     1     -13.639  13.519  72.408  1.00  0.00    -0.709 A  
HETATM   10  C   UNL     1     -13.298  14.608  71.610  1.00  0.00    -0.435 A  
HETATM   11  C   UNL     1     -12.607  14.407  70.412  1.00  0.00    -0.405 A  
ENDBRANCH   3   6
ENDBRANCH   2   3
BRANCH   2  12
HETATM   12  N   UNL     1     -10.021  10.978  68.156  1.00  0.00    -0.172 NA 
HETATM   13  C   UNL     1      -8.661  10.511  68.418  1.00  0.00    -0.137 C  
HETATM   14  C   UNL     1     -10.418  10.569  66.804  1.00  0.00    -0.242 C  
ENDBRANCH   2  12
TORSDOF 3
ENDMDL
MODEL       68
REMARK 921   NORMALIZED FREE ENERGY PREDICTED BY IDOCK:   -3.75 KCAL/MOL
REMARK 922        TOTAL FREE ENERGY PREDICTED BY IDOCK:   -4.67 KCAL/MOL
REMARK 923 INTER-LIGAND FREE ENERGY PREDICTED BY IDOCK:   -4.39 KCAL/MOL
REMARK 924 INTRA-LIGAND FREE ENERGY PREDICTED BY IDOCK:   -0.28 KCAL/MOL
REMARK 927      BINDING AFFINITY PREDICTED BY RF-SCORE:    0.00 PKD
ROOT
HETATM    1  C   UNL     1     -12.196  12.151  70.344  1.00  0.00    -0.378 C  
HETATM    2  C   UNL     1     -11.416  10.944  69.789  1.00  0.00    -0.313 C  
ENDROOT
BRANCH   2   3
HETATM    3  C   UNL     1     -11.847   9.629  70.546  1.00  0.00    -0.215 C  
HETATM    4  H   UNL     1     -13.252   9.086  71.832  1.00  0.00     0.000 HD 
HETATM    5  O   UNL     1     -12.992   9.879  71.376  1.00  0.00    -0.352 OA 
BRANCH   3   6
HETATM    6  C   UNL     1     -10.794   8.878  71.352  1.00  0.00    -0.378 A  
HETATM    7  C   UNL     1     -11.167   8.172  72.510  1.00  0.00    -0.459 A  
HETATM    8  C   UNL     1     -10.192   7.665  73.377  1.00  0.00    -0.375 A  
HETATM    9  C   UNL     1      -8.839   7.833  73.090  1.00  0.00    -0.260 A  
HETATM   10  C   UNL     1      -8.455   8.468  71.912  1.00  0.00    -0.234 A  
HETATM   11  C   UNL     1      -9.425   8.977  71.045  1.00  0.00    -0.342 A  
ENDBRANCH   3   6
ENDBRANCH   2   3
BRANCH   2  12
HETATM   12  N   UNL     1     -11.609  10.865  68.301  1.00  0.00    -0.470 NA 
HETATM   13  C   UNL     1     -10.721   9.908  67.645  1.00  0.00    -0.281 C  
HETATM   14  C   UNL     1     -11.498  12.164  67.629  1.00  0.00    -0.331 C  
ENDBRANCH   2  12
TORSDOF 3
ENDMDL
MODEL       69
REMARK 921   NORMALIZED FREE ENERGY PREDICTED BY IDOCK:   -3.75 KCAL/MOL
REMARK 922        TOTAL FREE ENERGY PREDICTED BY IDOCK:   -4.66 KCAL/MOL
REMARK 923 INTER-LIGAND FREE ENERGY PREDICTED BY IDOCK:   -4.34 KCAL/MOL
REMARK 924 INTRA-LIGAND FREE ENERGY PREDICTED BY IDOCK:   -0.32 KCAL/MOL
REMARK 927      BINDING AFFINITY PREDICTED BY RF-SCORE:    0.00 PKD
ROOT
HETATM    1  C   UNL     1      -7.546  17.399  66.361  1.00  0.00    -0.342 C  
HETATM    2  C   UNL     1      -9.074  17.577  66.450  1.00  0.00    -0.240 C  
ENDROOT
BRANCH   2   3
HETATM    3  C   UNL     1      -9.582  17.166  67.886  1.00  0.00    -0.266 C  
HETATM    4  H   UNL     1      -8.819  17.005  69.707  1.00  0.00     0.000 HD 
HETATM    5  O   UNL     1      -8.513  17.253  68.841  1.00  0.00    -0.257 OA 
BRANCH   3   6
HETATM    6  C   UNL     1     -10.295  15.829  68.048  1.00  0.00    -0.252 A  
HETATM    7  C   UNL     1     -10.933  15.235  66.944  1.00  0.00    -0.315 A  
HETATM    8  C   UNL     1     -11.773  14.129  67.120  1.00  0.00    -0.430 A  
HETATM    9  C   UNL     1     -11.969  13.588  68.389  1.00  0.00    -0.378 A  
HETATM   10  C   UNL     1     -11.289  14.123  69.480  1.00  0.00    -0.308 A  
HETATM   11  C   UNL     1     -10.451  15.227  69.309  1.00  0.00    -0.258 A  
ENDBRANCH   3   6
ENDBRANCH   2   3
BRANCH   2  12
HETATM   12  N   UNL     1      -9.437  18.985  66.071  1.00  0.00    -0.467 NA 
HETATM   13  C   UNL     1      -8.350  19.942  66.266  1.00  0.00    -0.340 C  
HETATM   14  C   UNL     1     -10.642  19.480  66.747  1.00  0.00    -0.488 C  
ENDBRANCH   2  12
TORSDOF 3
ENDMDL
MODEL       70
REMARK 921   NORMALIZED FREE ENERGY PREDICTED BY IDOCK:   -3.74 KCAL/MOL
REMARK 922        TOTAL FREE ENERGY PREDICTED BY IDOCK:   -4.66 KCAL/MOL
REMARK 923 INTER-LIGAND FREE ENERGY PREDICTED BY IDOCK:   -4.39 KCAL/MOL
REMARK 924 INTRA-LIGAND FREE ENERGY PREDICTED BY IDOCK:   -0.27 KCAL/MOL
REMARK 927      BINDING AFFINITY PREDICTED BY RF-SCORE:    0.00 PKD
ROOT
HETATM    1  C   UNL     1      -9.005  15.678  66.878  1.00  0.00    -0.267 C  
HETATM    2  C   UNL     1      -9.964  16.574  67.686  1.00  0.00    -0.254 C  
ENDROOT
BRANCH   2   3
HETATM    3  C   UNL     1      -9.761  16.326  69.230  1.00  0.00    -0.238 C  
HETATM    4  H   UNL     1      -8.341  15.617  70.414  1.00  0.00     0.000 HD 
HETATM    5  O   UNL     1      -8.464  15.766  69.484  1.00  0.00    -0.246 OA 
BRANCH   3   6
HETATM    6  C   UNL     1     -10.815  15.517  69.979  1.00  0.00    -0.330 A  
HETATM    7  C   UNL     1     -11.143  14.220  69.546  1.00  0.00    -0.244 A  
HETATM    8  C   UNL     1     -12.251  13.553  70.080  1.00  0.00    -0.381 A  
HETATM    9  C   UNL     1     -13.031  14.158  71.064  1.00  0.00    -0.399 A  
HETATM   10  C   UNL     1     -12.676  15.414  71.551  1.00  0.00    -0.480 A  
HETATM   11  C   UNL     1     -11.571  16.082  71.020  1.00  0.00    -0.472 A  
ENDBRANCH   3   6
ENDBRANCH   2   3
BRANCH   2  12
HETATM   12  N   UNL     1      -9.767  18.008  67.282  1.00  0.00    -0.289 NA 
HETATM   13  C   UNL     1     -10.055  18.962  68.351  1.00  0.00    -0.392 C  
HETATM   14  C   UNL     1     -10.523  18.386  66.083  1.00  0.00    -0.395 C  
ENDBRANCH   2  12
TORSDOF 3
ENDMDL
MODEL       71
REMARK 921   NORMALIZED FREE ENERGY PREDICTED BY IDOCK:   -3.74 KCAL/MOL
REMARK 922        TOTAL FREE ENERGY PREDICTED BY IDOCK:   -4.66 KCAL/MOL
REMARK 923 INTER-LIGAND FREE ENERGY PREDICTED BY IDOCK:   -4.38 KCAL/MOL
REMARK 924 INTRA-LIGAND FREE ENERGY PREDICTED BY IDOCK:   -0.27 KCAL/MOL
REMARK 927      BINDING AFFINITY PREDICTED BY RF-SCORE:    0.00 PKD
ROOT
HETATM    1  C   UNL     1      -8.043   7.896  68.642  1.00  0.00    -0.126 C  
HETATM    2  C   UNL     1      -9.293   7.811  69.539  1.00  0.00    -0.149 C  
ENDROOT
BRANCH   2   3
HETATM    3  C   UNL     1      -9.409   9.109  70.426  1.00  0.00    -0.232 C  
HETATM    4  H   UNL     1      -8.455   9.908  71.967  1.00  0.00     0.000 HD 
HETATM    5  O   UNL     1      -8.385   9.125  71.432  1.00  0.00    -0.321 OA 
BRANCH   3   6
HETATM    6  C   UNL     1     -10.754   9.430  71.070  1.00  0.00    -0.407 A  
HETATM    7  C   UNL     1     -11.306   8.550  72.019  1.00  0.00    -0.425 A  
HETATM    8  C   UNL     1     -12.626   8.713  72.453  1.00  0.00    -0.426 A  
HETATM    9  C   UNL     1     -13.403   9.763  71.967  1.00  0.00    -0.547 A  
HETATM   10  C   UNL     1     -12.847  10.682  71.081  1.00  0.00    -0.518 A  
HETATM   11  C   UNL     1     -11.529  10.522  70.645  1.00  0.00    -0.418 A  
ENDBRANCH   3   6
ENDBRANCH   2   3
BRANCH   2  12
HETATM   12  N   UNL     1     -10.504   7.562  68.686  1.00  0.00    -0.199 NA 
HETATM   13  C   UNL     1     -11.171   6.293  68.969  1.00  0.00    -0.343 C  
HETATM   14  C   UNL     1     -10.233   7.652  67.246  1.00  0.00    -0.272 C  
ENDBRANCH   2  12
TORSDOF 3
ENDMDL
MODEL       72
REMARK 921   NORMALIZED FREE ENERGY PREDICTED BY IDOCK:   -3.74 KCAL/MOL
REMARK 922        TOTAL FREE ENERGY PREDICTED BY IDOCK:   -4.65 KCAL/MOL
REMARK 923 INTER-LIGAND FREE ENERGY PREDICTED BY IDOCK:   -4.54 KCAL/MOL
REMARK 924 INTRA-LIGAND FREE ENERGY PREDICTED BY IDOCK:   -0.11 KCAL/MOL
REMARK 927      BINDING AFFINITY PREDICTED BY RF-SCORE:    0.00 PKD
ROOT
HETATM    1  C   UNL     1     -12.394  12.311  70.811  1.00  0.00    -0.383 C  
HETATM    2  C   UNL     1     -11.810  13.238  69.727  1.00  0.00    -0.325 C  
ENDROOT
BRANCH   2   3
HETATM    3  C   UNL     1     -12.243  12.734  68.298  1.00  0.00     0.072 C  
HETATM    4  H   UNL     1     -12.532  10.995  67.395  1.00  0.00     0.000 HD 
HETATM    5  O   UNL     1     -12.271  11.299  68.256  1.00  0.00    -0.611 OA 
BRANCH   3   6
HETATM    6  C   UNL     1     -11.485  13.258  67.083  1.00  0.00    -0.380 A  
HETATM    7  C   UNL     1     -10.336  14.051  67.261  1.00  0.00    -0.264 A  
HETATM    8  C   UNL     1      -9.760  14.718  66.173  1.00  0.00    -0.338 A  
HETATM    9  C   UNL     1     -10.304  14.586  64.897  1.00  0.00    -0.401 A  
HETATM   10  C   UNL     1     -11.399  13.750  64.696  1.00  0.00    -0.382 A  
HETATM   11  C   UNL     1     -11.977  13.083  65.778  1.00  0.00    -0.482 A  
ENDBRANCH   3   6
ENDBRANCH   2   3
BRANCH   2  12
HETATM   12  N   UNL     1     -12.220  14.656  70.009  1.00  0.00    -0.323 NA 
HETATM   13  C   UNL     1     -11.119  15.506  70.457  1.00  0.00    -0.345 C  
HETATM   14  C   UNL     1     -13.331  14.765  70.960  1.00  0.00    -0.374 C  
ENDBRANCH   2  12
TORSDOF 3
ENDMDL
MODEL       73
REMARK 921   NORMALIZED FREE ENERGY PREDICTED BY IDOCK:   -3.73 KCAL/MOL
REMARK 922        TOTAL FREE ENERGY PREDICTED BY IDOCK:   -4.64 KCAL/MOL
REMARK 923 INTER-LIGAND FREE ENERGY PREDICTED BY IDOCK:   -4.40 KCAL/MOL
REMARK 924 INTRA-LIGAND FREE ENERGY PREDICTED BY IDOCK:   -0.24 KCAL/MOL
REMARK 927      BINDING AFFINITY PREDICTED BY RF-SCORE:    0.00 PKD
ROOT
HETATM    1  C   UNL     1      -7.596  17.594  66.263  1.00  0.00    -0.334 C  
HETATM    2  C   UNL     1      -8.527  18.821  66.324  1.00  0.00    -0.241 C  
ENDROOT
BRANCH   2   3
HETATM    3  C   UNL     1     -10.033  18.355  66.305  1.00  0.00    -0.366 C  
HETATM    4  H   UNL     1     -11.738  18.910  67.147  1.00  0.00     0.000 HD 
HETATM    5  O   UNL     1     -10.830  19.191  67.159  1.00  0.00    -0.464 OA 
BRANCH   3   6
HETATM    6  C   UNL     1     -10.344  16.892  66.601  1.00  0.00    -0.299 A  
HETATM    7  C   UNL     1     -10.449  15.969  65.544  1.00  0.00    -0.426 A  
HETATM    8  C   UNL     1     -10.945  14.681  65.774  1.00  0.00    -0.330 A  
HETATM    9  C   UNL     1     -11.321  14.289  67.058  1.00  0.00    -0.354 A  
HETATM   10  C   UNL     1     -11.157  15.170  68.124  1.00  0.00    -0.306 A  
HETATM   11  C   UNL     1     -10.663  16.456  67.899  1.00  0.00    -0.332 A  
ENDBRANCH   3   6
ENDBRANCH   2   3
BRANCH   2  12
HETATM   12  N   UNL     1      -8.177  19.655  67.524  1.00  0.00    -0.288 NA 
HETATM   13  C   UNL     1      -7.361  20.825  67.206  1.00  0.00    -0.343 C  
HETATM   14  C   UNL     1      -7.528  18.892  68.596  1.00  0.00    -0.321 C  
ENDBRANCH   2  12
TORSDOF 3
ENDMDL
MODEL       74
REMARK 921   NORMALIZED FREE ENERGY PREDICTED BY IDOCK:   -3.73 KCAL/MOL
REMARK 922        TOTAL FREE ENERGY PREDICTED BY IDOCK:   -4.64 KCAL/MOL
REMARK 923 INTER-LIGAND FREE ENERGY PREDICTED BY IDOCK:   -4.35 KCAL/MOL
REMARK 924 INTRA-LIGAND FREE ENERGY PREDICTED BY IDOCK:   -0.29 KCAL/MOL
REMARK 927      BINDING AFFINITY PREDICTED BY RF-SCORE:    0.00 PKD
ROOT
HETATM    1  C   UNL     1      -9.680   9.899  70.077  1.00  0.00    -0.274 C  
HETATM    2  C   UNL     1     -10.236  10.237  68.680  1.00  0.00    -0.180 C  
ENDROOT
BRANCH   2   3
HETATM    3  C   UNL     1     -11.713  10.774  68.804  1.00  0.00    -0.245 C  
HETATM    4  H   UNL     1     -13.009  11.744  67.662  1.00  0.00     0.000 HD 
HETATM    5  O   UNL     1     -12.118  11.421  67.587  1.00  0.00    -0.630 OA 
BRANCH   3   6
HETATM    6  C   UNL     1     -12.063  11.666  69.990  1.00  0.00    -0.395 A  
HETATM    7  C   UNL     1     -12.761  11.132  71.088  1.00  0.00    -0.510 A  
HETATM    8  C   UNL     1     -13.280  11.976  72.077  1.00  0.00    -0.481 A  
HETATM    9  C   UNL     1     -13.091  13.355  71.996  1.00  0.00    -0.473 A  
HETATM   10  C   UNL     1     -12.343  13.890  70.951  1.00  0.00    -0.451 A  
HETATM   11  C   UNL     1     -11.824  13.051  69.962  1.00  0.00    -0.355 A  
ENDBRANCH   3   6
ENDBRANCH   2   3
BRANCH   2  12
HETATM   12  N   UNL     1      -9.309  11.198  67.991  1.00  0.00    -0.161 NA 
HETATM   13  C   UNL     1      -8.805  10.710  66.709  1.00  0.00    -0.139 C  
HETATM   14  C   UNL     1      -8.176  11.615  68.826  1.00  0.00    -0.055 C  
ENDBRANCH   2  12
TORSDOF 3
ENDMDL
MODEL       75
REMARK 921   NORMALIZED FREE ENERGY PREDICTED BY IDOCK:   -3.72 KCAL/MOL
REMARK 922        TOTAL FREE ENERGY PREDICTED BY IDOCK:   -4.63 KCAL/MOL
REMARK 923 INTER-LIGAND FREE ENERGY PREDICTED BY IDOCK:   -4.32 KCAL/MOL
REMARK 924 INTRA-LIGAND FREE ENERGY PREDICTED BY IDOCK:   -0.31 KCAL/MOL
REMARK 927      BINDING AFFINITY PREDICTED BY RF-SCORE:    0.00 PKD
ROOT
HETATM    1  C   UNL     1     -11.820  13.504  67.051  1.00  0.00    -0.447 C  
HETATM    2  C   UNL     1     -11.591  14.048  65.627  1.00  0.00    -0.331 C  
ENDROOT
BRANCH   2   3
HETATM    3  C   UNL     1     -11.264  15.589  65.686  1.00  0.00    -0.155 C  
HETATM    4  H   UNL     1     -10.787  17.024  64.407  1.00  0.00     0.000 HD 
HETATM    5  O   UNL     1     -10.983  16.095  64.372  1.00  0.00    -0.612 OA 
BRANCH   3   6
HETATM    6  C   UNL     1     -10.185  16.066  66.651  1.00  0.00    -0.295 A  
HETATM    7  C   UNL     1     -10.536  16.842  67.770  1.00  0.00    -0.340 A  
HETATM    8  C   UNL     1      -9.548  17.469  68.538  1.00  0.00    -0.305 A  
HETATM    9  C   UNL     1      -8.201  17.312  68.216  1.00  0.00    -0.237 A  
HETATM   10  C   UNL     1      -7.836  16.490  67.153  1.00  0.00    -0.215 A  
HETATM   11  C   UNL     1      -8.820  15.864  66.384  1.00  0.00    -0.368 A  
ENDBRANCH   3   6
ENDBRANCH   2   3
BRANCH   2  12
HETATM   12  N   UNL     1     -10.522  13.238  64.949  1.00  0.00    -0.353 NA 
HETATM   13  C   UNL     1     -10.956  12.630  63.694  1.00  0.00    -0.416 C  
HETATM   14  C   UNL     1      -9.940  12.202  65.810  1.00  0.00    -0.249 C  
ENDBRANCH   2  12
TORSDOF 3
ENDMDL
MODEL       76
REMARK 921   NORMALIZED FREE ENERGY PREDICTED BY IDOCK:   -3.70 KCAL/MOL
REMARK 922        TOTAL FREE ENERGY PREDICTED BY IDOCK:   -4.61 KCAL/MOL
REMARK 923 INTER-LIGAND FREE ENERGY PREDICTED BY IDOCK:   -4.32 KCAL/MOL
REMARK 924 INTRA-LIGAND FREE ENERGY PREDICTED BY IDOCK:   -0.29 KCAL/MOL
REMARK 927      BINDING AFFINITY PREDICTED BY RF-SCORE:    0.00 PKD
ROOT
HETATM    1  C   UNL     1      -9.542   8.251  72.540  1.00  0.00    -0.365 C  
HETATM    2  C   UNL     1     -10.770   7.321  72.496  1.00  0.00    -0.262 C  
ENDROOT
BRANCH   2   3
HETATM    3  C   UNL     1     -11.671   7.676  71.252  1.00  0.00    -0.284 C  
HETATM    4  H   UNL     1     -11.659   7.329  69.302  1.00  0.00     0.000 HD 
HETATM    5  O   UNL     1     -11.116   7.116  70.052  1.00  0.00    -0.263 OA 
BRANCH   3   6
HETATM    6  C   UNL     1     -12.026   9.139  71.007  1.00  0.00    -0.344 A  
HETATM    7  C   UNL     1     -11.361   9.864  70.002  1.00  0.00    -0.303 A  
HETATM    8  C   UNL     1     -11.514  11.252  69.910  1.00  0.00    -0.373 A  
HETATM    9  C   UNL     1     -12.346  11.930  70.800  1.00  0.00    -0.416 A  
HETATM   10  C   UNL     1     -13.063  11.216  71.755  1.00  0.00    -0.536 A  
HETATM   11  C   UNL     1     -12.913   9.830  71.851  1.00  0.00    -0.535 A  
ENDBRANCH   3   6
ENDBRANCH   2   3
BRANCH   2  12
HETATM   12  N   UNL     1     -10.314   5.890  72.512  1.00  0.00    -0.191 NA 
HETATM   13  C   UNL     1     -11.014   5.062  73.492  1.00  0.00    -0.328 C  
HETATM   14  C   UNL     1      -8.867   5.741  72.701  1.00  0.00    -0.125 C  
ENDBRANCH   2  12
TORSDOF 3
ENDMDL
MODEL       77
REMARK 921   NORMALIZED FREE ENERGY PREDICTED BY IDOCK:   -3.68 KCAL/MOL
REMARK 922        TOTAL FREE ENERGY PREDICTED BY IDOCK:   -4.58 KCAL/MOL
REMARK 923 INTER-LIGAND FREE ENERGY PREDICTED BY IDOCK:   -4.26 KCAL/MOL
REMARK 924 INTRA-LIGAND FREE ENERGY PREDICTED BY IDOCK:   -0.33 KCAL/MOL
REMARK 927      BINDING AFFINITY PREDICTED BY RF-SCORE:    0.00 PKD
ROOT
HETATM    1  C   UNL     1      -9.697   8.688  72.061  1.00  0.00    -0.391 C  
HETATM    2  C   UNL     1     -11.028   9.031  71.364  1.00  0.00    -0.324 C  
ENDROOT
BRANCH   2   3
HETATM    3  C   UNL     1     -10.871   8.885  69.802  1.00  0.00    -0.200 C  
HETATM    4  H   UNL     1      -9.465   8.315  68.528  1.00  0.00     0.000 HD 
HETATM    5  O   UNL     1      -9.560   8.403  69.470  1.00  0.00    -0.168 OA 
BRANCH   3   6
HETATM    6  C   UNL     1     -11.203  10.087  68.924  1.00  0.00    -0.179 A  
HETATM    7  C   UNL     1     -10.805  10.103  67.575  1.00  0.00    -0.349 A  
HETATM    8  C   UNL     1     -10.905  11.277  66.820  1.00  0.00    -0.334 A  
HETATM    9  C   UNL     1     -11.423  12.439  67.389  1.00  0.00    -0.418 A  
HETATM   10  C   UNL     1     -11.885  12.418  68.702  1.00  0.00    -0.348 A  
HETATM   11  C   UNL     1     -11.786  11.249  69.460  1.00  0.00    -0.427 A  
ENDBRANCH   3   6
ENDBRANCH   2   3
BRANCH   2  12
HETATM   12  N   UNL     1     -12.125   8.177  71.934  1.00  0.00    -0.304 NA 
HETATM   13  C   UNL     1     -12.264   6.882  71.273  1.00  0.00    -0.380 C  
HETATM   14  C   UNL     1     -13.431   8.846  71.962  1.00  0.00    -0.433 C  
ENDBRANCH   2  12
TORSDOF 3
ENDMDL
MODEL       78
REMARK 921   NORMALIZED FREE ENERGY PREDICTED BY IDOCK:   -3.68 KCAL/MOL
REMARK 922        TOTAL FREE ENERGY PREDICTED BY IDOCK:   -4.58 KCAL/MOL
REMARK 923 INTER-LIGAND FREE ENERGY PREDICTED BY IDOCK:   -4.33 KCAL/MOL
REMARK 924 INTRA-LIGAND FREE ENERGY PREDICTED BY IDOCK:   -0.25 KCAL/MOL
REMARK 927      BINDING AFFINITY PREDICTED BY RF-SCORE:    0.00 PKD
ROOT
HETATM    1  C   UNL     1      -9.581  11.313  67.253  1.00  0.00    -0.188 C  
HETATM    2  C   UNL     1     -10.289  11.248  68.620  1.00  0.00    -0.201 C  
ENDROOT
BRANCH   2   3
HETATM    3  C   UNL     1     -11.709  11.927  68.524  1.00  0.00    -0.330 C  
HETATM    4  H   UNL     1     -12.967  12.470  67.094  1.00  0.00     0.000 HD 
HETATM    5  O   UNL     1     -12.111  12.061  67.152  1.00  0.00    -0.587 OA 
BRANCH   3   6
HETATM    6  C   UNL     1     -11.930  13.252  69.245  1.00  0.00    -0.354 A  
HETATM    7  C   UNL     1     -11.732  14.465  68.562  1.00  0.00    -0.370 A  
HETATM    8  C   UNL     1     -11.716  15.678  69.261  1.00  0.00    -0.388 A  
HETATM    9  C   UNL     1     -11.918  15.699  70.640  1.00  0.00    -0.438 A  
HETATM   10  C   UNL     1     -12.183  14.513  71.318  1.00  0.00    -0.421 A  
HETATM   11  C   UNL     1     -12.200  13.300  70.624  1.00  0.00    -0.417 A  
ENDBRANCH   3   6
ENDBRANCH   2   3
BRANCH   2  12
HETATM   12  N   UNL     1     -10.342   9.821  69.088  1.00  0.00    -0.200 NA 
HETATM   13  C   UNL     1     -10.296   9.680  70.542  1.00  0.00    -0.295 C  
HETATM   14  C   UNL     1      -9.307   8.971  68.488  1.00  0.00    -0.139 C  
ENDBRANCH   2  12
TORSDOF 3
ENDMDL
MODEL       79
REMARK 921   NORMALIZED FREE ENERGY PREDICTED BY IDOCK:   -3.67 KCAL/MOL
REMARK 922        TOTAL FREE ENERGY PREDICTED BY IDOCK:   -4.57 KCAL/MOL
REMARK 923 INTER-LIGAND FREE ENERGY PREDICTED BY IDOCK:   -4.38 KCAL/MOL
REMARK 924 INTRA-LIGAND FREE ENERGY PREDICTED BY IDOCK:   -0.20 KCAL/MOL
REMARK 927      BINDING AFFINITY PREDICTED BY RF-SCORE:    0.00 PKD
ROOT
HETATM    1  C   UNL     1      -9.618  13.475  68.443  1.00  0.00    -0.196 C  
HETATM    2  C   UNL     1     -10.009  14.966  68.414  1.00  0.00    -0.222 C  
ENDROOT
BRANCH   2   3
HETATM    3  C   UNL     1     -11.518  15.136  68.839  1.00  0.00    -0.320 C  
HETATM    4  H   UNL     1     -12.940  16.500  68.638  1.00  0.00     0.000 HD 
HETATM    5  O   UNL     1     -12.030  16.398  68.383  1.00  0.00    -0.006 OA 
BRANCH   3   6
HETATM    6  C   UNL     1     -11.885  14.943  70.306  1.00  0.00    -0.358 A  
HETATM    7  C   UNL     1     -12.508  13.753  70.723  1.00  0.00    -0.441 A  
HETATM    8  C   UNL     1     -13.047  13.648  72.010  1.00  0.00    -0.484 A  
HETATM    9  C   UNL     1     -12.953  14.714  72.902  1.00  0.00    -0.592 A  
HETATM   10  C   UNL     1     -12.278  15.872  72.526  1.00  0.00    -0.597 A  
HETATM   11  C   UNL     1     -11.739  15.981  71.242  1.00  0.00    -0.516 A  
ENDBRANCH   3   6
ENDBRANCH   2   3
BRANCH   2  12
HETATM   12  N   UNL     1      -9.057  15.749  69.274  1.00  0.00    -0.253 NA 
HETATM   13  C   UNL     1      -8.729  17.067  68.735  1.00  0.00    -0.244 C  
HETATM   14  C   UNL     1      -7.814  15.028  69.573  1.00  0.00    -0.149 C  
ENDBRANCH   2  12
TORSDOF 3
ENDMDL
MODEL       80
REMARK 921   NORMALIZED FREE ENERGY PREDICTED BY IDOCK:   -3.67 KCAL/MOL
REMARK 922        TOTAL FREE ENERGY PREDICTED BY IDOCK:   -4.57 KCAL/MOL
REMARK 923 INTER-LIGAND FREE ENERGY PREDICTED BY IDOCK:   -4.27 KCAL/MOL
REMARK 924 INTRA-LIGAND FREE ENERGY PREDICTED BY IDOCK:   -0.30 KCAL/MOL
REMARK 927      BINDING AFFINITY PREDICTED BY RF-SCORE:    0.00 PKD
ROOT
HETATM    1  C   UNL     1     -10.558  15.030  66.303  1.00  0.00    -0.309 C  
HETATM    2  C   UNL     1     -10.734  13.508  66.469  1.00  0.00    -0.287 C  
ENDROOT
BRANCH   2   3
HETATM    3  C   UNL     1     -11.751  13.208  67.636  1.00  0.00    -0.369 C  
HETATM    4  H   UNL     1     -12.760  14.245  68.988  1.00  0.00     0.000 HD 
HETATM    5  O   UNL     1     -12.147  14.426  68.285  1.00  0.00    -0.309 OA 
BRANCH   3   6
HETATM    6  C   UNL     1     -11.360  12.179  68.692  1.00  0.00    -0.330 A  
HETATM    7  C   UNL     1     -10.271  11.318  68.465  1.00  0.00    -0.214 A  
HETATM    8  C   UNL     1     -10.037  10.232  69.316  1.00  0.00    -0.244 A  
HETATM    9  C   UNL     1     -10.866  10.004  70.412  1.00  0.00    -0.380 A  
HETATM   10  C   UNL     1     -11.905  10.888  70.688  1.00  0.00    -0.453 A  
HETATM   11  C   UNL     1     -12.143  11.973  69.841  1.00  0.00    -0.334 A  
ENDBRANCH   3   6
ENDBRANCH   2   3
BRANCH   2  12
HETATM   12  N   UNL     1     -11.142  12.906  65.155  1.00  0.00    -0.287 NA 
HETATM   13  C   UNL     1     -12.588  12.762  64.999  1.00  0.00    -0.468 C  
HETATM   14  C   UNL     1     -10.498  11.617  64.878  1.00  0.00    -0.288 C  
ENDBRANCH   2  12
TORSDOF 3
ENDMDL
MODEL       81
REMARK 921   NORMALIZED FREE ENERGY PREDICTED BY IDOCK:   -3.67 KCAL/MOL
REMARK 922        TOTAL FREE ENERGY PREDICTED BY IDOCK:   -4.57 KCAL/MOL
REMARK 923 INTER-LIGAND FREE ENERGY PREDICTED BY IDOCK:   -4.25 KCAL/MOL
REMARK 924 INTRA-LIGAND FREE ENERGY PREDICTED BY IDOCK:   -0.31 KCAL/MOL
REMARK 927      BINDING AFFINITY PREDICTED BY RF-SCORE:    0.00 PKD
ROOT
HETATM    1  C   UNL     1      -8.020  15.043  67.170  1.00  0.00    -0.238 C  
HETATM    2  C   UNL     1      -8.506  16.283  66.394  1.00  0.00    -0.330 C  
ENDROOT
BRANCH   2   3
HETATM    3  C   UNL     1     -10.080  16.365  66.441  1.00  0.00    -0.316 C  
HETATM    4  H   UNL     1     -11.470  16.901  67.746  1.00  0.00     0.000 HD 
HETATM    5  O   UNL     1     -10.521  16.851  67.718  1.00  0.00    -0.317 OA 
BRANCH   3   6
HETATM    6  C   UNL     1     -10.882  15.122  66.070  1.00  0.00    -0.335 A  
HETATM    7  C   UNL     1     -11.632  14.452  67.053  1.00  0.00    -0.402 A  
HETATM    8  C   UNL     1     -12.192  13.197  66.785  1.00  0.00    -0.306 A  
HETATM    9  C   UNL     1     -12.031  12.607  65.533  1.00  0.00    -0.509 A  
HETATM   10  C   UNL     1     -11.349  13.290  64.529  1.00  0.00    -0.392 A  
HETATM   11  C   UNL     1     -10.789  14.542  64.793  1.00  0.00    -0.410 A  
ENDBRANCH   3   6
ENDBRANCH   2   3
BRANCH   2  12
HETATM   12  N   UNL     1      -7.829  17.509  66.938  1.00  0.00    -0.215 NA 
HETATM   13  C   UNL     1      -6.941  18.163  65.979  1.00  0.00    -0.292 C  
HETATM   14  C   UNL     1      -7.096  17.267  68.185  1.00  0.00    -0.190 C  
ENDBRANCH   2  12
TORSDOF 3
ENDMDL
MODEL       82
REMARK 921   NORMALIZED FREE ENERGY PREDICTED BY IDOCK:   -3.66 KCAL/MOL
REMARK 922        TOTAL FREE ENERGY PREDICTED BY IDOCK:   -4.56 KCAL/MOL
REMARK 923 INTER-LIGAND FREE ENERGY PREDICTED BY IDOCK:   -4.30 KCAL/MOL
REMARK 924 INTRA-LIGAND FREE ENERGY PREDICTED BY IDOCK:   -0.27 KCAL/MOL
REMARK 927      BINDING AFFINITY PREDICTED BY RF-SCORE:    0.00 PKD
ROOT
HETATM    1  C   UNL     1     -10.435  10.425  69.389  1.00  0.00    -0.261 C  
HETATM    2  C   UNL     1     -10.772   9.993  67.948  1.00  0.00    -0.272 C  
ENDROOT
BRANCH   2   3
HETATM    3  C   UNL     1      -9.926  10.837  66.920  1.00  0.00    -0.200 C  
HETATM    4  H   UNL     1      -8.542  12.251  66.991  1.00  0.00     0.000 HD 
HETATM    5  O   UNL     1      -9.052  11.743  67.611  1.00  0.00    -0.167 OA 
BRANCH   3   6
HETATM    6  C   UNL     1     -10.664  11.590  65.819  1.00  0.00    -0.325 A  
HETATM    7  C   UNL     1     -11.617  12.569  66.154  1.00  0.00    -0.448 A  
HETATM    8  C   UNL     1     -12.455  13.108  65.172  1.00  0.00    -0.539 A  
HETATM    9  C   UNL     1     -12.340  12.699  63.845  1.00  0.00    -0.546 A  
HETATM   10  C   UNL     1     -11.355  11.782  63.488  1.00  0.00    -0.496 A  
HETATM   11  C   UNL     1     -10.517  11.240  64.465  1.00  0.00    -0.396 A  
ENDBRANCH   3   6
ENDBRANCH   2   3
BRANCH   2  12
HETATM   12  N   UNL     1     -10.570   8.510  67.812  1.00  0.00    -0.212 NA 
HETATM   13  C   UNL     1     -10.017   7.882  69.009  1.00  0.00    -0.187 C  
HETATM   14  C   UNL     1      -9.753   8.137  66.651  1.00  0.00    -0.248 C  
ENDBRANCH   2  12
TORSDOF 3
ENDMDL
MODEL       83
REMARK 921   NORMALIZED FREE ENERGY PREDICTED BY IDOCK:   -3.66 KCAL/MOL
REMARK 922        TOTAL FREE ENERGY PREDICTED BY IDOCK:   -4.56 KCAL/MOL
REMARK 923 INTER-LIGAND FREE ENERGY PREDICTED BY IDOCK:   -4.30 KCAL/MOL
REMARK 924 INTRA-LIGAND FREE ENERGY PREDICTED BY IDOCK:   -0.27 KCAL/MOL
REMARK 927      BINDING AFFINITY PREDICTED BY RF-SCORE:    0.00 PKD
ROOT
HETATM    1  C   UNL     1     -10.800  13.043  64.259  1.00  0.00    -0.430 C  
HETATM    2  C   UNL     1     -10.836  12.600  65.735  1.00  0.00    -0.274 C  
ENDROOT
BRANCH   2   3
HETATM    3  C   UNL     1     -11.980  13.370  66.500  1.00  0.00    -0.400 C  
HETATM    4  H   UNL     1     -13.532  14.507  66.032  1.00  0.00     0.000 HD 
HETATM    5  O   UNL     1     -12.843  14.043  65.571  1.00  0.00    -0.615 OA 
BRANCH   3   6
HETATM    6  C   UNL     1     -11.585  14.335  67.612  1.00  0.00    -0.396 A  
HETATM    7  C   UNL     1     -11.864  14.014  68.953  1.00  0.00    -0.390 A  
HETATM    8  C   UNL     1     -11.711  14.975  69.959  1.00  0.00    -0.345 A  
HETATM    9  C   UNL     1     -11.259  16.256  69.648  1.00  0.00    -0.311 A  
HETATM   10  C   UNL     1     -10.914  16.566  68.335  1.00  0.00    -0.348 A  
HETATM   11  C   UNL     1     -11.066  15.610  67.328  1.00  0.00    -0.238 A  
ENDBRANCH   3   6
ENDBRANCH   2   3
BRANCH   2  12
HETATM   12  N   UNL     1     -10.975  11.106  65.804  1.00  0.00    -0.154 NA 
HETATM   13  C   UNL     1     -11.278  10.607  67.144  1.00  0.00    -0.100 C  
HETATM   14  C   UNL     1      -9.811  10.386  65.274  1.00  0.00    -0.297 C  
ENDBRANCH   2  12
TORSDOF 3
ENDMDL
MODEL       84
REMARK 921   NORMALIZED FREE ENERGY PREDICTED BY IDOCK:   -3.66 KCAL/MOL
REMARK 922        TOTAL FREE ENERGY PREDICTED BY IDOCK:   -4.56 KCAL/MOL
REMARK 923 INTER-LIGAND FREE ENERGY PREDICTED BY IDOCK:   -4.32 KCAL/MOL
REMARK 924 INTRA-LIGAND FREE ENERGY PREDICTED BY IDOCK:   -0.25 KCAL/MOL
REMARK 927      BINDING AFFINITY PREDICTED BY RF-SCORE:    0.00 PKD
ROOT
HETATM    1  C   UNL     1     -10.661  18.819  67.376  1.00  0.00    -0.487 C  
HETATM    2  C   UNL     1      -9.869  17.740  68.141  1.00  0.00    -0.326 C  
ENDROOT
BRANCH   2   3
HETATM    3  C   UNL     1     -10.191  16.315  67.549  1.00  0.00    -0.270 C  
HETATM    4  H   UNL     1     -10.979  15.573  65.890  1.00  0.00     0.000 HD 
HETATM    5  O   UNL     1     -10.785  16.432  66.247  1.00  0.00    -0.266 OA 
BRANCH   3   6
HETATM    6  C   UNL     1     -11.013  15.348  68.393  1.00  0.00    -0.284 A  
HETATM    7  C   UNL     1     -11.841  15.840  69.418  1.00  0.00    -0.361 A  
HETATM    8  C   UNL     1     -12.428  14.963  70.338  1.00  0.00    -0.403 A  
HETATM    9  C   UNL     1     -12.217  13.589  70.235  1.00  0.00    -0.417 A  
HETATM   10  C   UNL     1     -11.457  13.084  69.184  1.00  0.00    -0.353 A  
HETATM   11  C   UNL     1     -10.869  13.956  68.264  1.00  0.00    -0.263 A  
ENDBRANCH   3   6
ENDBRANCH   2   3
BRANCH   2  12
HETATM   12  N   UNL     1      -8.406  18.081  68.112  1.00  0.00    -0.261 NA 
HETATM   13  C   UNL     1      -7.565  17.112  68.811  1.00  0.00    -0.259 C  
HETATM   14  C   UNL     1      -8.110  19.427  68.615  1.00  0.00    -0.366 C  
ENDBRANCH   2  12
TORSDOF 3
ENDMDL
MODEL       85
REMARK 921   NORMALIZED FREE ENERGY PREDICTED BY IDOCK:   -3.66 KCAL/MOL
REMARK 922        TOTAL FREE ENERGY PREDICTED BY IDOCK:   -4.56 KCAL/MOL
REMARK 923 INTER-LIGAND FREE ENERGY PREDICTED BY IDOCK:   -4.23 KCAL/MOL
REMARK 924 INTRA-LIGAND FREE ENERGY PREDICTED BY IDOCK:   -0.33 KCAL/MOL
REMARK 927      BINDING AFFINITY PREDICTED BY RF-SCORE:    0.00 PKD
ROOT
HETATM    1  C   UNL     1     -13.488   9.837  71.867  1.00  0.00    -0.485 C  
HETATM    2  C   UNL     1     -12.437   9.459  70.805  1.00  0.00    -0.081 C  
ENDROOT
BRANCH   2   3
HETATM    3  C   UNL     1     -11.667  10.748  70.326  1.00  0.00    -0.352 C  
HETATM    4  H   UNL     1     -11.799  12.706  70.596  1.00  0.00     0.000 HD 
HETATM    5  O   UNL     1     -12.264  11.928  70.884  1.00  0.00    -0.357 OA 
BRANCH   3   6
HETATM    6  C   UNL     1     -11.452  10.951  68.830  1.00  0.00    -0.369 A  
HETATM    7  C   UNL     1     -10.705  10.014  68.094  1.00  0.00    -0.282 A  
HETATM    8  C   UNL     1     -10.315  10.293  66.780  1.00  0.00    -0.288 A  
HETATM    9  C   UNL     1     -10.681  11.494  66.176  1.00  0.00    -0.324 A  
HETATM   10  C   UNL     1     -11.479  12.401  66.869  1.00  0.00    -0.423 A  
HETATM   11  C   UNL     1     -11.870  12.126  68.182  1.00  0.00    -0.362 A  
ENDBRANCH   3   6
ENDBRANCH   2   3
BRANCH   2  12
HETATM   12  N   UNL     1     -11.532   8.394  71.356  1.00  0.00    -0.266 NA 
HETATM   13  C   UNL     1     -10.168   8.856  71.605  1.00  0.00    -0.345 C  
HETATM   14  C   UNL     1     -11.486   7.182  70.530  1.00  0.00    -0.295 C  
ENDBRANCH   2  12
TORSDOF 3
ENDMDL
MODEL       86
REMARK 921   NORMALIZED FREE ENERGY PREDICTED BY IDOCK:   -3.65 KCAL/MOL
REMARK 922        TOTAL FREE ENERGY PREDICTED BY IDOCK:   -4.55 KCAL/MOL
REMARK 923 INTER-LIGAND FREE ENERGY PREDICTED BY IDOCK:   -4.29 KCAL/MOL
REMARK 924 INTRA-LIGAND FREE ENERGY PREDICTED BY IDOCK:   -0.26 KCAL/MOL
REMARK 927      BINDING AFFINITY PREDICTED BY RF-SCORE:    0.00 PKD
ROOT
HETATM    1  C   UNL     1      -9.286   9.912  69.476  1.00  0.00    -0.238 C  
HETATM    2  C   UNL     1     -10.723  10.342  69.830  1.00  0.00    -0.294 C  
ENDROOT
BRANCH   2   3
HETATM    3  C   UNL     1     -11.481  10.809  68.529  1.00  0.00    -0.292 C  
HETATM    4  H   UNL     1     -11.306  10.554  66.573  1.00  0.00     0.000 HD 
HETATM    5  O   UNL     1     -10.849  10.272  67.357  1.00  0.00    -0.279 OA 
BRANCH   3   6
HETATM    6  C   UNL     1     -11.729  12.300  68.330  1.00  0.00    -0.392 A  
HETATM    7  C   UNL     1     -11.703  12.850  67.036  1.00  0.00    -0.447 A  
HETATM    8  C   UNL     1     -11.709  14.237  66.854  1.00  0.00    -0.430 A  
HETATM    9  C   UNL     1     -11.764  15.092  67.954  1.00  0.00    -0.310 A  
HETATM   10  C   UNL     1     -11.861  14.561  69.237  1.00  0.00    -0.361 A  
HETATM   11  C   UNL     1     -11.854  13.176  69.422  1.00  0.00    -0.383 A  
ENDBRANCH   3   6
ENDBRANCH   2   3
BRANCH   2  12
HETATM   12  N   UNL     1     -11.415   9.222  70.553  1.00  0.00    -0.265 NA 
HETATM   13  C   UNL     1     -12.218   9.667  71.690  1.00  0.00    -0.402 C  
HETATM   14  C   UNL     1     -10.504   8.160  70.994  1.00  0.00    -0.201 C  
ENDBRANCH   2  12
TORSDOF 3
ENDMDL
MODEL       87
REMARK 921   NORMALIZED FREE ENERGY PREDICTED BY IDOCK:   -3.64 KCAL/MOL
REMARK 922        TOTAL FREE ENERGY PREDICTED BY IDOCK:   -4.54 KCAL/MOL
REMARK 923 INTER-LIGAND FREE ENERGY PREDICTED BY IDOCK:   -4.30 KCAL/MOL
REMARK 924 INTRA-LIGAND FREE ENERGY PREDICTED BY IDOCK:   -0.24 KCAL/MOL
REMARK 927      BINDING AFFINITY PREDICTED BY RF-SCORE:    0.00 PKD
ROOT
HETATM    1  C   UNL     1     -11.107  10.071  69.929  1.00  0.00    -0.336 C  
HETATM    2  C   UNL     1     -11.620   9.180  71.078  1.00  0.00    -0.306 C  
ENDROOT
BRANCH   2   3
HETATM    3  C   UNL     1     -10.405   8.652  71.933  1.00  0.00    -0.335 C  
HETATM    4  H   UNL     1      -8.503   8.192  71.628  1.00  0.00     0.000 HD 
HETATM    5  O   UNL     1      -9.235   8.510  71.112  1.00  0.00    -0.164 OA 
BRANCH   3   6
HETATM    6  C   UNL     1     -10.597   7.386  72.760  1.00  0.00    -0.345 A  
HETATM    7  C   UNL     1      -9.766   7.139  73.869  1.00  0.00    -0.334 A  
HETATM    8  C   UNL     1      -9.781   5.891  74.501  1.00  0.00    -0.241 A  
HETATM    9  C   UNL     1     -10.635   4.884  74.055  1.00  0.00    -0.350 A  
HETATM   10  C   UNL     1     -11.512   5.138  73.004  1.00  0.00    -0.349 A  
HETATM   11  C   UNL     1     -11.500   6.382  72.369  1.00  0.00    -0.320 A  
ENDBRANCH   3   6
ENDBRANCH   2   3
BRANCH   2  12
HETATM   12  N   UNL     1     -12.632   9.941  71.887  1.00  0.00    -0.392 NA 
HETATM   13  C   UNL     1     -13.884   9.216  72.089  1.00  0.00    -0.446 C  
HETATM   14  C   UNL     1     -12.928  11.273  71.348  1.00  0.00    -0.379 C  
ENDBRANCH   2  12
TORSDOF 3
ENDMDL
MODEL       88
REMARK 921   NORMALIZED FREE ENERGY PREDICTED BY IDOCK:   -3.64 KCAL/MOL
REMARK 922        TOTAL FREE ENERGY PREDICTED BY IDOCK:   -4.53 KCAL/MOL
REMARK 923 INTER-LIGAND FREE ENERGY PREDICTED BY IDOCK:   -4.24 KCAL/MOL
REMARK 924 INTRA-LIGAND FREE ENERGY PREDICTED BY IDOCK:   -0.30 KCAL/MOL
REMARK 927      BINDING AFFINITY PREDICTED BY RF-SCORE:    0.00 PKD
ROOT
HETATM    1  C   UNL     1     -10.881   6.295  68.093  1.00  0.00    -0.401 C  
HETATM    2  C   UNL     1     -10.263   7.437  68.923  1.00  0.00    -0.196 C  
ENDROOT
BRANCH   2   3
HETATM    3  C   UNL     1     -10.912   7.471  70.359  1.00  0.00    -0.251 C  
HETATM    4  H   UNL     1     -12.274   6.442  71.364  1.00  0.00     0.000 HD 
HETATM    5  O   UNL     1     -11.883   6.422  70.498  1.00  0.00    -0.374 OA 
BRANCH   3   6
HETATM    6  C   UNL     1     -11.514   8.782  70.853  1.00  0.00    -0.330 A  
HETATM    7  C   UNL     1     -12.520   8.767  71.835  1.00  0.00    -0.434 A  
HETATM    8  C   UNL     1     -13.232   9.933  72.138  1.00  0.00    -0.511 A  
HETATM    9  C   UNL     1     -12.937  11.129  71.486  1.00  0.00    -0.542 A  
HETATM   10  C   UNL     1     -11.897  11.173  70.562  1.00  0.00    -0.448 A  
HETATM   11  C   UNL     1     -11.184  10.012  70.256  1.00  0.00    -0.379 A  
ENDBRANCH   3   6
ENDBRANCH   2   3
BRANCH   2  12
HETATM   12  N   UNL     1      -8.769   7.284  68.948  1.00  0.00    -0.129 NA 
HETATM   13  C   UNL     1      -8.271   6.239  68.056  1.00  0.00    -0.115 C  
HETATM   14  C   UNL     1      -8.227   7.067  70.294  1.00  0.00    -0.128 C  
ENDBRANCH   2  12
TORSDOF 3
ENDMDL
MODEL       89
REMARK 921   NORMALIZED FREE ENERGY PREDICTED BY IDOCK:   -3.64 KCAL/MOL
REMARK 922        TOTAL FREE ENERGY PREDICTED BY IDOCK:   -4.53 KCAL/MOL
REMARK 923 INTER-LIGAND FREE ENERGY PREDICTED BY IDOCK:   -4.24 KCAL/MOL
REMARK 924 INTRA-LIGAND FREE ENERGY PREDICTED BY IDOCK:   -0.29 KCAL/MOL
REMARK 927      BINDING AFFINITY PREDICTED BY RF-SCORE:    0.00 PKD
ROOT
HETATM    1  C   UNL     1     -10.094  15.292  68.442  1.00  0.00    -0.220 C  
HETATM    2  C   UNL     1     -10.907  15.686  67.193  1.00  0.00    -0.297 C  
ENDROOT
BRANCH   2   3
HETATM    3  C   UNL     1     -10.386  17.061  66.624  1.00  0.00    -0.299 C  
HETATM    4  H   UNL     1     -10.187  17.919  64.850  1.00  0.00     0.000 HD 
HETATM    5  O   UNL     1     -10.500  17.090  65.193  1.00  0.00    -0.667 OA 
BRANCH   3   6
HETATM    6  C   UNL     1      -8.994  17.534  67.029  1.00  0.00    -0.250 A  
HETATM    7  C   UNL     1      -8.847  18.496  68.044  1.00  0.00    -0.317 A  
HETATM    8  C   UNL     1      -7.605  19.099  68.275  1.00  0.00    -0.339 A  
HETATM    9  C   UNL     1      -6.494  18.735  67.517  1.00  0.00    -0.199 A  
HETATM   10  C   UNL     1      -6.610  17.734  66.556  1.00  0.00    -0.256 A  
HETATM   11  C   UNL     1      -7.848  17.131  66.322  1.00  0.00    -0.351 A  
ENDBRANCH   3   6
ENDBRANCH   2   3
BRANCH   2  12
HETATM   12  N   UNL     1     -10.854  14.568  66.190  1.00  0.00    -0.310 NA 
HETATM   13  C   UNL     1     -12.103  13.816  66.086  1.00  0.00    -0.441 C  
HETATM   14  C   UNL     1      -9.746  13.634  66.415  1.00  0.00    -0.292 C  
ENDBRANCH   2  12
TORSDOF 3
ENDMDL
MODEL       90
REMARK 921   NORMALIZED FREE ENERGY PREDICTED BY IDOCK:   -3.60 KCAL/MOL
REMARK 922        TOTAL FREE ENERGY PREDICTED BY IDOCK:   -4.50 KCAL/MOL
REMARK 923 INTER-LIGAND FREE ENERGY PREDICTED BY IDOCK:   -4.28 KCAL/MOL
REMARK 924 INTRA-LIGAND FREE ENERGY PREDICTED BY IDOCK:   -0.22 KCAL/MOL
REMARK 927      BINDING AFFINITY PREDICTED BY RF-SCORE:    0.00 PKD
ROOT
HETATM    1  C   UNL     1      -8.521  11.894  66.929  1.00  0.00    -0.174 C  
HETATM    2  C   UNL     1      -9.777  11.068  67.267  1.00  0.00    -0.166 C  
ENDROOT
BRANCH   2   3
HETATM    3  C   UNL     1     -10.962  12.028  67.667  1.00  0.00    -0.238 C  
HETATM    4  H   UNL     1     -12.870  11.854  68.167  1.00  0.00     0.000 HD 
HETATM    5  O   UNL     1     -12.157  11.275  67.925  1.00  0.00    -0.634 OA 
BRANCH   3   6
HETATM    6  C   UNL     1     -11.292  13.196  66.744  1.00  0.00    -0.353 A  
HETATM    7  C   UNL     1     -12.125  12.996  65.629  1.00  0.00    -0.507 A  
HETATM    8  C   UNL     1     -12.260  13.993  64.656  1.00  0.00    -0.460 A  
HETATM    9  C   UNL     1     -11.588  15.206  64.793  1.00  0.00    -0.364 A  
HETATM   10  C   UNL     1     -10.816  15.444  65.926  1.00  0.00    -0.328 A  
HETATM   11  C   UNL     1     -10.678  14.451  66.899  1.00  0.00    -0.292 A  
ENDBRANCH   3   6
ENDBRANCH   2   3
BRANCH   2  12
HETATM   12  N   UNL     1     -10.107  10.164  66.113  1.00  0.00    -0.249 NA 
HETATM   13  C   UNL     1      -9.902   8.746  66.402  1.00  0.00    -0.282 C  
HETATM   14  C   UNL     1      -9.395  10.511  64.878  1.00  0.00    -0.232 C  
ENDBRANCH   2  12
TORSDOF 3
ENDMDL
MODEL       91
REMARK 921   NORMALIZED FREE ENERGY PREDICTED BY IDOCK:   -3.60 KCAL/MOL
REMARK 922        TOTAL FREE ENERGY PREDICTED BY IDOCK:   -4.49 KCAL/MOL
REMARK 923 INTER-LIGAND FREE ENERGY PREDICTED BY IDOCK:   -4.31 KCAL/MOL
REMARK 924 INTRA-LIGAND FREE ENERGY PREDICTED BY IDOCK:   -0.18 KCAL/MOL
REMARK 927      BINDING AFFINITY PREDICTED BY RF-SCORE:    0.00 PKD
ROOT
HETATM    1  C   UNL     1     -10.722   8.054  72.589  1.00  0.00    -0.426 C  
HETATM    2  C   UNL     1     -12.073   8.631  72.122  1.00  0.00    -0.381 C  
ENDROOT
BRANCH   2   3
HETATM    3  C   UNL     1     -11.873  10.095  71.572  1.00  0.00    -0.272 C  
HETATM    4  H   UNL     1     -12.963  11.737  71.379  1.00  0.00     0.000 HD 
HETATM    5  O   UNL     1     -13.084  10.855  71.709  1.00  0.00    -0.464 OA 
BRANCH   3   6
HETATM    6  C   UNL     1     -11.324  10.272  70.161  1.00  0.00    -0.388 A  
HETATM    7  C   UNL     1     -10.031   9.815  69.848  1.00  0.00    -0.282 A  
HETATM    8  C   UNL     1      -9.432  10.162  68.632  1.00  0.00    -0.164 A  
HETATM    9  C   UNL     1     -10.118  10.945  67.706  1.00  0.00    -0.203 A  
HETATM   10  C   UNL     1     -11.424  11.346  67.974  1.00  0.00    -0.377 A  
HETATM   11  C   UNL     1     -12.026  11.003  69.187  1.00  0.00    -0.394 A  
ENDBRANCH   3   6
ENDBRANCH   2   3
BRANCH   2  12
HETATM   12  N   UNL     1     -12.695   7.699  71.121  1.00  0.00    -0.255 NA 
HETATM   13  C   UNL     1     -14.040   7.260  71.485  1.00  0.00    -0.378 C  
HETATM   14  C   UNL     1     -11.868   6.523  70.825  1.00  0.00    -0.332 C  
ENDBRANCH   2  12
TORSDOF 3
ENDMDL
MODEL       92
REMARK 921   NORMALIZED FREE ENERGY PREDICTED BY IDOCK:   -3.60 KCAL/MOL
REMARK 922        TOTAL FREE ENERGY PREDICTED BY IDOCK:   -4.49 KCAL/MOL
REMARK 923 INTER-LIGAND FREE ENERGY PREDICTED BY IDOCK:   -4.16 KCAL/MOL
REMARK 924 INTRA-LIGAND FREE ENERGY PREDICTED BY IDOCK:   -0.32 KCAL/MOL
REMARK 927      BINDING AFFINITY PREDICTED BY RF-SCORE:    0.00 PKD
ROOT
HETATM    1  C   UNL     1     -11.533   6.454  69.616  1.00  0.00    -0.446 C  
HETATM    2  C   UNL     1     -10.599   7.584  70.091  1.00  0.00    -0.235 C  
ENDROOT
BRANCH   2   3
HETATM    3  C   UNL     1     -11.245   8.340  71.314  1.00  0.00    -0.259 C  
HETATM    4  H   UNL     1     -12.633   7.976  72.680  1.00  0.00     0.000 HD 
HETATM    5  O   UNL     1     -12.244   7.520  71.942  1.00  0.00    -0.292 OA 
BRANCH   3   6
HETATM    6  C   UNL     1     -11.810   9.738  71.087  1.00  0.00    -0.466 A  
HETATM    7  C   UNL     1     -11.244  10.574  70.109  1.00  0.00    -0.389 A  
HETATM    8  C   UNL     1     -11.601  11.925  70.037  1.00  0.00    -0.301 A  
HETATM    9  C   UNL     1     -12.540  12.453  70.921  1.00  0.00    -0.337 A  
HETATM   10  C   UNL     1     -13.160  11.621  71.849  1.00  0.00    -0.490 A  
HETATM   11  C   UNL     1     -12.805  10.272  71.924  1.00  0.00    -0.528 A  
ENDBRANCH   3   6
ENDBRANCH   2   3
BRANCH   2  12
HETATM   12  N   UNL     1      -9.241   7.016  70.392  1.00  0.00    -0.156 NA 
HETATM   13  C   UNL     1      -9.284   5.708  71.042  1.00  0.00    -0.152 C  
HETATM   14  C   UNL     1      -8.392   7.917  71.180  1.00  0.00    -0.112 C  
ENDBRANCH   2  12
TORSDOF 3
ENDMDL
MODEL       93
REMARK 921   NORMALIZED FREE ENERGY PREDICTED BY IDOCK:   -3.59 KCAL/MOL
REMARK 922        TOTAL FREE ENERGY PREDICTED BY IDOCK:   -4.48 KCAL/MOL
REMARK 923 INTER-LIGAND FREE ENERGY PREDICTED BY IDOCK:   -4.25 KCAL/MOL
REMARK 924 INTRA-LIGAND FREE ENERGY PREDICTED BY IDOCK:   -0.23 KCAL/MOL
REMARK 927      BINDING AFFINITY PREDICTED BY RF-SCORE:    0.00 PKD
ROOT
HETATM    1  C   UNL     1     -10.737  12.807  68.211  1.00  0.00    -0.257 C  
HETATM    2  C   UNL     1     -10.925  13.948  67.192  1.00  0.00    -0.291 C  
ENDROOT
BRANCH   2   3
HETATM    3  C   UNL     1      -9.624  14.837  67.132  1.00  0.00    -0.227 C  
HETATM    4  H   UNL     1      -7.881  14.929  68.069  1.00  0.00     0.000 HD 
HETATM    5  O   UNL     1      -8.665  14.393  68.105  1.00  0.00    -0.160 OA 
BRANCH   3   6
HETATM    6  C   UNL     1      -9.775  16.351  67.227  1.00  0.00    -0.239 A  
HETATM    7  C   UNL     1      -9.852  16.971  68.487  1.00  0.00    -0.290 A  
HETATM    8  C   UNL     1     -10.209  18.320  68.592  1.00  0.00    -0.377 A  
HETATM    9  C   UNL     1     -10.469  19.072  67.448  1.00  0.00    -0.539 A  
HETATM   10  C   UNL     1     -10.328  18.489  66.192  1.00  0.00    -0.457 A  
HETATM   11  C   UNL     1      -9.973  17.142  66.082  1.00  0.00    -0.296 A  
ENDBRANCH   3   6
ENDBRANCH   2   3
BRANCH   2  12
HETATM   12  N   UNL     1     -11.312  13.369  65.860  1.00  0.00    -0.305 NA 
HETATM   13  C   UNL     1     -12.583  13.876  65.349  1.00  0.00    -0.507 C  
HETATM   14  C   UNL     1     -11.338  11.902  65.847  1.00  0.00    -0.308 C  
ENDBRANCH   2  12
TORSDOF 3
ENDMDL
MODEL       94
REMARK 921   NORMALIZED FREE ENERGY PREDICTED BY IDOCK:   -3.59 KCAL/MOL
REMARK 922        TOTAL FREE ENERGY PREDICTED BY IDOCK:   -4.48 KCAL/MOL
REMARK 923 INTER-LIGAND FREE ENERGY PREDICTED BY IDOCK:   -4.20 KCAL/MOL
REMARK 924 INTRA-LIGAND FREE ENERGY PREDICTED BY IDOCK:   -0.28 KCAL/MOL
REMARK 927      BINDING AFFINITY PREDICTED BY RF-SCORE:    0.00 PKD
ROOT
HETATM    1  C   UNL     1     -10.635  18.994  66.054  1.00  0.00    -0.499 C  
HETATM    2  C   UNL     1      -9.812  18.011  66.910  1.00  0.00    -0.330 C  
ENDROOT
BRANCH   2   3
HETATM    3  C   UNL     1      -9.694  16.623  66.172  1.00  0.00    -0.303 C  
HETATM    4  H   UNL     1     -10.431  15.777  64.540  1.00  0.00     0.000 HD 
HETATM    5  O   UNL     1     -10.503  16.613  64.985  1.00  0.00    -0.664 OA 
BRANCH   3   6
HETATM    6  C   UNL     1      -9.955  15.352  66.971  1.00  0.00    -0.239 A  
HETATM    7  C   UNL     1      -9.735  14.094  66.381  1.00  0.00    -0.313 A  
HETATM    8  C   UNL     1     -10.174  12.926  67.016  1.00  0.00    -0.243 A  
HETATM    9  C   UNL     1     -10.815  12.994  68.251  1.00  0.00    -0.267 A  
HETATM   10  C   UNL     1     -10.976  14.227  68.879  1.00  0.00    -0.275 A  
HETATM   11  C   UNL     1     -10.540  15.394  68.248  1.00  0.00    -0.253 A  
ENDBRANCH   3   6
ENDBRANCH   2   3
BRANCH   2  12
HETATM   12  N   UNL     1      -8.482  18.627  67.238  1.00  0.00    -0.263 NA 
HETATM   13  C   UNL     1      -7.343  17.869  66.725  1.00  0.00    -0.202 C  
HETATM   14  C   UNL     1      -8.290  18.873  68.672  1.00  0.00    -0.349 C  
ENDBRANCH   2  12
TORSDOF 3
ENDMDL
MODEL       95
REMARK 921   NORMALIZED FREE ENERGY PREDICTED BY IDOCK:   -3.59 KCAL/MOL
REMARK 922        TOTAL FREE ENERGY PREDICTED BY IDOCK:   -4.48 KCAL/MOL
REMARK 923 INTER-LIGAND FREE ENERGY PREDICTED BY IDOCK:   -4.31 KCAL/MOL
REMARK 924 INTRA-LIGAND FREE ENERGY PREDICTED BY IDOCK:   -0.17 KCAL/MOL
REMARK 927      BINDING AFFINITY PREDICTED BY RF-SCORE:    0.00 PKD
ROOT
HETATM    1  C   UNL     1     -10.636  13.045  64.552  1.00  0.00    -0.413 C  
HETATM    2  C   UNL     1     -10.295  13.147  66.052  1.00  0.00    -0.287 C  
ENDROOT
BRANCH   2   3
HETATM    3  C   UNL     1     -11.315  14.109  66.772  1.00  0.00    -0.343 C  
HETATM    4  H   UNL     1     -13.160  14.763  66.468  1.00  0.00     0.000 HD 
HETATM    5  O   UNL     1     -12.545  14.184  66.034  1.00  0.00    -0.478 OA 
BRANCH   3   6
HETATM    6  C   UNL     1     -10.856  15.519  67.128  1.00  0.00    -0.316 A  
HETATM    7  C   UNL     1     -10.984  15.987  68.448  1.00  0.00    -0.331 A  
HETATM    8  C   UNL     1     -10.775  17.339  68.745  1.00  0.00    -0.247 A  
HETATM    9  C   UNL     1     -10.414  18.233  67.739  1.00  0.00    -0.430 A  
HETATM   10  C   UNL     1     -10.216  17.770  66.441  1.00  0.00    -0.365 A  
HETATM   11  C   UNL     1     -10.424  16.422  66.141  1.00  0.00    -0.321 A  
ENDBRANCH   3   6
ENDBRANCH   2   3
BRANCH   2  12
HETATM   12  N   UNL     1     -10.253  11.769  66.649  1.00  0.00    -0.206 NA 
HETATM   13  C   UNL     1     -10.130  10.704  65.657  1.00  0.00    -0.272 C  
HETATM   14  C   UNL     1     -11.390  11.479  67.530  1.00  0.00    -0.299 C  
ENDBRANCH   2  12
TORSDOF 3
ENDMDL
MODEL       96
REMARK 921   NORMALIZED FREE ENERGY PREDICTED BY IDOCK:   -3.58 KCAL/MOL
REMARK 922        TOTAL FREE ENERGY PREDICTED BY IDOCK:   -4.47 KCAL/MOL
REMARK 923 INTER-LIGAND FREE ENERGY PREDICTED BY IDOCK:   -4.14 KCAL/MOL
REMARK 924 INTRA-LIGAND FREE ENERGY PREDICTED BY IDOCK:   -0.32 KCAL/MOL
REMARK 927      BINDING AFFINITY PREDICTED BY RF-SCORE:    0.00 PKD
ROOT
HETATM    1  C   UNL     1      -8.924   9.814  67.944  1.00  0.00    -0.119 C  
HETATM    2  C   UNL     1      -9.007   8.799  69.101  1.00  0.00    -0.137 C  
ENDROOT
BRANCH   2   3
HETATM    3  C   UNL     1      -9.395   9.538  70.439  1.00  0.00    -0.257 C  
HETATM    4  H   UNL     1      -8.763   9.576  72.315  1.00  0.00     0.000 HD 
HETATM    5  O   UNL     1      -8.530   9.130  71.509  1.00  0.00    -0.333 OA 
BRANCH   3   6
HETATM    6  C   UNL     1     -10.844   9.474  70.910  1.00  0.00    -0.407 A  
HETATM    7  C   UNL     1     -11.755  10.469  70.514  1.00  0.00    -0.443 A  
HETATM    8  C   UNL     1     -13.020  10.549  71.108  1.00  0.00    -0.506 A  
HETATM    9  C   UNL     1     -13.400   9.629  72.083  1.00  0.00    -0.545 A  
HETATM   10  C   UNL     1     -12.534   8.597  72.434  1.00  0.00    -0.428 A  
HETATM   11  C   UNL     1     -11.270   8.515  71.844  1.00  0.00    -0.397 A  
ENDBRANCH   3   6
ENDBRANCH   2   3
BRANCH   2  12
HETATM   12  N   UNL     1      -9.959   7.697  68.732  1.00  0.00    -0.169 NA 
HETATM   13  C   UNL     1      -9.383   6.360  68.853  1.00  0.00    -0.130 C  
HETATM   14  C   UNL     1     -10.541   7.852  67.394  1.00  0.00    -0.272 C  
ENDBRANCH   2  12
TORSDOF 3
ENDMDL
MODEL       97
REMARK 921   NORMALIZED FREE ENERGY PREDICTED BY IDOCK:   -3.57 KCAL/MOL
REMARK 922        TOTAL FREE ENERGY PREDICTED BY IDOCK:   -4.45 KCAL/MOL
REMARK 923 INTER-LIGAND FREE ENERGY PREDICTED BY IDOCK:   -4.13 KCAL/MOL
REMARK 924 INTRA-LIGAND FREE ENERGY PREDICTED BY IDOCK:   -0.32 KCAL/MOL
REMARK 927      BINDING AFFINITY PREDICTED BY RF-SCORE:    0.00 PKD
ROOT
HETATM    1  C   UNL     1     -10.575   7.837  73.058  1.00  0.00    -0.441 C  
HETATM    2  C   UNL     1     -11.126   8.433  71.748  1.00  0.00    -0.290 C  
ENDROOT
BRANCH   2   3
HETATM    3  C   UNL     1     -11.548   7.275  70.765  1.00  0.00    -0.302 C  
HETATM    4  H   UNL     1     -11.654   5.298  70.807  1.00  0.00     0.000 HD 
HETATM    5  O   UNL     1     -11.399   5.996  71.400  1.00  0.00    -0.285 OA 
BRANCH   3   6
HETATM    6  C   UNL     1     -10.909   7.229  69.381  1.00  0.00    -0.206 A  
HETATM    7  C   UNL     1     -10.313   8.383  68.844  1.00  0.00    -0.231 A  
HETATM    8  C   UNL     1      -9.921   8.420  67.501  1.00  0.00    -0.259 A  
HETATM    9  C   UNL     1     -10.097   7.304  66.685  1.00  0.00    -0.238 A  
HETATM   10  C   UNL     1     -10.622   6.131  67.222  1.00  0.00    -0.362 A  
HETATM   11  C   UNL     1     -11.015   6.091  68.562  1.00  0.00    -0.350 A  
ENDBRANCH   3   6
ENDBRANCH   2   3
BRANCH   2  12
HETATM   12  N   UNL     1     -12.245   9.384  72.064  1.00  0.00    -0.352 NA 
HETATM   13  C   UNL     1     -13.565   8.757  72.063  1.00  0.00    -0.427 C  
HETATM   14  C   UNL     1     -12.273  10.564  71.192  1.00  0.00    -0.391 C  
ENDBRANCH   2  12
TORSDOF 3
ENDMDL
MODEL       98
REMARK 921   NORMALIZED FREE ENERGY PREDICTED BY IDOCK:   -3.56 KCAL/MOL
REMARK 922        TOTAL FREE ENERGY PREDICTED BY IDOCK:   -4.45 KCAL/MOL
REMARK 923 INTER-LIGAND FREE ENERGY PREDICTED BY IDOCK:   -4.17 KCAL/MOL
REMARK 924 INTRA-LIGAND FREE ENERGY PREDICTED BY IDOCK:   -0.28 KCAL/MOL
REMARK 927      BINDING AFFINITY PREDICTED BY RF-SCORE:    0.00 PKD
ROOT
HETATM    1  C   UNL     1     -10.522   6.967  73.547  1.00  0.00    -0.413 C  
HETATM    2  C   UNL     1     -10.747   7.153  72.033  1.00  0.00    -0.214 C  
ENDROOT
BRANCH   2   3
HETATM    3  C   UNL     1      -9.823   8.309  71.490  1.00  0.00    -0.189 C  
HETATM    4  H   UNL     1      -8.360   9.450  72.184  1.00  0.00     0.000 HD 
HETATM    5  O   UNL     1      -8.918   8.753  72.512  1.00  0.00    -0.386 OA 
BRANCH   3   6
HETATM    6  C   UNL     1     -10.482   9.521  70.840  1.00  0.00    -0.382 A  
HETATM    7  C   UNL     1     -11.727   9.979  71.309  1.00  0.00    -0.452 A  
HETATM    8  C   UNL     1     -12.444  10.942  70.590  1.00  0.00    -0.460 A  
HETATM    9  C   UNL     1     -11.923  11.476  69.413  1.00  0.00    -0.392 A  
HETATM   10  C   UNL     1     -10.662  11.082  68.975  1.00  0.00    -0.258 A  
HETATM   11  C   UNL     1      -9.943  10.120  69.688  1.00  0.00    -0.262 A  
ENDBRANCH   3   6
ENDBRANCH   2   3
BRANCH   2  12
HETATM   12  N   UNL     1     -10.536   5.842  71.332  1.00  0.00    -0.244 NA 
HETATM   13  C   UNL     1      -9.178   5.320  71.462  1.00  0.00    -0.146 C  
HETATM   14  C   UNL     1     -10.906   5.873  69.912  1.00  0.00    -0.369 C  
ENDBRANCH   2  12
TORSDOF 3
ENDMDL
MODEL       99
REMARK 921   NORMALIZED FREE ENERGY PREDICTED BY IDOCK:   -3.56 KCAL/MOL
REMARK 922        TOTAL FREE ENERGY PREDICTED BY IDOCK:   -4.44 KCAL/MOL
REMARK 923 INTER-LIGAND FREE ENERGY PREDICTED BY IDOCK:   -4.24 KCAL/MOL
REMARK 924 INTRA-LIGAND FREE ENERGY PREDICTED BY IDOCK:   -0.21 KCAL/MOL
REMARK 927      BINDING AFFINITY PREDICTED BY RF-SCORE:    0.00 PKD
ROOT
HETATM    1  C   UNL     1     -10.694  16.052  65.258  1.00  0.00    -0.417 C  
HETATM    2  C   UNL     1     -10.714  15.643  66.744  1.00  0.00    -0.300 C  
ENDROOT
BRANCH   2   3
HETATM    3  C   UNL     1     -10.609  14.075  66.872  1.00  0.00    -0.280 C  
HETATM    4  H   UNL     1     -10.946  12.496  65.724  1.00  0.00     0.000 HD 
HETATM    5  O   UNL     1     -11.009  13.441  65.647  1.00  0.00    -0.280 OA 
BRANCH   3   6
HETATM    6  C   UNL     1     -11.309  13.394  68.043  1.00  0.00    -0.320 A  
HETATM    7  C   UNL     1     -11.757  14.160  69.134  1.00  0.00    -0.368 A  
HETATM    8  C   UNL     1     -12.199  13.534  70.306  1.00  0.00    -0.417 A  
HETATM    9  C   UNL     1     -12.221  12.144  70.397  1.00  0.00    -0.378 A  
HETATM   10  C   UNL     1     -11.846  11.374  69.299  1.00  0.00    -0.417 A  
HETATM   11  C   UNL     1     -11.404  11.994  68.128  1.00  0.00    -0.349 A  
ENDBRANCH   3   6
ENDBRANCH   2   3
BRANCH   2  12
HETATM   12  N   UNL     1      -9.627  16.375  67.478  1.00  0.00    -0.226 NA 
HETATM   13  C   UNL     1      -9.665  17.823  67.290  1.00  0.00    -0.285 C  
HETATM   14  C   UNL     1      -8.280  15.884  67.168  1.00  0.00    -0.203 C  
ENDBRANCH   2  12
TORSDOF 3
ENDMDL
MODEL      100
REMARK 921   NORMALIZED FREE ENERGY PREDICTED BY IDOCK:   -3.55 KCAL/MOL
REMARK 922        TOTAL FREE ENERGY PREDICTED BY IDOCK:   -4.44 KCAL/MOL
REMARK 923 INTER-LIGAND FREE ENERGY PREDICTED BY IDOCK:   -4.26 KCAL/MOL
REMARK 924 INTRA-LIGAND FREE ENERGY PREDICTED BY IDOCK:   -0.18 KCAL/MOL
REMARK 927      BINDING AFFINITY PREDICTED BY RF-SCORE:    0.00 PKD
ROOT
HETATM    1  C   UNL     1      -9.338  11.579  68.530  1.00  0.00    -0.171 C  
HETATM    2  C   UNL     1     -10.516  10.888  67.816  1.00  0.00    -0.203 C  
ENDROOT
BRANCH   2   3
HETATM    3  C   UNL     1     -11.777  11.834  67.818  1.00  0.00    -0.267 C  
HETATM    4  H   UNL     1     -12.842  12.841  66.486  1.00  0.00     0.000 HD 
HETATM    5  O   UNL     1     -12.081  12.271  66.485  1.00  0.00    -0.616 OA 
BRANCH   3   6
HETATM    6  C   UNL     1     -11.781  13.036  68.756  1.00  0.00    -0.363 A  
HETATM    7  C   UNL     1     -12.149  12.874  70.104  1.00  0.00    -0.373 A  
HETATM    8  C   UNL     1     -12.369  13.991  70.918  1.00  0.00    -0.443 A  
HETATM    9  C   UNL     1     -12.204  15.278  70.409  1.00  0.00    -0.404 A  
HETATM   10  C   UNL     1     -11.773  15.451  69.097  1.00  0.00    -0.364 A  
HETATM   11  C   UNL     1     -11.553  14.339  68.281  1.00  0.00    -0.358 A  
ENDBRANCH   3   6
ENDBRANCH   2   3
BRANCH   2  12
HETATM   12  N   UNL     1     -10.089  10.468  66.439  1.00  0.00    -0.221 NA 
HETATM   13  C   UNL     1      -9.883   9.028  66.302  1.00  0.00    -0.291 C  
HETATM   14  C   UNL     1      -8.895  11.173  65.958  1.00  0.00    -0.189 C  
ENDBRANCH   2  12
TORSDOF 3
ENDMDL
MODEL      101
REMARK 921   NORMALIZED FREE ENERGY PREDICTED BY IDOCK:   -3.54 KCAL/MOL
REMARK 922        TOTAL FREE ENERGY PREDICTED BY IDOCK:   -4.42 KCAL/MOL
REMARK 923 INTER-LIGAND FREE ENERGY PREDICTED BY IDOCK:   -4.10 KCAL/MOL
REMARK 924 INTRA-LIGAND FREE ENERGY PREDICTED BY IDOCK:   -0.33 KCAL/MOL
REMARK 927      BINDING AFFINITY PREDICTED BY RF-SCORE:    0.00 PKD
ROOT
HETATM    1  C   UNL     1     -12.146   6.318  72.260  1.00  0.00    -0.255 C  
HETATM    2  C   UNL     1     -11.849   7.822  72.096  1.00  0.00    -0.324 C  
ENDROOT
BRANCH   2   3
HETATM    3  C   UNL     1     -10.541   8.023  71.240  1.00  0.00    -0.209 C  
HETATM    4  H   UNL     1      -9.038   9.311  71.160  1.00  0.00     0.000 HD 
HETATM    5  O   UNL     1      -9.827   9.190  71.676  1.00  0.00    -0.305 OA 
BRANCH   3   6
HETATM    6  C   UNL     1     -10.664   8.046  69.721  1.00  0.00    -0.231 A  
HETATM    7  C   UNL     1     -10.728   6.838  69.002  1.00  0.00    -0.280 A  
HETATM    8  C   UNL     1     -10.620   6.836  67.607  1.00  0.00    -0.323 A  
HETATM    9  C   UNL     1     -10.471   8.034  66.910  1.00  0.00    -0.387 A  
HETATM   10  C   UNL     1     -10.477   9.242  67.603  1.00  0.00    -0.325 A  
HETATM   11  C   UNL     1     -10.584   9.248  68.996  1.00  0.00    -0.225 A  
ENDBRANCH   3   6
ENDBRANCH   2   3
BRANCH   2  12
HETATM   12  N   UNL     1     -13.052   8.508  71.515  1.00  0.00    -0.320 NA 
HETATM   13  C   UNL     1     -13.283   9.845  72.057  1.00  0.00    -0.456 C  
HETATM   14  C   UNL     1     -14.286   7.722  71.632  1.00  0.00    -0.457 C  
ENDBRANCH   2  12
TORSDOF 3
ENDMDL
MODEL      102
REMARK 921   NORMALIZED FREE ENERGY PREDICTED BY IDOCK:   -3.54 KCAL/MOL
REMARK 922        TOTAL FREE ENERGY PREDICTED BY IDOCK:   -4.42 KCAL/MOL
REMARK 923 INTER-LIGAND FREE ENERGY PREDICTED BY IDOCK:   -4.10 KCAL/MOL
REMARK 924 INTRA-LIGAND FREE ENERGY PREDICTED BY IDOCK:   -0.31 KCAL/MOL
REMARK 927      BINDING AFFINITY PREDICTED BY RF-SCORE:    0.00 PKD
ROOT
HETATM    1  C   UNL     1     -10.436   8.838  68.798  1.00  0.00    -0.214 C  
HETATM    2  C   UNL     1      -9.706   7.794  69.664  1.00  0.00    -0.172 C  
ENDROOT
BRANCH   2   3
HETATM    3  C   UNL     1     -10.268   7.827  71.137  1.00  0.00    -0.195 C  
HETATM    4  H   UNL     1     -10.271   6.637  72.720  1.00  0.00     0.000 HD 
HETATM    5  O   UNL     1      -9.933   6.616  71.832  1.00  0.00    -0.178 OA 
BRANCH   3   6
HETATM    6  C   UNL     1     -11.747   8.133  71.342  1.00  0.00    -0.321 A  
HETATM    7  C   UNL     1     -12.145   9.402  71.801  1.00  0.00    -0.454 A  
HETATM    8  C   UNL     1     -13.467   9.629  72.202  1.00  0.00    -0.516 A  
HETATM    9  C   UNL     1     -14.410   8.606  72.130  1.00  0.00    -0.518 A  
HETATM   10  C   UNL     1     -14.047   7.365  71.613  1.00  0.00    -0.552 A  
HETATM   11  C   UNL     1     -12.728   7.135  71.212  1.00  0.00    -0.412 A  
ENDBRANCH   3   6
ENDBRANCH   2   3
BRANCH   2  12
HETATM   12  N   UNL     1      -9.815   6.443  69.016  1.00  0.00    -0.137 NA 
HETATM   13  C   UNL     1      -8.621   6.054  68.269  1.00  0.00    -0.115 C  
HETATM   14  C   UNL     1     -10.991   6.304  68.150  1.00  0.00    -0.323 C  
ENDBRANCH   2  12
TORSDOF 3
ENDMDL
MODEL      103
REMARK 921   NORMALIZED FREE ENERGY PREDICTED BY IDOCK:   -3.53 KCAL/MOL
REMARK 922        TOTAL FREE ENERGY PREDICTED BY IDOCK:   -4.41 KCAL/MOL
REMARK 923 INTER-LIGAND FREE ENERGY PREDICTED BY IDOCK:   -4.13 KCAL/MOL
REMARK 924 INTRA-LIGAND FREE ENERGY PREDICTED BY IDOCK:   -0.29 KCAL/MOL
REMARK 927      BINDING AFFINITY PREDICTED BY RF-SCORE:    0.00 PKD
ROOT
HETATM    1  C   UNL     1      -8.641   8.029  73.873  1.00  0.00    -0.324 C  
HETATM    2  C   UNL     1      -9.921   7.182  73.728  1.00  0.00    -0.331 C  
ENDROOT
BRANCH   2   3
HETATM    3  C   UNL     1     -10.407   7.194  72.229  1.00  0.00    -0.201 C  
HETATM    4  H   UNL     1      -9.719   7.824  70.482  1.00  0.00     0.000 HD 
HETATM    5  O   UNL     1      -9.426   7.817  71.386  1.00  0.00    -0.147 OA 
BRANCH   3   6
HETATM    6  C   UNL     1     -11.782   7.775  71.916  1.00  0.00    -0.335 A  
HETATM    7  C   UNL     1     -11.971   9.169  71.912  1.00  0.00    -0.443 A  
HETATM    8  C   UNL     1     -13.260   9.709  71.846  1.00  0.00    -0.538 A  
HETATM    9  C   UNL     1     -14.371   8.873  71.760  1.00  0.00    -0.351 A  
HETATM   10  C   UNL     1     -14.194   7.493  71.693  1.00  0.00    -0.592 A  
HETATM   11  C   UNL     1     -12.909   6.950  71.760  1.00  0.00    -0.349 A  
ENDBRANCH   3   6
ENDBRANCH   2   3
BRANCH   2  12
HETATM   12  N   UNL     1      -9.669   5.801  74.262  1.00  0.00    -0.174 NA 
HETATM   13  C   UNL     1      -8.269   5.390  74.187  1.00  0.00    -0.109 C  
HETATM   14  C   UNL     1     -10.507   4.772  73.637  1.00  0.00    -0.233 C  
ENDBRANCH   2  12
TORSDOF 3
ENDMDL
MODEL      104
REMARK 921   NORMALIZED FREE ENERGY PREDICTED BY IDOCK:   -3.53 KCAL/MOL
REMARK 922        TOTAL FREE ENERGY PREDICTED BY IDOCK:   -4.41 KCAL/MOL
REMARK 923 INTER-LIGAND FREE ENERGY PREDICTED BY IDOCK:   -4.23 KCAL/MOL
REMARK 924 INTRA-LIGAND FREE ENERGY PREDICTED BY IDOCK:   -0.18 KCAL/MOL
REMARK 927      BINDING AFFINITY PREDICTED BY RF-SCORE:    0.00 PKD
ROOT
HETATM    1  C   UNL     1     -12.860   9.957  71.871  1.00  0.00    -0.524 C  
HETATM    2  C   UNL     1     -11.774   8.863  71.872  1.00  0.00    -0.369 C  
ENDROOT
BRANCH   2   3
HETATM    3  C   UNL     1     -12.311   7.570  71.149  1.00  0.00    -0.291 C  
HETATM    4  H   UNL     1     -14.029   6.594  71.000  1.00  0.00     0.000 HD 
HETATM    5  O   UNL     1     -13.704   7.374  71.436  1.00  0.00    -0.383 OA 
BRANCH   3   6
HETATM    6  C   UNL     1     -11.564   6.257  71.359  1.00  0.00    -0.338 A  
HETATM    7  C   UNL     1     -11.507   5.679  72.639  1.00  0.00    -0.339 A  
HETATM    8  C   UNL     1     -10.649   4.602  72.893  1.00  0.00    -0.277 A  
HETATM    9  C   UNL     1      -9.858   4.075  71.874  1.00  0.00    -0.247 A  
HETATM   10  C   UNL     1      -9.957   4.594  70.586  1.00  0.00    -0.293 A  
HETATM   11  C   UNL     1     -10.811   5.669  70.328  1.00  0.00    -0.336 A  
ENDBRANCH   3   6
ENDBRANCH   2   3
BRANCH   2  12
HETATM   12  N   UNL     1     -10.515   9.408  71.260  1.00  0.00    -0.331 NA 
HETATM   13  C   UNL     1     -10.523   9.400  69.799  1.00  0.00    -0.226 C  
HETATM   14  C   UNL     1      -9.297   8.744  71.738  1.00  0.00    -0.280 C  
ENDBRANCH   2  12
TORSDOF 3
ENDMDL
MODEL      105
REMARK 921   NORMALIZED FREE ENERGY PREDICTED BY IDOCK:   -3.53 KCAL/MOL
REMARK 922        TOTAL FREE ENERGY PREDICTED BY IDOCK:   -4.41 KCAL/MOL
REMARK 923 INTER-LIGAND FREE ENERGY PREDICTED BY IDOCK:   -4.12 KCAL/MOL
REMARK 924 INTRA-LIGAND FREE ENERGY PREDICTED BY IDOCK:   -0.28 KCAL/MOL
REMARK 927      BINDING AFFINITY PREDICTED BY RF-SCORE:    0.00 PKD
ROOT
HETATM    1  C   UNL     1      -9.908  12.605  67.279  1.00  0.00    -0.206 C  
HETATM    2  C   UNL     1      -9.785  11.234  67.973  1.00  0.00    -0.179 C  
ENDROOT
BRANCH   2   3
HETATM    3  C   UNL     1     -11.208  10.731  68.428  1.00  0.00    -0.284 C  
HETATM    4  H   UNL     1     -13.063  11.425  68.431  1.00  0.00     0.000 HD 
HETATM    5  O   UNL     1     -12.205  11.728  68.157  1.00  0.00    -0.507 OA 
BRANCH   3   6
HETATM    6  C   UNL     1     -11.377  10.224  69.856  1.00  0.00    -0.354 A  
HETATM    7  C   UNL     1     -10.434   9.335  70.401  1.00  0.00    -0.296 A  
HETATM    8  C   UNL     1     -10.686   8.693  71.619  1.00  0.00    -0.374 A  
HETATM    9  C   UNL     1     -11.865   8.944  72.317  1.00  0.00    -0.365 A  
HETATM   10  C   UNL     1     -12.776   9.875  71.823  1.00  0.00    -0.523 A  
HETATM   11  C   UNL     1     -12.528  10.517  70.607  1.00  0.00    -0.456 A  
ENDBRANCH   3   6
ENDBRANCH   2   3
BRANCH   2  12
HETATM   12  N   UNL     1      -9.077  10.273  67.061  1.00  0.00    -0.139 NA 
HETATM   13  C   UNL     1      -8.177  10.923  66.110  1.00  0.00    -0.168 C  
HETATM   14  C   UNL     1      -9.987   9.383  66.331  1.00  0.00    -0.276 C  
ENDBRANCH   2  12
TORSDOF 3
ENDMDL
MODEL      106
REMARK 921   NORMALIZED FREE ENERGY PREDICTED BY IDOCK:   -3.52 KCAL/MOL
REMARK 922        TOTAL FREE ENERGY PREDICTED BY IDOCK:   -4.40 KCAL/MOL
REMARK 923 INTER-LIGAND FREE ENERGY PREDICTED BY IDOCK:   -4.14 KCAL/MOL
REMARK 924 INTRA-LIGAND FREE ENERGY PREDICTED BY IDOCK:   -0.26 KCAL/MOL
REMARK 927      BINDING AFFINITY PREDICTED BY RF-SCORE:    0.00 PKD
ROOT
HETATM    1  C   UNL     1     -10.463  10.352  66.936  1.00  0.00    -0.300 C  
HETATM    2  C   UNL     1     -10.415  11.200  68.222  1.00  0.00    -0.191 C  
ENDROOT
BRANCH   2   3
HETATM    3  C   UNL     1     -10.034  10.291  69.453  1.00  0.00    -0.233 C  
HETATM    4  H   UNL     1      -9.271   8.488  69.747  1.00  0.00     0.000 HD 
HETATM    5  O   UNL     1      -9.500   9.035  69.006  1.00  0.00    -0.153 OA 
BRANCH   3   6
HETATM    6  C   UNL     1     -11.091  10.037  70.522  1.00  0.00    -0.400 A  
HETATM    7  C   UNL     1     -11.166   8.782  71.151  1.00  0.00    -0.339 A  
HETATM    8  C   UNL     1     -12.257   8.462  71.968  1.00  0.00    -0.419 A  
HETATM    9  C   UNL     1     -13.271   9.392  72.185  1.00  0.00    -0.541 A  
HETATM   10  C   UNL     1     -13.175  10.663  71.624  1.00  0.00    -0.495 A  
HETATM   11  C   UNL     1     -12.088  10.986  70.808  1.00  0.00    -0.467 A  
ENDBRANCH   3   6
ENDBRANCH   2   3
BRANCH   2  12
HETATM   12  N   UNL     1      -9.477  12.357  68.023  1.00  0.00    -0.202 NA 
HETATM   13  C   UNL     1     -10.081  13.487  67.322  1.00  0.00    -0.235 C  
HETATM   14  C   UNL     1      -8.227  11.985  67.351  1.00  0.00    -0.168 C  
ENDBRANCH   2  12
TORSDOF 3
ENDMDL
MODEL      107
REMARK 921   NORMALIZED FREE ENERGY PREDICTED BY IDOCK:   -3.51 KCAL/MOL
REMARK 922        TOTAL FREE ENERGY PREDICTED BY IDOCK:   -4.38 KCAL/MOL
REMARK 923 INTER-LIGAND FREE ENERGY PREDICTED BY IDOCK:   -4.11 KCAL/MOL
REMARK 924 INTRA-LIGAND FREE ENERGY PREDICTED BY IDOCK:   -0.27 KCAL/MOL
REMARK 927      BINDING AFFINITY PREDICTED BY RF-SCORE:    0.00 PKD
ROOT
HETATM    1  C   UNL     1      -9.043  14.484  66.854  1.00  0.00    -0.274 C  
HETATM    2  C   UNL     1     -10.458  14.986  66.506  1.00  0.00    -0.285 C  
ENDROOT
BRANCH   2   3
HETATM    3  C   UNL     1     -11.335  13.794  65.964  1.00  0.00    -0.314 C  
HETATM    4  H   UNL     1     -13.253  13.304  65.916  1.00  0.00     0.000 HD 
HETATM    5  O   UNL     1     -12.725  14.023  66.243  1.00  0.00    -0.414 OA 
BRANCH   3   6
HETATM    6  C   UNL     1     -10.965  12.374  66.379  1.00  0.00    -0.315 A  
HETATM    7  C   UNL     1     -10.287  11.533  65.478  1.00  0.00    -0.322 A  
HETATM    8  C   UNL     1     -10.136  10.170  65.757  1.00  0.00    -0.324 A  
HETATM    9  C   UNL     1     -10.636   9.634  66.942  1.00  0.00    -0.241 A  
HETATM   10  C   UNL     1     -11.247  10.468  67.874  1.00  0.00    -0.358 A  
HETATM   11  C   UNL     1     -11.401  11.829  67.599  1.00  0.00    -0.370 A  
ENDBRANCH   3   6
ENDBRANCH   2   3
BRANCH   2  12
HETATM   12  N   UNL     1     -11.055  15.669  67.704  1.00  0.00    -0.323 NA 
HETATM   13  C   UNL     1     -10.778  17.102  67.760  1.00  0.00    -0.329 C  
HETATM   14  C   UNL     1     -10.670  15.053  68.979  1.00  0.00    -0.239 C  
ENDBRANCH   2  12
TORSDOF 3
ENDMDL
MODEL      108
REMARK 921   NORMALIZED FREE ENERGY PREDICTED BY IDOCK:   -3.50 KCAL/MOL
REMARK 922        TOTAL FREE ENERGY PREDICTED BY IDOCK:   -4.37 KCAL/MOL
REMARK 923 INTER-LIGAND FREE ENERGY PREDICTED BY IDOCK:   -4.15 KCAL/MOL
REMARK 924 INTRA-LIGAND FREE ENERGY PREDICTED BY IDOCK:   -0.21 KCAL/MOL
REMARK 927      BINDING AFFINITY PREDICTED BY RF-SCORE:    0.00 PKD
ROOT
HETATM    1  C   UNL     1      -8.293   8.109  68.659  1.00  0.00    -0.126 C  
HETATM    2  C   UNL     1      -9.785   7.930  69.002  1.00  0.00    -0.162 C  
ENDROOT
BRANCH   2   3
HETATM    3  C   UNL     1     -10.215   8.982  70.095  1.00  0.00    -0.197 C  
HETATM    4  H   UNL     1      -9.397   9.861  71.670  1.00  0.00     0.000 HD 
HETATM    5  O   UNL     1      -9.137   9.227  71.012  1.00  0.00    -0.239 OA 
BRANCH   3   6
HETATM    6  C   UNL     1     -11.497   8.729  70.881  1.00  0.00    -0.330 A  
HETATM    7  C   UNL     1     -12.033   7.430  70.951  1.00  0.00    -0.308 A  
HETATM    8  C   UNL     1     -13.313   7.218  71.476  1.00  0.00    -0.435 A  
HETATM    9  C   UNL     1     -14.063   8.289  71.957  1.00  0.00    -0.470 A  
HETATM   10  C   UNL     1     -13.518   9.570  71.957  1.00  0.00    -0.522 A  
HETATM   11  C   UNL     1     -12.241   9.786  71.433  1.00  0.00    -0.486 A  
ENDBRANCH   3   6
ENDBRANCH   2   3
BRANCH   2  12
HETATM   12  N   UNL     1     -10.600   8.011  67.744  1.00  0.00    -0.205 NA 
HETATM   13  C   UNL     1     -10.913   6.707  67.163  1.00  0.00    -0.408 C  
HETATM   14  C   UNL     1     -10.000   8.866  66.713  1.00  0.00    -0.267 C  
ENDBRANCH   2  12
TORSDOF 3
ENDMDL
MODEL      109
REMARK 921   NORMALIZED FREE ENERGY PREDICTED BY IDOCK:   -3.50 KCAL/MOL
REMARK 922        TOTAL FREE ENERGY PREDICTED BY IDOCK:   -4.37 KCAL/MOL
REMARK 923 INTER-LIGAND FREE ENERGY PREDICTED BY IDOCK:   -4.12 KCAL/MOL
REMARK 924 INTRA-LIGAND FREE ENERGY PREDICTED BY IDOCK:   -0.25 KCAL/MOL
REMARK 927      BINDING AFFINITY PREDICTED BY RF-SCORE:    0.00 PKD
ROOT
HETATM    1  C   UNL     1     -13.931   8.548  71.848  1.00  0.00    -0.498 C  
HETATM    2  C   UNL     1     -12.631   9.373  71.777  1.00  0.00    -0.387 C  
ENDROOT
BRANCH   2   3
HETATM    3  C   UNL     1     -11.471   8.498  71.165  1.00  0.00    -0.276 C  
HETATM    4  H   UNL     1     -11.273   6.694  70.372  1.00  0.00     0.000 HD 
HETATM    5  O   UNL     1     -11.973   7.221  70.741  1.00  0.00    -0.314 OA 
BRANCH   3   6
HETATM    6  C   UNL     1     -10.204   8.294  71.988  1.00  0.00    -0.339 A  
HETATM    7  C   UNL     1      -8.944   8.506  71.402  1.00  0.00    -0.262 A  
HETATM    8  C   UNL     1      -7.777   8.115  72.068  1.00  0.00    -0.136 A  
HETATM    9  C   UNL     1      -7.848   7.532  73.331  1.00  0.00    -0.139 A  
HETATM   10  C   UNL     1      -9.085   7.380  73.953  1.00  0.00    -0.298 A  
HETATM   11  C   UNL     1     -10.252   7.768  73.291  1.00  0.00    -0.367 A  
ENDBRANCH   3   6
ENDBRANCH   2   3
BRANCH   2  12
HETATM   12  N   UNL     1     -12.886  10.643  71.015  1.00  0.00    -0.386 NA 
HETATM   13  C   UNL     1     -11.768  11.052  70.168  1.00  0.00    -0.356 C  
HETATM   14  C   UNL     1     -13.279  11.768  71.871  1.00  0.00    -0.362 C  
ENDBRANCH   2  12
TORSDOF 3
ENDMDL
MODEL      110
REMARK 921   NORMALIZED FREE ENERGY PREDICTED BY IDOCK:   -3.49 KCAL/MOL
REMARK 922        TOTAL FREE ENERGY PREDICTED BY IDOCK:   -4.36 KCAL/MOL
REMARK 923 INTER-LIGAND FREE ENERGY PREDICTED BY IDOCK:   -4.19 KCAL/MOL
REMARK 924 INTRA-LIGAND FREE ENERGY PREDICTED BY IDOCK:   -0.17 KCAL/MOL
REMARK 927      BINDING AFFINITY PREDICTED BY RF-SCORE:    0.00 PKD
ROOT
HETATM    1  C   UNL     1     -11.224  15.438  68.352  1.00  0.00    -0.318 C  
HETATM    2  C   UNL     1     -11.446  14.605  67.075  1.00  0.00    -0.368 C  
ENDROOT
BRANCH   2   3
HETATM    3  C   UNL     1     -10.859  15.367  65.826  1.00  0.00    -0.343 C  
HETATM    4  H   UNL     1      -9.828  14.911  64.197  1.00  0.00     0.000 HD 
HETATM    5  O   UNL     1     -10.181  14.452  64.950  1.00  0.00    -0.417 OA 
BRANCH   3   6
HETATM    6  C   UNL     1      -9.972  16.582  66.069  1.00  0.00    -0.359 A  
HETATM    7  C   UNL     1      -8.586  16.417  66.244  1.00  0.00    -0.375 A  
HETATM    8  C   UNL     1      -7.794  17.484  66.683  1.00  0.00    -0.285 A  
HETATM    9  C   UNL     1      -8.366  18.731  66.930  1.00  0.00    -0.277 A  
HETATM   10  C   UNL     1      -9.724  18.927  66.693  1.00  0.00    -0.380 A  
HETATM   11  C   UNL     1     -10.518  17.864  66.256  1.00  0.00    -0.320 A  
ENDBRANCH   3   6
ENDBRANCH   2   3
BRANCH   2  12
HETATM   12  N   UNL     1     -10.862  13.234  67.265  1.00  0.00    -0.262 NA 
HETATM   13  C   UNL     1     -11.847  12.226  67.652  1.00  0.00    -0.264 C  
HETATM   14  C   UNL     1      -9.743  13.202  68.213  1.00  0.00    -0.223 C  
ENDBRANCH   2  12
TORSDOF 3
ENDMDL
MODEL      111
REMARK 921   NORMALIZED FREE ENERGY PREDICTED BY IDOCK:   -3.49 KCAL/MOL
REMARK 922        TOTAL FREE ENERGY PREDICTED BY IDOCK:   -4.36 KCAL/MOL
REMARK 923 INTER-LIGAND FREE ENERGY PREDICTED BY IDOCK:   -4.09 KCAL/MOL
REMARK 924 INTRA-LIGAND FREE ENERGY PREDICTED BY IDOCK:   -0.27 KCAL/MOL
REMARK 927      BINDING AFFINITY PREDICTED BY RF-SCORE:    0.00 PKD
ROOT
HETATM    1  C   UNL     1     -13.087   7.327  71.456  1.00  0.00    -0.434 C  
HETATM    2  C   UNL     1     -11.675   7.361  72.074  1.00  0.00    -0.289 C  
ENDROOT
BRANCH   2   3
HETATM    3  C   UNL     1     -10.733   6.344  71.323  1.00  0.00    -0.241 C  
HETATM    4  H   UNL     1     -10.601   5.549  69.514  1.00  0.00     0.000 HD 
HETATM    5  O   UNL     1     -11.168   6.162  69.967  1.00  0.00    -0.365 OA 
BRANCH   3   6
HETATM    6  C   UNL     1     -10.483   4.982  71.960  1.00  0.00    -0.269 A  
HETATM    7  C   UNL     1      -9.749   4.005  71.262  1.00  0.00    -0.255 A  
HETATM    8  C   UNL     1      -9.697   2.688  71.731  1.00  0.00    -0.224 A  
HETATM    9  C   UNL     1     -10.354   2.332  72.908  1.00  0.00    -0.234 A  
HETATM   10  C   UNL     1     -11.026   3.304  73.644  1.00  0.00    -0.330 A  
HETATM   11  C   UNL     1     -11.081   4.620  73.179  1.00  0.00    -0.371 A  
ENDBRANCH   3   6
ENDBRANCH   2   3
BRANCH   2  12
HETATM   12  N   UNL     1     -11.158   8.772  72.063  1.00  0.00    -0.363 NA 
HETATM   13  C   UNL     1     -12.059   9.720  71.411  1.00  0.00    -0.400 C  
HETATM   14  C   UNL     1      -9.820   8.898  71.476  1.00  0.00    -0.314 C  
ENDBRANCH   2  12
TORSDOF 3
ENDMDL
MODEL      112
REMARK 921   NORMALIZED FREE ENERGY PREDICTED BY IDOCK:   -3.48 KCAL/MOL
REMARK 922        TOTAL FREE ENERGY PREDICTED BY IDOCK:   -4.35 KCAL/MOL
REMARK 923 INTER-LIGAND FREE ENERGY PREDICTED BY IDOCK:   -4.11 KCAL/MOL
REMARK 924 INTRA-LIGAND FREE ENERGY PREDICTED BY IDOCK:   -0.24 KCAL/MOL
REMARK 927      BINDING AFFINITY PREDICTED BY RF-SCORE:    0.00 PKD
ROOT
HETATM    1  C   UNL     1      -5.789  17.752  66.034  1.00  0.00    -0.241 C  
HETATM    2  C   UNL     1      -5.987  18.023  67.538  1.00  0.00    -0.152 C  
ENDROOT
BRANCH   2   3
HETATM    3  C   UNL     1      -6.579  19.469  67.752  1.00  0.00    -0.224 C  
HETATM    4  H   UNL     1      -6.552  20.857  69.164  1.00  0.00     0.000 HD 
HETATM    5  O   UNL     1      -6.196  19.986  69.035  1.00  0.00    -0.279 OA 
BRANCH   3   6
HETATM    6  C   UNL     1      -8.076  19.677  67.551  1.00  0.00    -0.333 A  
HETATM    7  C   UNL     1      -8.958  19.523  68.636  1.00  0.00    -0.386 A  
HETATM    8  C   UNL     1     -10.341  19.493  68.426  1.00  0.00    -0.486 A  
HETATM    9  C   UNL     1     -10.863  19.638  67.142  1.00  0.00    -0.526 A  
HETATM   10  C   UNL     1     -10.004  19.860  66.069  1.00  0.00    -0.560 A  
HETATM   11  C   UNL     1      -8.623  19.890  66.274  1.00  0.00    -0.377 A  
ENDBRANCH   3   6
ENDBRANCH   2   3
BRANCH   2  12
HETATM   12  N   UNL     1      -6.837  16.937  68.134  1.00  0.00    -0.157 NA 
HETATM   13  C   UNL     1      -6.230  16.289  69.295  1.00  0.00    -0.169 C  
HETATM   14  C   UNL     1      -7.238  15.912  67.165  1.00  0.00    -0.219 C  
ENDBRANCH   2  12
TORSDOF 3
ENDMDL
MODEL      113
REMARK 921   NORMALIZED FREE ENERGY PREDICTED BY IDOCK:   -3.48 KCAL/MOL
REMARK 922        TOTAL FREE ENERGY PREDICTED BY IDOCK:   -4.35 KCAL/MOL
REMARK 923 INTER-LIGAND FREE ENERGY PREDICTED BY IDOCK:   -4.06 KCAL/MOL
REMARK 924 INTRA-LIGAND FREE ENERGY PREDICTED BY IDOCK:   -0.29 KCAL/MOL
REMARK 927      BINDING AFFINITY PREDICTED BY RF-SCORE:    0.00 PKD
ROOT
HETATM    1  C   UNL     1      -9.851  16.447  65.788  1.00  0.00    -0.303 C  
HETATM    2  C   UNL     1     -10.144  15.995  67.232  1.00  0.00    -0.266 C  
ENDROOT
BRANCH   2   3
HETATM    3  C   UNL     1     -10.001  17.217  68.218  1.00  0.00    -0.313 C  
HETATM    4  H   UNL     1     -10.785  19.025  68.416  1.00  0.00     0.000 HD 
HETATM    5  O   UNL     1     -10.871  18.289  67.821  1.00  0.00    -0.386 OA 
BRANCH   3   6
HETATM    6  C   UNL     1      -8.608  17.773  68.488  1.00  0.00    -0.291 A  
HETATM    7  C   UNL     1      -7.579  16.912  68.912  1.00  0.00    -0.234 A  
HETATM    8  C   UNL     1      -6.364  17.433  69.373  1.00  0.00    -0.246 A  
HETATM    9  C   UNL     1      -6.151  18.810  69.395  1.00  0.00    -0.276 A  
HETATM   10  C   UNL     1      -7.134  19.669  68.913  1.00  0.00    -0.388 A  
HETATM   11  C   UNL     1      -8.348  19.154  68.453  1.00  0.00    -0.384 A  
ENDBRANCH   3   6
ENDBRANCH   2   3
BRANCH   2  12
HETATM   12  N   UNL     1     -11.495  15.341  67.286  1.00  0.00    -0.281 NA 
HETATM   13  C   UNL     1     -11.773  14.674  68.556  1.00  0.00    -0.316 C  
HETATM   14  C   UNL     1     -11.732  14.400  66.185  1.00  0.00    -0.378 C  
ENDBRANCH   2  12
TORSDOF 3
ENDMDL
MODEL      114
REMARK 921   NORMALIZED FREE ENERGY PREDICTED BY IDOCK:   -3.48 KCAL/MOL
REMARK 922        TOTAL FREE ENERGY PREDICTED BY IDOCK:   -4.35 KCAL/MOL
REMARK 923 INTER-LIGAND FREE ENERGY PREDICTED BY IDOCK:   -4.08 KCAL/MOL
REMARK 924 INTRA-LIGAND FREE ENERGY PREDICTED BY IDOCK:   -0.27 KCAL/MOL
REMARK 927      BINDING AFFINITY PREDICTED BY RF-SCORE:    0.00 PKD
ROOT
HETATM    1  C   UNL     1     -10.130  15.646  69.981  1.00  0.00    -0.220 C  
HETATM    2  C   UNL     1     -10.596  15.092  68.621  1.00  0.00    -0.237 C  
ENDROOT
BRANCH   2   3
HETATM    3  C   UNL     1     -11.860  14.171  68.819  1.00  0.00    -0.349 C  
HETATM    4  H   UNL     1     -13.145  13.758  70.268  1.00  0.00     0.000 HD 
HETATM    5  O   UNL     1     -12.383  14.312  70.149  1.00  0.00    -0.324 OA 
BRANCH   3   6
HETATM    6  C   UNL     1     -11.740  12.690  68.480  1.00  0.00    -0.372 A  
HETATM    7  C   UNL     1     -11.893  11.723  69.490  1.00  0.00    -0.402 A  
HETATM    8  C   UNL     1     -11.571  10.383  69.244  1.00  0.00    -0.246 A  
HETATM    9  C   UNL     1     -11.115   9.987  67.988  1.00  0.00    -0.263 A  
HETATM   10  C   UNL     1     -11.025  10.921  66.960  1.00  0.00    -0.310 A  
HETATM   11  C   UNL     1     -11.345  12.259  67.201  1.00  0.00    -0.398 A  
ENDBRANCH   3   6
ENDBRANCH   2   3
BRANCH   2  12
HETATM   12  N   UNL     1     -10.832  16.232  67.671  1.00  0.00    -0.319 NA 
HETATM   13  C   UNL     1     -10.513  15.912  66.281  1.00  0.00    -0.318 C  
HETATM   14  C   UNL     1     -10.135  17.465  68.054  1.00  0.00    -0.326 C  
ENDBRANCH   2  12
TORSDOF 3
ENDMDL
MODEL      115
REMARK 921   NORMALIZED FREE ENERGY PREDICTED BY IDOCK:   -3.48 KCAL/MOL
REMARK 922        TOTAL FREE ENERGY PREDICTED BY IDOCK:   -4.35 KCAL/MOL
REMARK 923 INTER-LIGAND FREE ENERGY PREDICTED BY IDOCK:   -4.06 KCAL/MOL
REMARK 924 INTRA-LIGAND FREE ENERGY PREDICTED BY IDOCK:   -0.28 KCAL/MOL
REMARK 927      BINDING AFFINITY PREDICTED BY RF-SCORE:    0.00 PKD
ROOT
HETATM    1  C   UNL     1      -9.964  10.376  68.918  1.00  0.00    -0.208 C  
HETATM    2  C   UNL     1     -10.278  10.102  67.434  1.00  0.00    -0.218 C  
ENDROOT
BRANCH   2   3
HETATM    3  C   UNL     1      -9.834  11.333  66.554  1.00  0.00    -0.208 C  
HETATM    4  H   UNL     1      -8.862  13.038  66.823  1.00  0.00     0.000 HD 
HETATM    5  O   UNL     1      -9.130  12.296  67.353  1.00  0.00    -0.172 OA 
BRANCH   3   6
HETATM    6  C   UNL     1     -10.892  12.048  65.721  1.00  0.00    -0.329 A  
HETATM    7  C   UNL     1     -11.031  11.746  64.354  1.00  0.00    -0.397 A  
HETATM    8  C   UNL     1     -11.838  12.540  63.531  1.00  0.00    -0.616 A  
HETATM    9  C   UNL     1     -12.531  13.627  64.060  1.00  0.00    -0.285 A  
HETATM   10  C   UNL     1     -12.457  13.895  65.424  1.00  0.00    -0.528 A  
HETATM   11  C   UNL     1     -11.653  13.105  66.249  1.00  0.00    -0.399 A  
ENDBRANCH   3   6
ENDBRANCH   2   3
BRANCH   2  12
HETATM   12  N   UNL     1      -9.634   8.810  67.018  1.00  0.00    -0.166 NA 
HETATM   13  C   UNL     1      -8.924   8.893  65.743  1.00  0.00    -0.203 C  
HETATM   14  C   UNL     1     -10.569   7.680  66.975  1.00  0.00    -0.336 C  
ENDBRANCH   2  12
TORSDOF 3
ENDMDL
MODEL      116
REMARK 921   NORMALIZED FREE ENERGY PREDICTED BY IDOCK:   -3.46 KCAL/MOL
REMARK 922        TOTAL FREE ENERGY PREDICTED BY IDOCK:   -4.32 KCAL/MOL
REMARK 923 INTER-LIGAND FREE ENERGY PREDICTED BY IDOCK:   -4.06 KCAL/MOL
REMARK 924 INTRA-LIGAND FREE ENERGY PREDICTED BY IDOCK:   -0.26 KCAL/MOL
REMARK 927      BINDING AFFINITY PREDICTED BY RF-SCORE:    0.00 PKD
ROOT
HETATM    1  C   UNL     1     -11.556  12.226  69.007  1.00  0.00    -0.368 C  
HETATM    2  C   UNL     1     -11.887  13.542  68.276  1.00  0.00    -0.366 C  
ENDROOT
BRANCH   2   3
HETATM    3  C   UNL     1     -11.134  14.744  68.964  1.00  0.00    -0.256 C  
HETATM    4  H   UNL     1     -11.621  16.411  69.916  1.00  0.00     0.000 HD 
HETATM    5  O   UNL     1     -12.075  15.687  69.501  1.00  0.00    -0.360 OA 
BRANCH   3   6
HETATM    6  C   UNL     1     -10.075  15.491  68.161  1.00  0.00    -0.218 A  
HETATM    7  C   UNL     1     -10.404  16.696  67.514  1.00  0.00    -0.294 A  
HETATM    8  C   UNL     1      -9.516  17.276  66.601  1.00  0.00    -0.278 A  
HETATM    9  C   UNL     1      -8.285  16.679  66.338  1.00  0.00    -0.353 A  
HETATM   10  C   UNL     1      -7.918  15.524  67.023  1.00  0.00    -0.268 A  
HETATM   11  C   UNL     1      -8.802  14.941  67.935  1.00  0.00    -0.165 A  
ENDBRANCH   3   6
ENDBRANCH   2   3
BRANCH   2  12
HETATM   12  N   UNL     1     -11.568  13.396  66.815  1.00  0.00    -0.346 NA 
HETATM   13  C   UNL     1     -12.603  13.931  65.933  1.00  0.00    -0.456 C  
HETATM   14  C   UNL     1     -11.263  12.017  66.419  1.00  0.00    -0.337 C  
ENDBRANCH   2  12
TORSDOF 3
ENDMDL
MODEL      117
REMARK 921   NORMALIZED FREE ENERGY PREDICTED BY IDOCK:   -3.45 KCAL/MOL
REMARK 922        TOTAL FREE ENERGY PREDICTED BY IDOCK:   -4.31 KCAL/MOL
REMARK 923 INTER-LIGAND FREE ENERGY PREDICTED BY IDOCK:   -4.12 KCAL/MOL
REMARK 924 INTRA-LIGAND FREE ENERGY PREDICTED BY IDOCK:   -0.19 KCAL/MOL
REMARK 927      BINDING AFFINITY PREDICTED BY RF-SCORE:    0.00 PKD
ROOT
HETATM    1  C   UNL     1      -9.313  12.620  68.115  1.00  0.00    -0.210 C  
HETATM    2  C   UNL     1     -10.099  13.581  67.202  1.00  0.00    -0.245 C  
ENDROOT
BRANCH   2   3
HETATM    3  C   UNL     1     -11.629  13.555  67.584  1.00  0.00    -0.339 C  
HETATM    4  H   UNL     1     -13.313  14.341  66.898  1.00  0.00     0.000 HD 
HETATM    5  O   UNL     1     -12.391  14.357  66.668  1.00  0.00    -0.409 OA 
BRANCH   3   6
HETATM    6  C   UNL     1     -12.026  13.908  69.013  1.00  0.00    -0.402 A  
HETATM    7  C   UNL     1     -12.016  15.250  69.433  1.00  0.00    -0.342 A  
HETATM    8  C   UNL     1     -12.163  15.571  70.788  1.00  0.00    -0.450 A  
HETATM    9  C   UNL     1     -12.343  14.564  71.734  1.00  0.00    -0.408 A  
HETATM   10  C   UNL     1     -12.424  13.236  71.324  1.00  0.00    -0.351 A  
HETATM   11  C   UNL     1     -12.277  12.912  69.973  1.00  0.00    -0.292 A  
ENDBRANCH   3   6
ENDBRANCH   2   3
BRANCH   2  12
HETATM   12  N   UNL     1      -9.490  14.952  67.277  1.00  0.00    -0.209 NA 
HETATM   13  C   UNL     1      -9.223  15.547  65.970  1.00  0.00    -0.326 C  
HETATM   14  C   UNL     1      -8.269  15.005  68.089  1.00  0.00    -0.140 C  
ENDBRANCH   2  12
TORSDOF 3
ENDMDL
MODEL      118
REMARK 921   NORMALIZED FREE ENERGY PREDICTED BY IDOCK:   -3.45 KCAL/MOL
REMARK 922        TOTAL FREE ENERGY PREDICTED BY IDOCK:   -4.31 KCAL/MOL
REMARK 923 INTER-LIGAND FREE ENERGY PREDICTED BY IDOCK:   -4.02 KCAL/MOL
REMARK 924 INTRA-LIGAND FREE ENERGY PREDICTED BY IDOCK:   -0.29 KCAL/MOL
REMARK 927      BINDING AFFINITY PREDICTED BY RF-SCORE:    0.00 PKD
ROOT
HETATM    1  C   UNL     1      -9.673  11.773  67.426  1.00  0.00    -0.186 C  
HETATM    2  C   UNL     1     -10.528  12.657  68.355  1.00  0.00    -0.238 C  
ENDROOT
BRANCH   2   3
HETATM    3  C   UNL     1     -11.643  13.396  67.520  1.00  0.00    -0.344 C  
HETATM    4  H   UNL     1     -12.775  13.007  65.942  1.00  0.00     0.000 HD 
HETATM    5  O   UNL     1     -12.103  12.562  66.445  1.00  0.00    -0.576 OA 
BRANCH   3   6
HETATM    6  C   UNL     1     -11.342  14.790  66.982  1.00  0.00    -0.358 A  
HETATM    7  C   UNL     1     -11.206  14.995  65.597  1.00  0.00    -0.327 A  
HETATM    8  C   UNL     1     -10.717  16.210  65.104  1.00  0.00    -0.391 A  
HETATM    9  C   UNL     1     -10.381  17.241  65.979  1.00  0.00    -0.312 A  
HETATM   10  C   UNL     1     -10.576  17.077  67.348  1.00  0.00    -0.289 A  
HETATM   11  C   UNL     1     -11.063  15.865  67.844  1.00  0.00    -0.317 A  
ENDBRANCH   3   6
ENDBRANCH   2   3
BRANCH   2  12
HETATM   12  N   UNL     1     -11.079  11.820  69.474  1.00  0.00    -0.183 NA 
HETATM   13  C   UNL     1     -11.515  10.490  69.051  1.00  0.00    -0.237 C  
HETATM   14  C   UNL     1     -12.168  12.472  70.210  1.00  0.00    -0.267 C  
ENDBRANCH   2  12
TORSDOF 3
ENDMDL
MODEL      119
REMARK 921   NORMALIZED FREE ENERGY PREDICTED BY IDOCK:   -3.44 KCAL/MOL
REMARK 922        TOTAL FREE ENERGY PREDICTED BY IDOCK:   -4.30 KCAL/MOL
REMARK 923 INTER-LIGAND FREE ENERGY PREDICTED BY IDOCK:   -4.04 KCAL/MOL
REMARK 924 INTRA-LIGAND FREE ENERGY PREDICTED BY IDOCK:   -0.26 KCAL/MOL
REMARK 927      BINDING AFFINITY PREDICTED BY RF-SCORE:    0.00 PKD
ROOT
HETATM    1  C   UNL     1      -9.728  14.070  66.069  1.00  0.00    -0.280 C  
HETATM    2  C   UNL     1     -10.639  12.895  65.663  1.00  0.00    -0.277 C  
ENDROOT
BRANCH   2   3
HETATM    3  C   UNL     1     -11.199  12.179  66.951  1.00  0.00    -0.320 C  
HETATM    4  H   UNL     1     -11.373  12.586  68.882  1.00  0.00     0.000 HD 
HETATM    5  O   UNL     1     -11.034  13.017  68.106  1.00  0.00    -0.227 OA 
BRANCH   3   6
HETATM    6  C   UNL     1     -10.704  10.774  67.274  1.00  0.00    -0.325 A  
HETATM    7  C   UNL     1     -10.313   9.911  66.234  1.00  0.00    -0.233 A  
HETATM    8  C   UNL     1     -10.068   8.557  66.490  1.00  0.00    -0.328 A  
HETATM    9  C   UNL     1     -10.186   8.052  67.783  1.00  0.00    -0.282 A  
HETATM   10  C   UNL     1     -10.504   8.909  68.833  1.00  0.00    -0.225 A  
HETATM   11  C   UNL     1     -10.751  10.261  68.582  1.00  0.00    -0.255 A  
ENDBRANCH   3   6
ENDBRANCH   2   3
BRANCH   2  12
HETATM   12  N   UNL     1     -11.716  13.393  64.742  1.00  0.00    -0.346 NA 
HETATM   13  C   UNL     1     -12.851  13.994  65.439  1.00  0.00    -0.410 C  
HETATM   14  C   UNL     1     -12.208  12.370  63.813  1.00  0.00    -0.533 C  
ENDBRANCH   2  12
TORSDOF 3
ENDMDL
MODEL      120
REMARK 921   NORMALIZED FREE ENERGY PREDICTED BY IDOCK:   -3.43 KCAL/MOL
REMARK 922        TOTAL FREE ENERGY PREDICTED BY IDOCK:   -4.29 KCAL/MOL
REMARK 923 INTER-LIGAND FREE ENERGY PREDICTED BY IDOCK:   -3.95 KCAL/MOL
REMARK 924 INTRA-LIGAND FREE ENERGY PREDICTED BY IDOCK:   -0.34 KCAL/MOL
REMARK 927      BINDING AFFINITY PREDICTED BY RF-SCORE:    0.00 PKD
ROOT
HETATM    1  C   UNL     1     -13.106   9.066  72.123  1.00  0.00    -0.496 C  
HETATM    2  C   UNL     1     -12.007   8.108  71.622  1.00  0.00    -0.300 C  
ENDROOT
BRANCH   2   3
HETATM    3  C   UNL     1     -11.057   8.859  70.613  1.00  0.00    -0.262 C  
HETATM    4  H   UNL     1     -10.950  10.651  69.777  1.00  0.00     0.000 HD 
HETATM    5  O   UNL     1     -11.523  10.198  70.385  1.00  0.00    -0.275 OA 
BRANCH   3   6
HETATM    6  C   UNL     1     -10.751   8.197  69.275  1.00  0.00    -0.141 A  
HETATM    7  C   UNL     1     -10.439   8.988  68.155  1.00  0.00    -0.257 A  
HETATM    8  C   UNL     1     -10.373   8.417  66.879  1.00  0.00    -0.378 A  
HETATM    9  C   UNL     1     -10.593   7.052  66.706  1.00  0.00    -0.297 A  
HETATM   10  C   UNL     1     -10.835   6.245  67.814  1.00  0.00    -0.424 A  
HETATM   11  C   UNL     1     -10.902   6.811  69.089  1.00  0.00    -0.298 A  
ENDBRANCH   3   6
ENDBRANCH   2   3
BRANCH   2  12
HETATM   12  N   UNL     1     -11.282   7.521  72.799  1.00  0.00    -0.345 NA 
HETATM   13  C   UNL     1      -9.891   7.956  72.907  1.00  0.00    -0.282 C  
HETATM   14  C   UNL     1     -11.332   6.055  72.844  1.00  0.00    -0.196 C  
ENDBRANCH   2  12
TORSDOF 3
ENDMDL
MODEL      121
REMARK 921   NORMALIZED FREE ENERGY PREDICTED BY IDOCK:   -3.42 KCAL/MOL
REMARK 922        TOTAL FREE ENERGY PREDICTED BY IDOCK:   -4.28 KCAL/MOL
REMARK 923 INTER-LIGAND FREE ENERGY PREDICTED BY IDOCK:   -4.02 KCAL/MOL
REMARK 924 INTRA-LIGAND FREE ENERGY PREDICTED BY IDOCK:   -0.26 KCAL/MOL
REMARK 927      BINDING AFFINITY PREDICTED BY RF-SCORE:    0.00 PKD
ROOT
HETATM    1  C   UNL     1      -9.299  10.537  69.020  1.00  0.00    -0.205 C  
HETATM    2  C   UNL     1     -10.734  11.096  69.093  1.00  0.00    -0.221 C  
ENDROOT
BRANCH   2   3
HETATM    3  C   UNL     1     -11.429  10.982  67.682  1.00  0.00    -0.224 C  
HETATM    4  H   UNL     1     -11.441   9.707  66.166  1.00  0.00     0.000 HD 
HETATM    5  O   UNL     1     -11.022   9.776  67.016  1.00  0.00    -0.162 OA 
BRANCH   3   6
HETATM    6  C   UNL     1     -11.308  12.156  66.717  1.00  0.00    -0.398 A  
HETATM    7  C   UNL     1     -11.057  11.921  65.353  1.00  0.00    -0.360 A  
HETATM    8  C   UNL     1     -10.727  12.980  64.500  1.00  0.00    -0.404 A  
HETATM    9  C   UNL     1     -10.666  14.284  64.987  1.00  0.00    -0.435 A  
HETATM   10  C   UNL     1     -10.980  14.540  66.319  1.00  0.00    -0.323 A  
HETATM   11  C   UNL     1     -11.309  13.485  67.174  1.00  0.00    -0.346 A  
ENDBRANCH   3   6
ENDBRANCH   2   3
BRANCH   2  12
HETATM   12  N   UNL     1     -11.488  10.395  70.187  1.00  0.00    -0.295 NA 
HETATM   13  C   UNL     1     -12.380  11.274  70.939  1.00  0.00    -0.388 C  
HETATM   14  C   UNL     1     -10.620   9.673  71.124  1.00  0.00    -0.257 C  
ENDBRANCH   2  12
TORSDOF 3
ENDMDL
MODEL      122
REMARK 921   NORMALIZED FREE ENERGY PREDICTED BY IDOCK:   -3.42 KCAL/MOL
REMARK 922        TOTAL FREE ENERGY PREDICTED BY IDOCK:   -4.27 KCAL/MOL
REMARK 923 INTER-LIGAND FREE ENERGY PREDICTED BY IDOCK:   -4.00 KCAL/MOL
REMARK 924 INTRA-LIGAND FREE ENERGY PREDICTED BY IDOCK:   -0.27 KCAL/MOL
REMARK 927      BINDING AFFINITY PREDICTED BY RF-SCORE:    0.00 PKD
ROOT
HETATM    1  C   UNL     1     -10.121  10.543  65.442  1.00  0.00    -0.358 C  
HETATM    2  C   UNL     1     -10.198  11.417  66.710  1.00  0.00    -0.223 C  
ENDROOT
BRANCH   2   3
HETATM    3  C   UNL     1     -11.355  12.478  66.563  1.00  0.00    -0.334 C  
HETATM    4  H   UNL     1     -13.063  12.640  65.573  1.00  0.00     0.000 HD 
HETATM    5  O   UNL     1     -12.365  12.001  65.662  1.00  0.00    -0.470 OA 
BRANCH   3   6
HETATM    6  C   UNL     1     -10.983  13.909  66.191  1.00  0.00    -0.293 A  
HETATM    7  C   UNL     1     -10.539  14.800  67.185  1.00  0.00    -0.285 A  
HETATM    8  C   UNL     1     -10.405  16.165  66.906  1.00  0.00    -0.297 A  
HETATM    9  C   UNL     1     -10.690  16.655  65.633  1.00  0.00    -0.222 A  
HETATM   10  C   UNL     1     -11.064  15.774  64.621  1.00  0.00    -0.376 A  
HETATM   11  C   UNL     1     -11.199  14.411  64.896  1.00  0.00    -0.392 A  
ENDBRANCH   3   6
ENDBRANCH   2   3
BRANCH   2  12
HETATM   12  N   UNL     1     -10.349  10.534  67.916  1.00  0.00    -0.181 NA 
HETATM   13  C   UNL     1     -10.481   9.116  67.591  1.00  0.00    -0.261 C  
HETATM   14  C   UNL     1     -11.454  10.932  68.796  1.00  0.00    -0.308 C  
ENDBRANCH   2  12
TORSDOF 3
ENDMDL
MODEL      123
REMARK 921   NORMALIZED FREE ENERGY PREDICTED BY IDOCK:   -3.41 KCAL/MOL
REMARK 922        TOTAL FREE ENERGY PREDICTED BY IDOCK:   -4.27 KCAL/MOL
REMARK 923 INTER-LIGAND FREE ENERGY PREDICTED BY IDOCK:   -4.03 KCAL/MOL
REMARK 924 INTRA-LIGAND FREE ENERGY PREDICTED BY IDOCK:   -0.24 KCAL/MOL
REMARK 927      BINDING AFFINITY PREDICTED BY RF-SCORE:    0.00 PKD
ROOT
HETATM    1  C   UNL     1      -9.198   9.964  62.798  1.00  0.00    -0.292 C  
HETATM    2  C   UNL     1      -9.196  10.724  64.139  1.00  0.00    -0.224 C  
ENDROOT
BRANCH   2   3
HETATM    3  C   UNL     1     -10.637  11.288  64.441  1.00  0.00    -0.345 C  
HETATM    4  H   UNL     1     -12.231  11.836  63.401  1.00  0.00     0.000 HD 
HETATM    5  O   UNL     1     -11.362  11.496  63.219  1.00  0.00    -0.317 OA 
BRANCH   3   6
HETATM    6  C   UNL     1     -10.762  12.528  65.319  1.00  0.00    -0.318 A  
HETATM    7  C   UNL     1     -11.549  12.487  66.483  1.00  0.00    -0.447 A  
HETATM    8  C   UNL     1     -11.852  13.665  67.177  1.00  0.00    -0.435 A  
HETATM    9  C   UNL     1     -11.357  14.890  66.734  1.00  0.00    -0.328 A  
HETATM   10  C   UNL     1     -10.519  14.936  65.622  1.00  0.00    -0.366 A  
HETATM   11  C   UNL     1     -10.216  13.762  64.927  1.00  0.00    -0.374 A  
ENDBRANCH   3   6
ENDBRANCH   2   3
BRANCH   2  12
HETATM   12  N   UNL     1      -8.669   9.826  65.222  1.00  0.00    -0.149 NA 
HETATM   13  C   UNL     1      -9.716   9.219  66.041  1.00  0.00    -0.289 C  
HETATM   14  C   UNL     1      -7.690  10.479  66.098  1.00  0.00    -0.142 C  
ENDBRANCH   2  12
TORSDOF 3
ENDMDL
MODEL      124
REMARK 921   NORMALIZED FREE ENERGY PREDICTED BY IDOCK:   -3.36 KCAL/MOL
REMARK 922        TOTAL FREE ENERGY PREDICTED BY IDOCK:   -4.21 KCAL/MOL
REMARK 923 INTER-LIGAND FREE ENERGY PREDICTED BY IDOCK:   -4.00 KCAL/MOL
REMARK 924 INTRA-LIGAND FREE ENERGY PREDICTED BY IDOCK:   -0.21 KCAL/MOL
REMARK 927      BINDING AFFINITY PREDICTED BY RF-SCORE:    0.00 PKD
ROOT
HETATM    1  C   UNL     1      -9.095   8.603  68.629  1.00  0.00    -0.138 C  
HETATM    2  C   UNL     1     -10.005   8.891  67.419  1.00  0.00    -0.209 C  
ENDROOT
BRANCH   2   3
HETATM    3  C   UNL     1      -9.464  10.140  66.624  1.00  0.00    -0.170 C  
HETATM    4  H   UNL     1      -8.368  11.745  67.008  1.00  0.00     0.000 HD 
HETATM    5  O   UNL     1      -8.694  10.992  67.487  1.00  0.00    -0.127 OA 
BRANCH   3   6
HETATM    6  C   UNL     1     -10.458  10.986  65.837  1.00  0.00    -0.300 A  
HETATM    7  C   UNL     1     -10.415  10.994  64.431  1.00  0.00    -0.422 A  
HETATM    8  C   UNL     1     -11.168  11.924  63.704  1.00  0.00    -0.522 A  
HETATM    9  C   UNL     1     -11.986  12.838  64.364  1.00  0.00    -0.464 A  
HETATM   10  C   UNL     1     -12.091  12.796  65.752  1.00  0.00    -0.505 A  
HETATM   11  C   UNL     1     -11.341  11.870  66.481  1.00  0.00    -0.403 A  
ENDBRANCH   3   6
ENDBRANCH   2   3
BRANCH   2  12
HETATM   12  N   UNL     1     -10.122   7.653  66.576  1.00  0.00    -0.188 NA 
HETATM   13  C   UNL     1     -10.974   6.622  67.164  1.00  0.00    -0.408 C  
HETATM   14  C   UNL     1      -8.826   7.063  66.222  1.00  0.00    -0.148 C  
ENDBRANCH   2  12
TORSDOF 3
ENDMDL
MODEL      125
REMARK 921   NORMALIZED FREE ENERGY PREDICTED BY IDOCK:   -3.34 KCAL/MOL
REMARK 922        TOTAL FREE ENERGY PREDICTED BY IDOCK:   -4.19 KCAL/MOL
REMARK 923 INTER-LIGAND FREE ENERGY PREDICTED BY IDOCK:   -3.91 KCAL/MOL
REMARK 924 INTRA-LIGAND FREE ENERGY PREDICTED BY IDOCK:   -0.27 KCAL/MOL
REMARK 927      BINDING AFFINITY PREDICTED BY RF-SCORE:    0.00 PKD
ROOT
HETATM    1  C   UNL     1     -10.095  15.543  69.831  1.00  0.00    -0.282 C  
HETATM    2  C   UNL     1      -9.339  15.013  68.597  1.00  0.00    -0.202 C  
ENDROOT
BRANCH   2   3
HETATM    3  C   UNL     1      -9.986  15.590  67.280  1.00  0.00    -0.238 C  
HETATM    4  H   UNL     1     -11.209  17.068  66.788  1.00  0.00     0.000 HD 
HETATM    5  O   UNL     1     -10.819  16.720  67.581  1.00  0.00    -0.326 OA 
BRANCH   3   6
HETATM    6  C   UNL     1     -10.744  14.634  66.365  1.00  0.00    -0.309 A  
HETATM    7  C   UNL     1     -11.232  15.087  65.126  1.00  0.00    -0.391 A  
HETATM    8  C   UNL     1     -12.111  14.296  64.378  1.00  0.00    -0.490 A  
HETATM    9  C   UNL     1     -12.496  13.039  64.842  1.00  0.00    -0.512 A  
HETATM   10  C   UNL     1     -11.967  12.550  66.033  1.00  0.00    -0.456 A  
HETATM   11  C   UNL     1     -11.089  13.337  66.783  1.00  0.00    -0.313 A  
ENDBRANCH   3   6
ENDBRANCH   2   3
BRANCH   2  12
HETATM   12  N   UNL     1      -7.877  15.331  68.731  1.00  0.00    -0.142 NA 
HETATM   13  C   UNL     1      -7.343  16.114  67.619  1.00  0.00    -0.142 C  
HETATM   14  C   UNL     1      -7.037  14.145  68.932  1.00  0.00    -0.110 C  
ENDBRANCH   2  12
TORSDOF 3
ENDMDL
MODEL      126
REMARK 921   NORMALIZED FREE ENERGY PREDICTED BY IDOCK:   -3.33 KCAL/MOL
REMARK 922        TOTAL FREE ENERGY PREDICTED BY IDOCK:   -4.18 KCAL/MOL
REMARK 923 INTER-LIGAND FREE ENERGY PREDICTED BY IDOCK:   -3.89 KCAL/MOL
REMARK 924 INTRA-LIGAND FREE ENERGY PREDICTED BY IDOCK:   -0.28 KCAL/MOL
REMARK 927      BINDING AFFINITY PREDICTED BY RF-SCORE:    0.00 PKD
ROOT
HETATM    1  C   UNL     1     -11.364  15.918  64.427  1.00  0.00    -0.276 C  
HETATM    2  C   UNL     1     -10.874  15.473  65.820  1.00  0.00    -0.331 C  
ENDROOT
BRANCH   2   3
HETATM    3  C   UNL     1     -10.133  14.086  65.712  1.00  0.00    -0.327 C  
HETATM    4  H   UNL     1     -10.066  12.568  64.441  1.00  0.00     0.000 HD 
HETATM    5  O   UNL     1     -10.513  13.404  64.507  1.00  0.00    -0.404 OA 
BRANCH   3   6
HETATM    6  C   UNL     1     -10.225  13.121  66.888  1.00  0.00    -0.245 A  
HETATM    7  C   UNL     1      -9.089  12.398  67.295  1.00  0.00    -0.187 A  
HETATM    8  C   UNL     1      -9.206  11.355  68.220  1.00  0.00    -0.183 A  
HETATM    9  C   UNL     1     -10.447  11.034  68.767  1.00  0.00    -0.222 A  
HETATM   10  C   UNL     1     -11.568  11.786  68.426  1.00  0.00    -0.380 A  
HETATM   11  C   UNL     1     -11.455  12.827  67.502  1.00  0.00    -0.390 A  
ENDBRANCH   3   6
ENDBRANCH   2   3
BRANCH   2  12
HETATM   12  N   UNL     1     -10.026  16.557  66.421  1.00  0.00    -0.287 NA 
HETATM   13  C   UNL     1      -8.591  16.334  66.261  1.00  0.00    -0.339 C  
HETATM   14  C   UNL     1     -10.319  16.811  67.836  1.00  0.00    -0.319 C  
ENDBRANCH   2  12
TORSDOF 3
ENDMDL
MODEL      127
REMARK 921   NORMALIZED FREE ENERGY PREDICTED BY IDOCK:   -3.32 KCAL/MOL
REMARK 922        TOTAL FREE ENERGY PREDICTED BY IDOCK:   -4.16 KCAL/MOL
REMARK 923 INTER-LIGAND FREE ENERGY PREDICTED BY IDOCK:   -3.91 KCAL/MOL
REMARK 924 INTRA-LIGAND FREE ENERGY PREDICTED BY IDOCK:   -0.26 KCAL/MOL
REMARK 927      BINDING AFFINITY PREDICTED BY RF-SCORE:    0.00 PKD
ROOT
HETATM    1  C   UNL     1      -8.709   8.957  67.589  1.00  0.00    -0.124 C  
HETATM    2  C   UNL     1      -8.732  10.366  66.965  1.00  0.00    -0.130 C  
ENDROOT
BRANCH   2   3
HETATM    3  C   UNL     1     -10.150  11.023  67.168  1.00  0.00    -0.193 C  
HETATM    4  H   UNL     1     -11.861  10.547  68.046  1.00  0.00     0.000 HD 
HETATM    5  O   UNL     1     -11.006  10.150  67.922  1.00  0.00    -0.272 OA 
BRANCH   3   6
HETATM    6  C   UNL     1     -10.900  11.526  65.940  1.00  0.00    -0.316 A  
HETATM    7  C   UNL     1     -10.505  11.108  64.656  1.00  0.00    -0.400 A  
HETATM    8  C   UNL     1     -11.033  11.725  63.516  1.00  0.00    -0.499 A  
HETATM    9  C   UNL     1     -11.975  12.745  63.639  1.00  0.00    -0.616 A  
HETATM   10  C   UNL     1     -12.426  13.120  64.901  1.00  0.00    -0.490 A  
HETATM   11  C   UNL     1     -11.901  12.508  66.042  1.00  0.00    -0.478 A  
ENDBRANCH   3   6
ENDBRANCH   2   3
BRANCH   2  12
HETATM   12  N   UNL     1      -7.609  11.184  67.537  1.00  0.00    -0.104 NA 
HETATM   13  C   UNL     1      -8.000  12.544  67.900  1.00  0.00    -0.157 C  
HETATM   14  C   UNL     1      -6.426  11.237  66.671  1.00  0.00    -0.128 C  
ENDBRANCH   2  12
TORSDOF 3
ENDMDL
MODEL      128
REMARK 921   NORMALIZED FREE ENERGY PREDICTED BY IDOCK:   -3.32 KCAL/MOL
REMARK 922        TOTAL FREE ENERGY PREDICTED BY IDOCK:   -4.16 KCAL/MOL
REMARK 923 INTER-LIGAND FREE ENERGY PREDICTED BY IDOCK:   -3.92 KCAL/MOL
REMARK 924 INTRA-LIGAND FREE ENERGY PREDICTED BY IDOCK:   -0.24 KCAL/MOL
REMARK 927      BINDING AFFINITY PREDICTED BY RF-SCORE:    0.00 PKD
ROOT
HETATM    1  C   UNL     1     -11.880  13.327  70.166  1.00  0.00    -0.333 C  
HETATM    2  C   UNL     1     -11.175  13.070  68.819  1.00  0.00    -0.282 C  
ENDROOT
BRANCH   2   3
HETATM    3  C   UNL     1     -11.902  11.905  68.045  1.00  0.00    -0.253 C  
HETATM    4  H   UNL     1     -13.068  10.368  68.491  1.00  0.00     0.000 HD 
HETATM    5  O   UNL     1     -12.630  11.069  68.958  1.00  0.00    -0.378 OA 
BRANCH   3   6
HETATM    6  C   UNL     1     -11.077  11.030  67.109  1.00  0.00    -0.333 A  
HETATM    7  C   UNL     1     -10.533   9.820  67.576  1.00  0.00    -0.309 A  
HETATM    8  C   UNL     1      -9.598   9.118  66.807  1.00  0.00    -0.253 A  
HETATM    9  C   UNL     1      -9.212   9.598  65.557  1.00  0.00    -0.291 A  
HETATM   10  C   UNL     1      -9.794  10.758  65.052  1.00  0.00    -0.346 A  
HETATM   11  C   UNL     1     -10.727  11.462  65.818  1.00  0.00    -0.309 A  
ENDBRANCH   3   6
ENDBRANCH   2   3
BRANCH   2  12
HETATM   12  N   UNL     1     -11.105  14.352  68.039  1.00  0.00    -0.264 NA 
HETATM   13  C   UNL     1      -9.745  14.740  67.671  1.00  0.00    -0.213 C  
HETATM   14  C   UNL     1     -11.763  15.479  68.708  1.00  0.00    -0.357 C  
ENDBRANCH   2  12
TORSDOF 3
ENDMDL
MODEL      129
REMARK 921   NORMALIZED FREE ENERGY PREDICTED BY IDOCK:   -3.32 KCAL/MOL
REMARK 922        TOTAL FREE ENERGY PREDICTED BY IDOCK:   -4.16 KCAL/MOL
REMARK 923 INTER-LIGAND FREE ENERGY PREDICTED BY IDOCK:   -3.93 KCAL/MOL
REMARK 924 INTRA-LIGAND FREE ENERGY PREDICTED BY IDOCK:   -0.23 KCAL/MOL
REMARK 927      BINDING AFFINITY PREDICTED BY RF-SCORE:    0.00 PKD
ROOT
HETATM    1  C   UNL     1      -9.835   7.898  73.049  1.00  0.00    -0.355 C  
HETATM    2  C   UNL     1     -11.037   6.993  72.709  1.00  0.00    -0.284 C  
ENDROOT
BRANCH   2   3
HETATM    3  C   UNL     1     -11.822   7.582  71.475  1.00  0.00    -0.295 C  
HETATM    4  H   UNL     1     -13.637   7.428  70.699  1.00  0.00     0.000 HD 
HETATM    5  O   UNL     1     -13.164   7.072  71.442  1.00  0.00    -0.365 OA 
BRANCH   3   6
HETATM    6  C   UNL     1     -11.199   7.453  70.090  1.00  0.00    -0.239 A  
HETATM    7  C   UNL     1     -10.612   8.574  69.476  1.00  0.00    -0.215 A  
HETATM    8  C   UNL     1     -10.236   8.529  68.129  1.00  0.00    -0.254 A  
HETATM    9  C   UNL     1     -10.418   7.364  67.385  1.00  0.00    -0.366 A  
HETATM   10  C   UNL     1     -10.934   6.226  67.998  1.00  0.00    -0.418 A  
HETATM   11  C   UNL     1     -11.312   6.267  69.342  1.00  0.00    -0.448 A  
ENDBRANCH   3   6
ENDBRANCH   2   3
BRANCH   2  12
HETATM   12  N   UNL     1     -10.557   5.586  72.493  1.00  0.00    -0.215 NA 
HETATM   13  C   UNL     1     -11.198   4.608  73.370  1.00  0.00    -0.338 C  
HETATM   14  C   UNL     1      -9.101   5.443  72.595  1.00  0.00    -0.135 C  
ENDBRANCH   2  12
TORSDOF 3
ENDMDL
MODEL      130
REMARK 921   NORMALIZED FREE ENERGY PREDICTED BY IDOCK:   -3.31 KCAL/MOL
REMARK 922        TOTAL FREE ENERGY PREDICTED BY IDOCK:   -4.15 KCAL/MOL
REMARK 923 INTER-LIGAND FREE ENERGY PREDICTED BY IDOCK:   -3.92 KCAL/MOL
REMARK 924 INTRA-LIGAND FREE ENERGY PREDICTED BY IDOCK:   -0.23 KCAL/MOL
REMARK 927      BINDING AFFINITY PREDICTED BY RF-SCORE:    0.00 PKD
ROOT
HETATM    1  C   UNL     1      -9.971   8.627  71.563  1.00  0.00    -0.344 C  
HETATM    2  C   UNL     1     -10.861   8.527  70.309  1.00  0.00    -0.238 C  
ENDROOT
BRANCH   2   3
HETATM    3  C   UNL     1     -11.363   7.044  70.122  1.00  0.00    -0.277 C  
HETATM    4  H   UNL     1     -11.647   5.451  71.264  1.00  0.00     0.000 HD 
HETATM    5  O   UNL     1     -11.344   6.344  71.376  1.00  0.00    -0.277 OA 
BRANCH   3   6
HETATM    6  C   UNL     1     -10.700   6.182  69.054  1.00  0.00    -0.377 A  
HETATM    7  C   UNL     1     -10.942   6.441  67.693  1.00  0.00    -0.441 A  
HETATM    8  C   UNL     1     -10.524   5.533  66.713  1.00  0.00    -0.355 A  
HETATM    9  C   UNL     1      -9.841   4.373  67.073  1.00  0.00    -0.227 A  
HETATM   10  C   UNL     1      -9.534   4.139  68.411  1.00  0.00    -0.212 A  
HETATM   11  C   UNL     1      -9.951   5.042  69.392  1.00  0.00    -0.290 A  
ENDBRANCH   3   6
ENDBRANCH   2   3
BRANCH   2  12
HETATM   12  N   UNL     1     -11.977   9.527  70.406  1.00  0.00    -0.137 NA 
HETATM   13  C   UNL     1     -11.594  10.875  69.995  1.00  0.00    -0.341 C  
HETATM   14  C   UNL     1     -12.593   9.586  71.737  1.00  0.00    -0.405 C  
ENDBRANCH   2  12
TORSDOF 3
ENDMDL
MODEL      131
REMARK 921   NORMALIZED FREE ENERGY PREDICTED BY IDOCK:   -3.31 KCAL/MOL
REMARK 922        TOTAL FREE ENERGY PREDICTED BY IDOCK:   -4.14 KCAL/MOL
REMARK 923 INTER-LIGAND FREE ENERGY PREDICTED BY IDOCK:   -3.83 KCAL/MOL
REMARK 924 INTRA-LIGAND FREE ENERGY PREDICTED BY IDOCK:   -0.32 KCAL/MOL
REMARK 927      BINDING AFFINITY PREDICTED BY RF-SCORE:    0.00 PKD
ROOT
HETATM    1  C   UNL     1      -8.540   7.722  70.074  1.00  0.00    -0.140 C  
HETATM    2  C   UNL     1      -9.296   7.739  71.417  1.00  0.00    -0.141 C  
ENDROOT
BRANCH   2   3
HETATM    3  C   UNL     1     -10.630   6.908  71.295  1.00  0.00    -0.220 C  
HETATM    4  H   UNL     1     -11.567   5.859  69.900  1.00  0.00     0.000 HD 
HETATM    5  O   UNL     1     -10.763   6.361  69.974  1.00  0.00    -0.213 OA 
BRANCH   3   6
HETATM    6  C   UNL     1     -11.940   7.575  71.698  1.00  0.00    -0.333 A  
HETATM    7  C   UNL     1     -13.150   6.865  71.596  1.00  0.00    -0.338 A  
HETATM    8  C   UNL     1     -14.375   7.525  71.750  1.00  0.00    -0.588 A  
HETATM    9  C   UNL     1     -14.409   8.890  72.030  1.00  0.00    -0.406 A  
HETATM   10  C   UNL     1     -13.218   9.590  72.202  1.00  0.00    -0.539 A  
HETATM   11  C   UNL     1     -11.994   8.935  72.048  1.00  0.00    -0.439 A  
ENDBRANCH   3   6
ENDBRANCH   2   3
BRANCH   2  12
HETATM   12  N   UNL     1      -8.387   7.249  72.509  1.00  0.00    -0.106 NA 
HETATM   13  C   UNL     1      -8.678   5.885  72.945  1.00  0.00    -0.124 C  
HETATM   14  C   UNL     1      -8.352   8.132  73.680  1.00  0.00    -0.242 C  
ENDBRANCH   2  12
TORSDOF 3
ENDMDL
MODEL      132
REMARK 921   NORMALIZED FREE ENERGY PREDICTED BY IDOCK:   -3.30 KCAL/MOL
REMARK 922        TOTAL FREE ENERGY PREDICTED BY IDOCK:   -4.14 KCAL/MOL
REMARK 923 INTER-LIGAND FREE ENERGY PREDICTED BY IDOCK:   -3.84 KCAL/MOL
REMARK 924 INTRA-LIGAND FREE ENERGY PREDICTED BY IDOCK:   -0.30 KCAL/MOL
REMARK 927      BINDING AFFINITY PREDICTED BY RF-SCORE:    0.00 PKD
ROOT
HETATM    1  C   UNL     1     -12.406  13.987  66.597  1.00  0.00    -0.408 C  
HETATM    2  C   UNL     1     -11.328  14.922  67.179  1.00  0.00    -0.343 C  
ENDROOT
BRANCH   2   3
HETATM    3  C   UNL     1     -10.711  14.286  68.483  1.00  0.00    -0.255 C  
HETATM    4  H   UNL     1      -9.046  14.466  69.540  1.00  0.00     0.000 HD 
HETATM    5  O   UNL     1      -9.417  14.848  68.754  1.00  0.00    -0.203 OA 
BRANCH   3   6
HETATM    6  C   UNL     1     -10.631  12.767  68.582  1.00  0.00    -0.256 A  
HETATM    7  C   UNL     1      -9.754  12.054  67.745  1.00  0.00    -0.192 A  
HETATM    8  C   UNL     1      -9.826  10.658  67.668  1.00  0.00    -0.191 A  
HETATM    9  C   UNL     1     -10.753   9.957  68.437  1.00  0.00    -0.271 A  
HETATM   10  C   UNL     1     -11.579  10.645  69.321  1.00  0.00    -0.346 A  
HETATM   11  C   UNL     1     -11.511  12.038  69.401  1.00  0.00    -0.361 A  
ENDBRANCH   3   6
ENDBRANCH   2   3
BRANCH   2  12
HETATM   12  N   UNL     1     -10.304  15.222  66.121  1.00  0.00    -0.286 NA 
HETATM   13  C   UNL     1     -10.218  16.639  65.775  1.00  0.00    -0.307 C  
HETATM   14  C   UNL     1     -10.484  14.437  64.894  1.00  0.00    -0.423 C  
ENDBRANCH   2  12
TORSDOF 3
ENDMDL
MODEL      133
REMARK 921   NORMALIZED FREE ENERGY PREDICTED BY IDOCK:   -3.30 KCAL/MOL
REMARK 922        TOTAL FREE ENERGY PREDICTED BY IDOCK:   -4.14 KCAL/MOL
REMARK 923 INTER-LIGAND FREE ENERGY PREDICTED BY IDOCK:   -3.87 KCAL/MOL
REMARK 924 INTRA-LIGAND FREE ENERGY PREDICTED BY IDOCK:   -0.27 KCAL/MOL
REMARK 927      BINDING AFFINITY PREDICTED BY RF-SCORE:    0.00 PKD
ROOT
HETATM    1  C   UNL     1      -8.114   6.655  71.371  1.00  0.00    -0.111 C  
HETATM    2  C   UNL     1      -9.170   7.498  70.629  1.00  0.00    -0.159 C  
ENDROOT
BRANCH   2   3
HETATM    3  C   UNL     1      -9.502   8.797  71.459  1.00  0.00    -0.271 C  
HETATM    4  H   UNL     1      -9.040   9.547  73.233  1.00  0.00     0.000 HD 
HETATM    5  O   UNL     1      -8.840   8.764  72.733  1.00  0.00    -0.382 OA 
BRANCH   3   6
HETATM    6  C   UNL     1     -10.965   9.175  71.661  1.00  0.00    -0.445 A  
HETATM    7  C   UNL     1     -11.782   8.397  72.501  1.00  0.00    -0.429 A  
HETATM    8  C   UNL     1     -13.167   8.596  72.525  1.00  0.00    -0.340 A  
HETATM    9  C   UNL     1     -13.751   9.584  71.734  1.00  0.00    -0.385 A  
HETATM   10  C   UNL     1     -12.947  10.407  70.951  1.00  0.00    -0.475 A  
HETATM   11  C   UNL     1     -11.564  10.211  70.923  1.00  0.00    -0.459 A  
ENDBRANCH   3   6
ENDBRANCH   2   3
BRANCH   2  12
HETATM   12  N   UNL     1      -8.690   7.788  69.236  1.00  0.00    -0.138 NA 
HETATM   13  C   UNL     1      -8.481   9.210  68.972  1.00  0.00    -0.132 C  
HETATM   14  C   UNL     1      -9.554   7.226  68.191  1.00  0.00    -0.140 C  
ENDBRANCH   2  12
TORSDOF 3
ENDMDL
MODEL      134
REMARK 921   NORMALIZED FREE ENERGY PREDICTED BY IDOCK:   -3.30 KCAL/MOL
REMARK 922        TOTAL FREE ENERGY PREDICTED BY IDOCK:   -4.14 KCAL/MOL
REMARK 923 INTER-LIGAND FREE ENERGY PREDICTED BY IDOCK:   -3.84 KCAL/MOL
REMARK 924 INTRA-LIGAND FREE ENERGY PREDICTED BY IDOCK:   -0.30 KCAL/MOL
REMARK 927      BINDING AFFINITY PREDICTED BY RF-SCORE:    0.00 PKD
ROOT
HETATM    1  C   UNL     1     -10.870  16.642  68.198  1.00  0.00    -0.348 C  
HETATM    2  C   UNL     1     -11.687  15.339  68.304  1.00  0.00    -0.301 C  
ENDROOT
BRANCH   2   3
HETATM    3  C   UNL     1     -11.359  14.398  67.082  1.00  0.00    -0.343 C  
HETATM    4  H   UNL     1     -12.328  13.641  65.529  1.00  0.00     0.000 HD 
HETATM    5  O   UNL     1     -12.525  14.208  66.266  1.00  0.00    -0.466 OA 
BRANCH   3   6
HETATM    6  C   UNL     1     -10.713  13.046  67.360  1.00  0.00    -0.256 A  
HETATM    7  C   UNL     1      -9.315  12.945  67.473  1.00  0.00    -0.190 A  
HETATM    8  C   UNL     1      -8.694  11.691  67.508  1.00  0.00    -0.156 A  
HETATM    9  C   UNL     1      -9.457  10.526  67.455  1.00  0.00    -0.166 A  
HETATM   10  C   UNL     1     -10.846  10.611  67.413  1.00  0.00    -0.353 A  
HETATM   11  C   UNL     1     -11.469  11.860  67.377  1.00  0.00    -0.393 A  
ENDBRANCH   3   6
ENDBRANCH   2   3
BRANCH   2  12
HETATM   12  N   UNL     1     -11.430  14.696  69.637  1.00  0.00    -0.275 NA 
HETATM   13  C   UNL     1     -12.639  14.197  70.289  1.00  0.00    -0.306 C  
HETATM   14  C   UNL     1     -10.700  15.560  70.571  1.00  0.00    -0.284 C  
ENDBRANCH   2  12
TORSDOF 3
ENDMDL
MODEL      135
REMARK 921   NORMALIZED FREE ENERGY PREDICTED BY IDOCK:   -3.29 KCAL/MOL
REMARK 922        TOTAL FREE ENERGY PREDICTED BY IDOCK:   -4.12 KCAL/MOL
REMARK 923 INTER-LIGAND FREE ENERGY PREDICTED BY IDOCK:   -3.81 KCAL/MOL
REMARK 924 INTRA-LIGAND FREE ENERGY PREDICTED BY IDOCK:   -0.32 KCAL/MOL
REMARK 927      BINDING AFFINITY PREDICTED BY RF-SCORE:    0.00 PKD
ROOT
HETATM    1  C   UNL     1     -11.421  10.310  70.758  1.00  0.00    -0.438 C  
HETATM    2  C   UNL     1     -10.567   9.048  70.990  1.00  0.00    -0.271 C  
ENDROOT
BRANCH   2   3
HETATM    3  C   UNL     1     -11.502   7.804  71.241  1.00  0.00    -0.269 C  
HETATM    4  H   UNL     1     -13.442   7.459  71.441  1.00  0.00     0.000 HD 
HETATM    5  O   UNL     1     -12.879   8.209  71.290  1.00  0.00    -0.280 OA 
BRANCH   3   6
HETATM    6  C   UNL     1     -11.201   6.897  72.429  1.00  0.00    -0.303 A  
HETATM    7  C   UNL     1     -10.340   7.339  73.449  1.00  0.00    -0.410 A  
HETATM    8  C   UNL     1      -9.882   6.448  74.426  1.00  0.00    -0.338 A  
HETATM    9  C   UNL     1     -10.291   5.116  74.413  1.00  0.00    -0.313 A  
HETATM   10  C   UNL     1     -11.197   4.682  73.449  1.00  0.00    -0.423 A  
HETATM   11  C   UNL     1     -11.656   5.568  72.472  1.00  0.00    -0.272 A  
ENDBRANCH   3   6
ENDBRANCH   2   3
BRANCH   2  12
HETATM   12  N   UNL     1      -9.625   8.863  69.835  1.00  0.00    -0.172 NA 
HETATM   13  C   UNL     1     -10.145   7.984  68.790  1.00  0.00    -0.195 C  
HETATM   14  C   UNL     1      -8.293   8.396  70.237  1.00  0.00    -0.124 C  
ENDBRANCH   2  12
TORSDOF 3
ENDMDL
MODEL      136
REMARK 921   NORMALIZED FREE ENERGY PREDICTED BY IDOCK:   -3.25 KCAL/MOL
REMARK 922        TOTAL FREE ENERGY PREDICTED BY IDOCK:   -4.07 KCAL/MOL
REMARK 923 INTER-LIGAND FREE ENERGY PREDICTED BY IDOCK:   -3.79 KCAL/MOL
REMARK 924 INTRA-LIGAND FREE ENERGY PREDICTED BY IDOCK:   -0.29 KCAL/MOL
REMARK 927      BINDING AFFINITY PREDICTED BY RF-SCORE:    0.00 PKD
ROOT
HETATM    1  C   UNL     1     -10.588   8.139  72.626  1.00  0.00    -0.414 C  
HETATM    2  C   UNL     1     -11.058   9.039  71.466  1.00  0.00    -0.349 C  
ENDROOT
BRANCH   2   3
HETATM    3  C   UNL     1     -10.957   8.254  70.102  1.00  0.00    -0.222 C  
HETATM    4  H   UNL     1     -10.246   6.516  69.473  1.00  0.00     0.000 HD 
HETATM    5  O   UNL     1     -10.306   6.989  70.295  1.00  0.00    -0.198 OA 
BRANCH   3   6
HETATM    6  C   UNL     1     -10.338   8.962  68.902  1.00  0.00    -0.229 A  
HETATM    7  C   UNL     1      -9.789  10.248  69.051  1.00  0.00    -0.215 A  
HETATM    8  C   UNL     1      -9.419  10.996  67.928  1.00  0.00    -0.170 A  
HETATM    9  C   UNL     1      -9.569  10.466  66.648  1.00  0.00    -0.219 A  
HETATM   10  C   UNL     1     -10.047   9.168  66.489  1.00  0.00    -0.357 A  
HETATM   11  C   UNL     1     -10.418   8.418  67.608  1.00  0.00    -0.307 A  
ENDBRANCH   3   6
ENDBRANCH   2   3
BRANCH   2  12
HETATM   12  N   UNL     1     -12.439   9.551  71.758  1.00  0.00    -0.381 NA 
HETATM   13  C   UNL     1     -13.496   8.585  71.466  1.00  0.00    -0.294 C  
HETATM   14  C   UNL     1     -12.746  10.819  71.086  1.00  0.00    -0.431 C  
ENDBRANCH   2  12
TORSDOF 3
ENDMDL
MODEL      137
REMARK 921   NORMALIZED FREE ENERGY PREDICTED BY IDOCK:   -3.23 KCAL/MOL
REMARK 922        TOTAL FREE ENERGY PREDICTED BY IDOCK:   -4.05 KCAL/MOL
REMARK 923 INTER-LIGAND FREE ENERGY PREDICTED BY IDOCK:   -3.79 KCAL/MOL
REMARK 924 INTRA-LIGAND FREE ENERGY PREDICTED BY IDOCK:   -0.26 KCAL/MOL
REMARK 927      BINDING AFFINITY PREDICTED BY RF-SCORE:    0.00 PKD
ROOT
HETATM    1  C   UNL     1      -6.666  16.316  67.330  1.00  0.00    -0.228 C  
HETATM    2  C   UNL     1      -7.975  17.130  67.338  1.00  0.00    -0.180 C  
ENDROOT
BRANCH   2   3
HETATM    3  C   UNL     1      -9.071  16.379  68.188  1.00  0.00    -0.201 C  
HETATM    4  H   UNL     1      -9.121  15.189  69.770  1.00  0.00     0.000 HD 
HETATM    5  O   UNL     1      -8.460  15.641  69.258  1.00  0.00    -0.237 OA 
BRANCH   3   6
HETATM    6  C   UNL     1     -10.064  15.481  67.459  1.00  0.00    -0.241 A  
HETATM    7  C   UNL     1     -10.218  15.590  66.065  1.00  0.00    -0.349 A  
HETATM    8  C   UNL     1     -11.271  14.936  65.415  1.00  0.00    -0.359 A  
HETATM    9  C   UNL     1     -12.167  14.151  66.138  1.00  0.00    -0.465 A  
HETATM   10  C   UNL     1     -11.985  13.979  67.507  1.00  0.00    -0.430 A  
HETATM   11  C   UNL     1     -10.936  14.630  68.160  1.00  0.00    -0.269 A  
ENDBRANCH   3   6
ENDBRANCH   2   3
BRANCH   2  12
HETATM   12  N   UNL     1      -7.694  18.523  67.827  1.00  0.00    -0.231 NA 
HETATM   13  C   UNL     1      -6.811  18.569  68.990  1.00  0.00    -0.274 C  
HETATM   14  C   UNL     1      -8.908  19.297  68.112  1.00  0.00    -0.330 C  
ENDBRANCH   2  12
TORSDOF 3
ENDMDL
MODEL      138
REMARK 921   NORMALIZED FREE ENERGY PREDICTED BY IDOCK:   -3.23 KCAL/MOL
REMARK 922        TOTAL FREE ENERGY PREDICTED BY IDOCK:   -4.05 KCAL/MOL
REMARK 923 INTER-LIGAND FREE ENERGY PREDICTED BY IDOCK:   -3.79 KCAL/MOL
REMARK 924 INTRA-LIGAND FREE ENERGY PREDICTED BY IDOCK:   -0.26 KCAL/MOL
REMARK 927      BINDING AFFINITY PREDICTED BY RF-SCORE:    0.00 PKD
ROOT
HETATM    1  C   UNL     1      -9.439  10.801  65.212  1.00  0.00    -0.263 C  
HETATM    2  C   UNL     1     -10.508  10.770  66.322  1.00  0.00    -0.226 C  
ENDROOT
BRANCH   2   3
HETATM    3  C   UNL     1      -9.904  10.136  67.633  1.00  0.00    -0.172 C  
HETATM    4  H   UNL     1      -8.105   9.736  68.360  1.00  0.00     0.000 HD 
HETATM    5  O   UNL     1      -8.469  10.118  67.570  1.00  0.00    -0.118 OA 
BRANCH   3   6
HETATM    6  C   UNL     1     -10.406   8.767  68.075  1.00  0.00    -0.273 A  
HETATM    7  C   UNL     1     -10.380   8.414  69.436  1.00  0.00    -0.217 A  
HETATM    8  C   UNL     1     -10.627   7.095  69.832  1.00  0.00    -0.246 A  
HETATM    9  C   UNL     1     -10.926   6.119  68.884  1.00  0.00    -0.424 A  
HETATM   10  C   UNL     1     -11.024   6.468  67.540  1.00  0.00    -0.444 A  
HETATM   11  C   UNL     1     -10.776   7.784  67.140  1.00  0.00    -0.337 A  
ENDBRANCH   3   6
ENDBRANCH   2   3
BRANCH   2  12
HETATM   12  N   UNL     1     -11.055  12.154  66.527  1.00  0.00    -0.291 NA 
HETATM   13  C   UNL     1     -11.753  12.326  67.799  1.00  0.00    -0.337 C  
HETATM   14  C   UNL     1     -11.926  12.605  65.436  1.00  0.00    -0.446 C  
ENDBRANCH   2  12
TORSDOF 3
ENDMDL
MODEL      139
REMARK 921   NORMALIZED FREE ENERGY PREDICTED BY IDOCK:   -3.22 KCAL/MOL
REMARK 922        TOTAL FREE ENERGY PREDICTED BY IDOCK:   -4.05 KCAL/MOL
REMARK 923 INTER-LIGAND FREE ENERGY PREDICTED BY IDOCK:   -3.84 KCAL/MOL
REMARK 924 INTRA-LIGAND FREE ENERGY PREDICTED BY IDOCK:   -0.21 KCAL/MOL
REMARK 927      BINDING AFFINITY PREDICTED BY RF-SCORE:    0.00 PKD
ROOT
HETATM    1  C   UNL     1      -8.791  15.258  68.790  1.00  0.00    -0.192 C  
HETATM    2  C   UNL     1      -9.043  16.779  68.794  1.00  0.00    -0.259 C  
ENDROOT
BRANCH   2   3
HETATM    3  C   UNL     1      -8.126  17.480  67.721  1.00  0.00    -0.221 C  
HETATM    4  H   UNL     1      -6.655  16.958  66.502  1.00  0.00     0.000 HD 
HETATM    5  O   UNL     1      -7.208  16.535  67.149  1.00  0.00    -0.149 OA 
BRANCH   3   6
HETATM    6  C   UNL     1      -7.366  18.738  68.127  1.00  0.00    -0.281 A  
HETATM    7  C   UNL     1      -7.454  19.897  67.334  1.00  0.00    -0.307 A  
HETATM    8  C   UNL     1      -6.600  20.981  67.567  1.00  0.00    -0.438 A  
HETATM    9  C   UNL     1      -5.667  20.934  68.601  1.00  0.00    -0.387 A  
HETATM   10  C   UNL     1      -5.617  19.821  69.436  1.00  0.00    -0.256 A  
HETATM   11  C   UNL     1      -6.467  18.737  69.207  1.00  0.00    -0.301 A  
ENDBRANCH   3   6
ENDBRANCH   2   3
BRANCH   2  12
HETATM   12  N   UNL     1     -10.508  17.042  68.589  1.00  0.00    -0.342 NA 
HETATM   13  C   UNL     1     -11.294  15.833  68.353  1.00  0.00    -0.372 C  
HETATM   14  C   UNL     1     -10.783  18.010  67.521  1.00  0.00    -0.336 C  
ENDBRANCH   2  12
TORSDOF 3
ENDMDL
MODEL      140
REMARK 921   NORMALIZED FREE ENERGY PREDICTED BY IDOCK:   -3.22 KCAL/MOL
REMARK 922        TOTAL FREE ENERGY PREDICTED BY IDOCK:   -4.04 KCAL/MOL
REMARK 923 INTER-LIGAND FREE ENERGY PREDICTED BY IDOCK:   -3.72 KCAL/MOL
REMARK 924 INTRA-LIGAND FREE ENERGY PREDICTED BY IDOCK:   -0.32 KCAL/MOL
REMARK 927      BINDING AFFINITY PREDICTED BY RF-SCORE:    0.00 PKD
ROOT
HETATM    1  C   UNL     1     -11.122  16.842  68.142  1.00  0.00    -0.254 C  
HETATM    2  C   UNL     1      -9.633  16.902  67.748  1.00  0.00    -0.249 C  
ENDROOT
BRANCH   2   3
HETATM    3  C   UNL     1      -8.945  18.144  68.434  1.00  0.00    -0.293 C  
HETATM    4  H   UNL     1      -9.518  19.773  69.403  1.00  0.00     0.000 HD 
HETATM    5  O   UNL     1      -9.933  19.025  68.989  1.00  0.00    -0.402 OA 
BRANCH   3   6
HETATM    6  C   UNL     1      -7.943  18.957  67.623  1.00  0.00    -0.273 A  
HETATM    7  C   UNL     1      -7.333  20.090  68.192  1.00  0.00    -0.315 A  
HETATM    8  C   UNL     1      -6.586  20.968  67.398  1.00  0.00    -0.439 A  
HETATM    9  C   UNL     1      -6.419  20.718  66.037  1.00  0.00    -0.269 A  
HETATM   10  C   UNL     1      -6.959  19.564  65.475  1.00  0.00    -0.299 A  
HETATM   11  C   UNL     1      -7.705  18.686  66.264  1.00  0.00    -0.290 A  
ENDBRANCH   3   6
ENDBRANCH   2   3
BRANCH   2  12
HETATM   12  N   UNL     1      -8.974  15.595  68.084  1.00  0.00    -0.178 NA 
HETATM   13  C   UNL     1      -8.156  15.645  69.294  1.00  0.00    -0.244 C  
HETATM   14  C   UNL     1      -8.175  15.044  66.984  1.00  0.00    -0.213 C  
ENDBRANCH   2  12
TORSDOF 3
ENDMDL
MODEL      141
REMARK 921   NORMALIZED FREE ENERGY PREDICTED BY IDOCK:   -3.21 KCAL/MOL
REMARK 922        TOTAL FREE ENERGY PREDICTED BY IDOCK:   -4.04 KCAL/MOL
REMARK 923 INTER-LIGAND FREE ENERGY PREDICTED BY IDOCK:   -3.71 KCAL/MOL
REMARK 924 INTRA-LIGAND FREE ENERGY PREDICTED BY IDOCK:   -0.33 KCAL/MOL
REMARK 927      BINDING AFFINITY PREDICTED BY RF-SCORE:    0.00 PKD
ROOT
HETATM    1  C   UNL     1     -10.656   7.616  67.617  1.00  0.00    -0.294 C  
HETATM    2  C   UNL     1     -10.042   8.854  68.302  1.00  0.00    -0.187 C  
ENDROOT
BRANCH   2   3
HETATM    3  C   UNL     1     -10.499   8.917  69.809  1.00  0.00    -0.212 C  
HETATM    4  H   UNL     1     -11.297   7.686  71.140  1.00  0.00     0.000 HD 
HETATM    5  O   UNL     1     -11.022   7.648  70.231  1.00  0.00    -0.251 OA 
BRANCH   3   6
HETATM    6  C   UNL     1     -11.460  10.023  70.230  1.00  0.00    -0.372 A  
HETATM    7  C   UNL     1     -11.420  11.272  69.584  1.00  0.00    -0.380 A  
HETATM    8  C   UNL     1     -12.135  12.360  70.099  1.00  0.00    -0.366 A  
HETATM    9  C   UNL     1     -12.914  12.213  71.245  1.00  0.00    -0.303 A  
HETATM   10  C   UNL     1     -13.017  10.965  71.855  1.00  0.00    -0.502 A  
HETATM   11  C   UNL     1     -12.304   9.877  71.345  1.00  0.00    -0.498 A  
ENDBRANCH   3   6
ENDBRANCH   2   3
BRANCH   2  12
HETATM   12  N   UNL     1      -8.550   8.831  68.132  1.00  0.00    -0.133 NA 
HETATM   13  C   UNL     1      -7.987   7.483  68.078  1.00  0.00    -0.123 C  
HETATM   14  C   UNL     1      -7.835   9.611  69.148  1.00  0.00    -0.090 C  
ENDBRANCH   2  12
TORSDOF 3
ENDMDL
MODEL      142
REMARK 921   NORMALIZED FREE ENERGY PREDICTED BY IDOCK:   -3.21 KCAL/MOL
REMARK 922        TOTAL FREE ENERGY PREDICTED BY IDOCK:   -4.04 KCAL/MOL
REMARK 923 INTER-LIGAND FREE ENERGY PREDICTED BY IDOCK:   -3.81 KCAL/MOL
REMARK 924 INTRA-LIGAND FREE ENERGY PREDICTED BY IDOCK:   -0.22 KCAL/MOL
REMARK 927      BINDING AFFINITY PREDICTED BY RF-SCORE:    0.00 PKD
ROOT
HETATM    1  C   UNL     1      -9.319  17.120  66.355  1.00  0.00    -0.286 C  
HETATM    2  C   UNL     1     -10.310  17.439  67.491  1.00  0.00    -0.351 C  
ENDROOT
BRANCH   2   3
HETATM    3  C   UNL     1     -11.116  16.142  67.882  1.00  0.00    -0.293 C  
HETATM    4  H   UNL     1     -11.899  15.355  69.523  1.00  0.00     0.000 HD 
HETATM    5  O   UNL     1     -11.413  16.137  69.287  1.00  0.00    -0.334 OA 
BRANCH   3   6
HETATM    6  C   UNL     1     -10.545  14.785  67.484  1.00  0.00    -0.259 A  
HETATM    7  C   UNL     1      -9.400  14.287  68.131  1.00  0.00    -0.206 A  
HETATM    8  C   UNL     1      -8.739  13.158  67.634  1.00  0.00    -0.192 A  
HETATM    9  C   UNL     1      -9.221  12.500  66.504  1.00  0.00    -0.210 A  
HETATM   10  C   UNL     1     -10.392  12.941  65.895  1.00  0.00    -0.297 A  
HETATM   11  C   UNL     1     -11.055  14.068  66.387  1.00  0.00    -0.316 A  
ENDBRANCH   3   6
ENDBRANCH   2   3
BRANCH   2  12
HETATM   12  N   UNL     1      -9.567  18.050  68.646  1.00  0.00    -0.327 NA 
HETATM   13  C   UNL     1      -9.981  19.417  68.952  1.00  0.00    -0.445 C  
HETATM   14  C   UNL     1      -8.109  18.012  68.488  1.00  0.00    -0.298 C  
ENDBRANCH   2  12
TORSDOF 3
ENDMDL
MODEL      143
REMARK 921   NORMALIZED FREE ENERGY PREDICTED BY IDOCK:   -3.21 KCAL/MOL
REMARK 922        TOTAL FREE ENERGY PREDICTED BY IDOCK:   -4.03 KCAL/MOL
REMARK 923 INTER-LIGAND FREE ENERGY PREDICTED BY IDOCK:   -3.74 KCAL/MOL
REMARK 924 INTRA-LIGAND FREE ENERGY PREDICTED BY IDOCK:   -0.30 KCAL/MOL
REMARK 927      BINDING AFFINITY PREDICTED BY RF-SCORE:    0.00 PKD
ROOT
HETATM    1  C   UNL     1     -10.067  10.491  69.315  1.00  0.00    -0.244 C  
HETATM    2  C   UNL     1     -11.280   9.752  69.914  1.00  0.00    -0.229 C  
ENDROOT
BRANCH   2   3
HETATM    3  C   UNL     1     -10.834   8.926  71.181  1.00  0.00    -0.281 C  
HETATM    4  H   UNL     1      -9.323   8.929  72.461  1.00  0.00     0.000 HD 
HETATM    5  O   UNL     1      -9.591   9.427  71.697  1.00  0.00    -0.260 OA 
BRANCH   3   6
HETATM    6  C   UNL     1     -10.757   7.408  71.067  1.00  0.00    -0.244 A  
HETATM    7  C   UNL     1     -10.493   6.630  72.209  1.00  0.00    -0.229 A  
HETATM    8  C   UNL     1     -10.202   5.267  72.087  1.00  0.00    -0.252 A  
HETATM    9  C   UNL     1     -10.194   4.657  70.834  1.00  0.00    -0.213 A  
HETATM   10  C   UNL     1     -10.521   5.400  69.703  1.00  0.00    -0.361 A  
HETATM   11  C   UNL     1     -10.811   6.761  69.820  1.00  0.00    -0.316 A  
ENDBRANCH   3   6
ENDBRANCH   2   3
BRANCH   2  12
HETATM   12  N   UNL     1     -12.375  10.739  70.201  1.00  0.00    -0.331 NA 
HETATM   13  C   UNL     1     -11.974  12.131  70.012  1.00  0.00    -0.315 C  
HETATM   14  C   UNL     1     -12.965  10.585  71.536  1.00  0.00    -0.460 C  
ENDBRANCH   2  12
TORSDOF 3
ENDMDL
MODEL      144
REMARK 921   NORMALIZED FREE ENERGY PREDICTED BY IDOCK:   -3.17 KCAL/MOL
REMARK 922        TOTAL FREE ENERGY PREDICTED BY IDOCK:   -3.98 KCAL/MOL
REMARK 923 INTER-LIGAND FREE ENERGY PREDICTED BY IDOCK:   -3.65 KCAL/MOL
REMARK 924 INTRA-LIGAND FREE ENERGY PREDICTED BY IDOCK:   -0.33 KCAL/MOL
REMARK 927      BINDING AFFINITY PREDICTED BY RF-SCORE:    0.00 PKD
ROOT
HETATM    1  C   UNL     1     -10.503  16.837  65.781  1.00  0.00    -0.305 C  
HETATM    2  C   UNL     1      -9.615  15.756  66.429  1.00  0.00    -0.285 C  
ENDROOT
BRANCH   2   3
HETATM    3  C   UNL     1      -8.120  16.251  66.486  1.00  0.00    -0.302 C  
HETATM    4  H   UNL     1      -6.410  15.626  67.268  1.00  0.00     0.000 HD 
HETATM    5  O   UNL     1      -7.312  15.328  67.233  1.00  0.00    -0.199 OA 
BRANCH   3   6
HETATM    6  C   UNL     1      -7.843  17.669  66.972  1.00  0.00    -0.239 A  
HETATM    7  C   UNL     1      -7.457  18.663  66.054  1.00  0.00    -0.265 A  
HETATM    8  C   UNL     1      -6.989  19.902  66.505  1.00  0.00    -0.250 A  
HETATM    9  C   UNL     1      -6.923  20.176  67.870  1.00  0.00    -0.316 A  
HETATM   10  C   UNL     1      -7.368  19.227  68.787  1.00  0.00    -0.381 A  
HETATM   11  C   UNL     1      -7.834  17.988  68.341  1.00  0.00    -0.300 A  
ENDBRANCH   3   6
ENDBRANCH   2   3
BRANCH   2  12
HETATM   12  N   UNL     1     -10.175  15.391  67.774  1.00  0.00    -0.238 NA 
HETATM   13  C   UNL     1     -10.625  14.004  67.865  1.00  0.00    -0.244 C  
HETATM   14  C   UNL     1     -11.256  16.278  68.217  1.00  0.00    -0.324 C  
ENDBRANCH   2  12
TORSDOF 3
ENDMDL
MODEL      145
REMARK 921   NORMALIZED FREE ENERGY PREDICTED BY IDOCK:   -3.14 KCAL/MOL
REMARK 922        TOTAL FREE ENERGY PREDICTED BY IDOCK:   -3.95 KCAL/MOL
REMARK 923 INTER-LIGAND FREE ENERGY PREDICTED BY IDOCK:   -3.70 KCAL/MOL
REMARK 924 INTRA-LIGAND FREE ENERGY PREDICTED BY IDOCK:   -0.25 KCAL/MOL
REMARK 927      BINDING AFFINITY PREDICTED BY RF-SCORE:    0.00 PKD
ROOT
HETATM    1  C   UNL     1     -11.999  14.200  65.677  1.00  0.00    -0.401 C  
HETATM    2  C   UNL     1     -11.196  12.905  65.905  1.00  0.00    -0.293 C  
ENDROOT
BRANCH   2   3
HETATM    3  C   UNL     1     -11.438  12.373  67.370  1.00  0.00    -0.352 C  
HETATM    4  H   UNL     1     -12.215  13.060  69.057  1.00  0.00     0.000 HD 
HETATM    5  O   UNL     1     -12.068  13.381  68.174  1.00  0.00    -0.335 OA 
BRANCH   3   6
HETATM    6  C   UNL     1     -10.256  11.785  68.133  1.00  0.00    -0.210 A  
HETATM    7  C   UNL     1      -8.950  12.222  67.848  1.00  0.00    -0.186 A  
HETATM    8  C   UNL     1      -7.845  11.544  68.376  1.00  0.00    -0.136 A  
HETATM    9  C   UNL     1      -8.027  10.441  69.208  1.00  0.00    -0.157 A  
HETATM   10  C   UNL     1      -9.315  10.040  69.553  1.00  0.00    -0.247 A  
HETATM   11  C   UNL     1     -10.420  10.714  69.028  1.00  0.00    -0.237 A  
ENDBRANCH   3   6
ENDBRANCH   2   3
BRANCH   2  12
HETATM   12  N   UNL     1     -11.549  11.904  64.842  1.00  0.00    -0.271 NA 
HETATM   13  C   UNL     1     -10.401  11.156  64.337  1.00  0.00    -0.344 C  
HETATM   14  C   UNL     1     -12.279  12.487  63.711  1.00  0.00    -0.525 C  
ENDBRANCH   2  12
TORSDOF 3
ENDMDL
MODEL      146
REMARK 921   NORMALIZED FREE ENERGY PREDICTED BY IDOCK:   -3.13 KCAL/MOL
REMARK 922        TOTAL FREE ENERGY PREDICTED BY IDOCK:   -3.94 KCAL/MOL
REMARK 923 INTER-LIGAND FREE ENERGY PREDICTED BY IDOCK:   -3.75 KCAL/MOL
REMARK 924 INTRA-LIGAND FREE ENERGY PREDICTED BY IDOCK:   -0.19 KCAL/MOL
REMARK 927      BINDING AFFINITY PREDICTED BY RF-SCORE:    0.00 PKD
ROOT
HETATM    1  C   UNL     1     -10.800   9.299  71.344  1.00  0.00    -0.434 C  
HETATM    2  C   UNL     1     -10.908   8.854  69.872  1.00  0.00    -0.211 C  
ENDROOT
BRANCH   2   3
HETATM    3  C   UNL     1      -9.842   9.620  68.998  1.00  0.00    -0.182 C  
HETATM    4  H   UNL     1      -8.165  10.628  69.303  1.00  0.00     0.000 HD 
HETATM    5  O   UNL     1      -8.808  10.168  69.830  1.00  0.00    -0.193 OA 
BRANCH   3   6
HETATM    6  C   UNL     1     -10.332  10.691  68.030  1.00  0.00    -0.208 A  
HETATM    7  C   UNL     1     -11.179  11.717  68.488  1.00  0.00    -0.312 A  
HETATM    8  C   UNL     1     -11.809  12.574  67.579  1.00  0.00    -0.389 A  
HETATM    9  C   UNL     1     -11.588  12.436  66.210  1.00  0.00    -0.449 A  
HETATM   10  C   UNL     1     -10.698  11.470  65.748  1.00  0.00    -0.325 A  
HETATM   11  C   UNL     1     -10.067  10.612  66.652  1.00  0.00    -0.270 A  
ENDBRANCH   3   6
ENDBRANCH   2   3
BRANCH   2  12
HETATM   12  N   UNL     1     -10.783   7.360  69.791  1.00  0.00    -0.240 NA 
HETATM   13  C   UNL     1     -11.822   6.644  70.527  1.00  0.00    -0.370 C  
HETATM   14  C   UNL     1      -9.467   6.861  70.208  1.00  0.00    -0.162 C  
ENDBRANCH   2  12
TORSDOF 3
ENDMDL
MODEL      147
REMARK 921   NORMALIZED FREE ENERGY PREDICTED BY IDOCK:   -3.12 KCAL/MOL
REMARK 922        TOTAL FREE ENERGY PREDICTED BY IDOCK:   -3.93 KCAL/MOL
REMARK 923 INTER-LIGAND FREE ENERGY PREDICTED BY IDOCK:   -3.63 KCAL/MOL
REMARK 924 INTRA-LIGAND FREE ENERGY PREDICTED BY IDOCK:   -0.30 KCAL/MOL
REMARK 927      BINDING AFFINITY PREDICTED BY RF-SCORE:    0.00 PKD
ROOT
HETATM    1  C   UNL     1     -11.683  13.384  68.747  1.00  0.00    -0.377 C  
HETATM    2  C   UNL     1     -10.379  13.933  68.134  1.00  0.00    -0.247 C  
ENDROOT
BRANCH   2   3
HETATM    3  C   UNL     1      -9.304  12.785  68.037  1.00  0.00    -0.213 C  
HETATM    4  H   UNL     1      -7.514  12.533  67.228  1.00  0.00     0.000 HD 
HETATM    5  O   UNL     1      -8.162  13.225  67.286  1.00  0.00    -0.177 OA 
BRANCH   3   6
HETATM    6  C   UNL     1      -9.746  11.418  67.526  1.00  0.00    -0.191 A  
HETATM    7  C   UNL     1      -9.976  10.369  68.435  1.00  0.00    -0.177 A  
HETATM    8  C   UNL     1     -10.166   9.061  67.975  1.00  0.00    -0.260 A  
HETATM    9  C   UNL     1     -10.153   8.786  66.609  1.00  0.00    -0.358 A  
HETATM   10  C   UNL     1      -9.997   9.825  65.696  1.00  0.00    -0.352 A  
HETATM   11  C   UNL     1      -9.806  11.132  66.151  1.00  0.00    -0.265 A  
ENDBRANCH   3   6
ENDBRANCH   2   3
BRANCH   2  12
HETATM   12  N   UNL     1     -10.682  14.579  66.812  1.00  0.00    -0.287 NA 
HETATM   13  C   UNL     1     -10.635  16.039  66.849  1.00  0.00    -0.300 C  
HETATM   14  C   UNL     1     -11.962  14.153  66.234  1.00  0.00    -0.429 C  
ENDBRANCH   2  12
TORSDOF 3
ENDMDL
MODEL      148
REMARK 921   NORMALIZED FREE ENERGY PREDICTED BY IDOCK:   -3.11 KCAL/MOL
REMARK 922        TOTAL FREE ENERGY PREDICTED BY IDOCK:   -3.92 KCAL/MOL
REMARK 923 INTER-LIGAND FREE ENERGY PREDICTED BY IDOCK:   -3.86 KCAL/MOL
REMARK 924 INTRA-LIGAND FREE ENERGY PREDICTED BY IDOCK:   -0.06 KCAL/MOL
REMARK 927      BINDING AFFINITY PREDICTED BY RF-SCORE:    0.00 PKD
ROOT
HETATM    1  C   UNL     1     -11.742  14.689  69.576  1.00  0.00    -0.366 C  
HETATM    2  C   UNL     1     -11.254  13.262  69.256  1.00  0.00    -0.208 C  
ENDROOT
BRANCH   2   3
HETATM    3  C   UNL     1     -12.244  12.203  69.876  1.00  0.00    -0.170 C  
HETATM    4  H   UNL     1     -13.425  12.069  71.460  1.00  0.00     0.000 HD 
HETATM    5  O   UNL     1     -12.828  12.707  71.087  1.00  0.00    -0.324 OA 
BRANCH   3   6
HETATM    6  C   UNL     1     -11.734  10.786  70.114  1.00  0.00    -0.425 A  
HETATM    7  C   UNL     1     -10.724  10.256  69.292  1.00  0.00    -0.265 A  
HETATM    8  C   UNL     1     -10.401   8.895  69.353  1.00  0.00    -0.217 A  
HETATM    9  C   UNL     1     -11.062   8.054  70.246  1.00  0.00    -0.224 A  
HETATM   10  C   UNL     1     -12.015   8.579  71.114  1.00  0.00    -0.306 A  
HETATM   11  C   UNL     1     -12.341   9.936  71.056  1.00  0.00    -0.451 A  
ENDBRANCH   3   6
ENDBRANCH   2   3
BRANCH   2  12
HETATM   12  N   UNL     1     -11.077  13.115  67.772  1.00  0.00    -0.253 NA 
HETATM   13  C   UNL     1      -9.742  13.480  67.302  1.00  0.00    -0.236 C  
HETATM   14  C   UNL     1     -12.080  13.847  66.989  1.00  0.00    -0.415 C  
ENDBRANCH   2  12
TORSDOF 3
ENDMDL
MODEL      149
REMARK 921   NORMALIZED FREE ENERGY PREDICTED BY IDOCK:   -3.11 KCAL/MOL
REMARK 922        TOTAL FREE ENERGY PREDICTED BY IDOCK:   -3.92 KCAL/MOL
REMARK 923 INTER-LIGAND FREE ENERGY PREDICTED BY IDOCK:   -3.66 KCAL/MOL
REMARK 924 INTRA-LIGAND FREE ENERGY PREDICTED BY IDOCK:   -0.25 KCAL/MOL
REMARK 927      BINDING AFFINITY PREDICTED BY RF-SCORE:    0.00 PKD
ROOT
HETATM    1  C   UNL     1     -12.103  14.479  64.644  1.00  0.00    -0.486 C  
HETATM    2  C   UNL     1     -10.652  14.122  65.023  1.00  0.00    -0.419 C  
ENDROOT
BRANCH   2   3
HETATM    3  C   UNL     1     -10.340  14.618  66.487  1.00  0.00    -0.282 C  
HETATM    4  H   UNL     1     -10.677  16.237  67.576  1.00  0.00     0.000 HD 
HETATM    5  O   UNL     1     -10.865  15.938  66.694  1.00  0.00    -0.301 OA 
BRANCH   3   6
HETATM    6  C   UNL     1      -8.898  14.566  66.978  1.00  0.00    -0.256 A  
HETATM    7  C   UNL     1      -8.480  13.521  67.821  1.00  0.00    -0.184 A  
HETATM    8  C   UNL     1      -7.233  13.575  68.454  1.00  0.00    -0.109 A  
HETATM    9  C   UNL     1      -6.380  14.656  68.240  1.00  0.00    -0.124 A  
HETATM   10  C   UNL     1      -6.752  15.664  67.354  1.00  0.00    -0.218 A  
HETATM   11  C   UNL     1      -7.996  15.613  66.720  1.00  0.00    -0.246 A  
ENDBRANCH   3   6
ENDBRANCH   2   3
BRANCH   2  12
HETATM   12  N   UNL     1     -10.435  12.648  64.834  1.00  0.00    -0.299 NA 
HETATM   13  C   UNL     1     -10.697  12.186  63.473  1.00  0.00    -0.457 C  
HETATM   14  C   UNL     1     -11.195  11.820  65.778  1.00  0.00    -0.281 C  
ENDBRANCH   2  12
TORSDOF 3
ENDMDL
MODEL      150
REMARK 921   NORMALIZED FREE ENERGY PREDICTED BY IDOCK:   -3.09 KCAL/MOL
REMARK 922        TOTAL FREE ENERGY PREDICTED BY IDOCK:   -3.89 KCAL/MOL
REMARK 923 INTER-LIGAND FREE ENERGY PREDICTED BY IDOCK:   -3.73 KCAL/MOL
REMARK 924 INTRA-LIGAND FREE ENERGY PREDICTED BY IDOCK:   -0.15 KCAL/MOL
REMARK 927      BINDING AFFINITY PREDICTED BY RF-SCORE:    0.00 PKD
ROOT
HETATM    1  C   UNL     1      -9.622   9.538  65.702  1.00  0.00    -0.346 C  
HETATM    2  C   UNL     1      -9.981  10.342  64.437  1.00  0.00    -0.318 C  
ENDROOT
BRANCH   2   3
HETATM    3  C   UNL     1     -11.063  11.435  64.782  1.00  0.00    -0.188 C  
HETATM    4  H   UNL     1     -12.537  12.370  63.845  1.00  0.00     0.000 HD 
HETATM    5  O   UNL     1     -11.884  11.712  63.637  1.00  0.00    -0.420 OA 
BRANCH   3   6
HETATM    6  C   UNL     1     -10.596  12.750  65.397  1.00  0.00    -0.309 A  
HETATM    7  C   UNL     1     -10.780  13.956  64.697  1.00  0.00    -0.422 A  
HETATM    8  C   UNL     1     -10.167  15.134  65.141  1.00  0.00    -0.386 A  
HETATM    9  C   UNL     1      -9.385  15.130  66.295  1.00  0.00    -0.348 A  
HETATM   10  C   UNL     1      -9.252  13.958  67.035  1.00  0.00    -0.257 A  
HETATM   11  C   UNL     1      -9.862  12.780  66.595  1.00  0.00    -0.250 A  
ENDBRANCH   3   6
ENDBRANCH   2   3
BRANCH   2  12
HETATM   12  N   UNL     1      -8.728  10.914  63.835  1.00  0.00    -0.068 NA 
HETATM   13  C   UNL     1      -8.789  11.059  62.383  1.00  0.00    -0.307 C  
HETATM   14  C   UNL     1      -7.516  10.169  64.195  1.00  0.00    -0.114 C  
ENDBRANCH   2  12
TORSDOF 3
ENDMDL
MODEL      151
REMARK 921   NORMALIZED FREE ENERGY PREDICTED BY IDOCK:   -3.08 KCAL/MOL
REMARK 922        TOTAL FREE ENERGY PREDICTED BY IDOCK:   -3.88 KCAL/MOL
REMARK 923 INTER-LIGAND FREE ENERGY PREDICTED BY IDOCK:   -3.64 KCAL/MOL
REMARK 924 INTRA-LIGAND FREE ENERGY PREDICTED BY IDOCK:   -0.24 KCAL/MOL
REMARK 927      BINDING AFFINITY PREDICTED BY RF-SCORE:    0.00 PKD
ROOT
HETATM    1  C   UNL     1     -11.761  13.163  67.545  1.00  0.00    -0.414 C  
HETATM    2  C   UNL     1     -10.971  14.208  66.733  1.00  0.00    -0.300 C  
ENDROOT
BRANCH   2   3
HETATM    3  C   UNL     1      -9.519  14.366  67.328  1.00  0.00    -0.215 C  
HETATM    4  H   UNL     1      -8.663  14.294  69.113  1.00  0.00     0.000 HD 
HETATM    5  O   UNL     1      -9.538  14.199  68.754  1.00  0.00    -0.199 OA 
BRANCH   3   6
HETATM    6  C   UNL     1      -8.724  15.619  66.978  1.00  0.00    -0.256 A  
HETATM    7  C   UNL     1      -7.319  15.601  67.046  1.00  0.00    -0.203 A  
HETATM    8  C   UNL     1      -6.589  16.791  66.943  1.00  0.00    -0.248 A  
HETATM    9  C   UNL     1      -7.245  18.005  66.750  1.00  0.00    -0.238 A  
HETATM   10  C   UNL     1      -8.630  18.028  66.612  1.00  0.00    -0.281 A  
HETATM   11  C   UNL     1      -9.362  16.843  66.714  1.00  0.00    -0.267 A  
ENDBRANCH   3   6
ENDBRANCH   2   3
BRANCH   2  12
HETATM   12  N   UNL     1     -10.981  13.824  65.281  1.00  0.00    -0.310 NA 
HETATM   13  C   UNL     1     -11.806  14.697  64.450  1.00  0.00    -0.390 C  
HETATM   14  C   UNL     1     -11.371  12.428  65.049  1.00  0.00    -0.320 C  
ENDBRANCH   2  12
TORSDOF 3
ENDMDL
MODEL      152
REMARK 921   NORMALIZED FREE ENERGY PREDICTED BY IDOCK:   -3.06 KCAL/MOL
REMARK 922        TOTAL FREE ENERGY PREDICTED BY IDOCK:   -3.86 KCAL/MOL
REMARK 923 INTER-LIGAND FREE ENERGY PREDICTED BY IDOCK:   -3.55 KCAL/MOL
REMARK 924 INTRA-LIGAND FREE ENERGY PREDICTED BY IDOCK:   -0.31 KCAL/MOL
REMARK 927      BINDING AFFINITY PREDICTED BY RF-SCORE:    0.00 PKD
ROOT
HETATM    1  C   UNL     1      -9.966   8.618  66.265  1.00  0.00    -0.287 C  
HETATM    2  C   UNL     1     -10.590   9.456  67.398  1.00  0.00    -0.258 C  
ENDROOT
BRANCH   2   3
HETATM    3  C   UNL     1      -9.913   9.090  68.774  1.00  0.00    -0.182 C  
HETATM    4  H   UNL     1      -8.446   7.920  69.407  1.00  0.00     0.000 HD 
HETATM    5  O   UNL     1      -8.855   8.140  68.578  1.00  0.00    -0.134 OA 
BRANCH   3   6
HETATM    6  C   UNL     1     -10.803   8.624  69.920  1.00  0.00    -0.210 A  
HETATM    7  C   UNL     1     -11.419   9.569  70.761  1.00  0.00    -0.378 A  
HETATM    8  C   UNL     1     -12.055   9.162  71.939  1.00  0.00    -0.448 A  
HETATM    9  C   UNL     1     -12.105   7.813  72.283  1.00  0.00    -0.332 A  
HETATM   10  C   UNL     1     -11.561   6.861  71.425  1.00  0.00    -0.340 A  
HETATM   11  C   UNL     1     -10.925   7.263  70.248  1.00  0.00    -0.281 A  
ENDBRANCH   3   6
ENDBRANCH   2   3
BRANCH   2  12
HETATM   12  N   UNL     1     -10.490  10.915  67.054  1.00  0.00    -0.232 NA 
HETATM   13  C   UNL     1      -9.181  11.496  67.341  1.00  0.00    -0.166 C  
HETATM   14  C   UNL     1     -11.531  11.736  67.684  1.00  0.00    -0.300 C  
ENDBRANCH   2  12
TORSDOF 3
ENDMDL
MODEL      153
REMARK 921   NORMALIZED FREE ENERGY PREDICTED BY IDOCK:   -3.03 KCAL/MOL
REMARK 922        TOTAL FREE ENERGY PREDICTED BY IDOCK:   -3.82 KCAL/MOL
REMARK 923 INTER-LIGAND FREE ENERGY PREDICTED BY IDOCK:   -3.53 KCAL/MOL
REMARK 924 INTRA-LIGAND FREE ENERGY PREDICTED BY IDOCK:   -0.29 KCAL/MOL
REMARK 927      BINDING AFFINITY PREDICTED BY RF-SCORE:    0.00 PKD
ROOT
HETATM    1  C   UNL     1     -12.283  15.287  69.799  1.00  0.00    -0.326 C  
HETATM    2  C   UNL     1     -11.569  15.676  68.490  1.00  0.00    -0.370 C  
ENDROOT
BRANCH   2   3
HETATM    3  C   UNL     1     -10.429  16.724  68.790  1.00  0.00    -0.338 C  
HETATM    4  H   UNL     1     -10.161  18.676  68.594  1.00  0.00     0.000 HD 
HETATM    5  O   UNL     1     -10.848  18.045  68.413  1.00  0.00    -0.209 OA 
BRANCH   3   6
HETATM    6  C   UNL     1      -9.035  16.458  68.233  1.00  0.00    -0.206 A  
HETATM    7  C   UNL     1      -8.049  15.884  69.054  1.00  0.00    -0.229 A  
HETATM    8  C   UNL     1      -6.715  15.836  68.633  1.00  0.00    -0.117 A  
HETATM    9  C   UNL     1      -6.352  16.338  67.385  1.00  0.00    -0.206 A  
HETATM   10  C   UNL     1      -7.329  16.846  66.534  1.00  0.00    -0.317 A  
HETATM   11  C   UNL     1      -8.661  16.896  66.951  1.00  0.00    -0.248 A  
ENDBRANCH   3   6
ENDBRANCH   2   3
BRANCH   2  12
HETATM   12  N   UNL     1     -11.072  14.435  67.804  1.00  0.00    -0.278 NA 
HETATM   13  C   UNL     1     -11.792  14.118  66.573  1.00  0.00    -0.419 C  
HETATM   14  C   UNL     1     -11.060  13.253  68.673  1.00  0.00    -0.268 C  
ENDBRANCH   2  12
TORSDOF 3
ENDMDL
MODEL      154
REMARK 921   NORMALIZED FREE ENERGY PREDICTED BY IDOCK:   -3.01 KCAL/MOL
REMARK 922        TOTAL FREE ENERGY PREDICTED BY IDOCK:   -3.80 KCAL/MOL
REMARK 923 INTER-LIGAND FREE ENERGY PREDICTED BY IDOCK:   -3.51 KCAL/MOL
REMARK 924 INTRA-LIGAND FREE ENERGY PREDICTED BY IDOCK:   -0.28 KCAL/MOL
REMARK 927      BINDING AFFINITY PREDICTED BY RF-SCORE:    0.00 PKD
ROOT
HETATM    1  C   UNL     1     -10.283  10.077  65.998  1.00  0.00    -0.277 C  
HETATM    2  C   UNL     1     -11.032  10.031  67.345  1.00  0.00    -0.191 C  
ENDROOT
BRANCH   2   3
HETATM    3  C   UNL     1     -10.040   9.612  68.497  1.00  0.00    -0.175 C  
HETATM    4  H   UNL     1      -8.089   9.673  68.831  1.00  0.00     0.000 HD 
HETATM    5  O   UNL     1      -8.686   9.925  68.136  1.00  0.00    -0.121 OA 
BRANCH   3   6
HETATM    6  C   UNL     1     -10.104   8.184  69.026  1.00  0.00    -0.211 A  
HETATM    7  C   UNL     1     -10.552   7.145  68.190  1.00  0.00    -0.241 A  
HETATM    8  C   UNL     1     -10.824   5.877  68.717  1.00  0.00    -0.353 A  
HETATM    9  C   UNL     1     -10.632   5.623  70.074  1.00  0.00    -0.388 A  
HETATM   10  C   UNL     1     -10.123   6.622  70.899  1.00  0.00    -0.208 A  
HETATM   11  C   UNL     1      -9.851   7.889  70.377  1.00  0.00    -0.183 A  
ENDBRANCH   3   6
ENDBRANCH   2   3
BRANCH   2  12
HETATM   12  N   UNL     1     -11.705  11.351  67.588  1.00  0.00    -0.594 NA 
HETATM   13  C   UNL     1     -10.972  12.492  67.042  1.00  0.00    -0.267 C  
HETATM   14  C   UNL     1     -12.002  11.603  69.002  1.00  0.00    -0.305 C  
ENDBRANCH   2  12
TORSDOF 3
ENDMDL
MODEL      155
REMARK 921   NORMALIZED FREE ENERGY PREDICTED BY IDOCK:   -3.00 KCAL/MOL
REMARK 922        TOTAL FREE ENERGY PREDICTED BY IDOCK:   -3.79 KCAL/MOL
REMARK 923 INTER-LIGAND FREE ENERGY PREDICTED BY IDOCK:   -3.48 KCAL/MOL
REMARK 924 INTRA-LIGAND FREE ENERGY PREDICTED BY IDOCK:   -0.31 KCAL/MOL
REMARK 927      BINDING AFFINITY PREDICTED BY RF-SCORE:    0.00 PKD
ROOT
HETATM    1  C   UNL     1     -10.214  13.342  66.964  1.00  0.00    -0.244 C  
HETATM    2  C   UNL     1     -10.259  12.003  66.202  1.00  0.00    -0.226 C  
ENDROOT
BRANCH   2   3
HETATM    3  C   UNL     1     -11.284  11.024  66.894  1.00  0.00    -0.136 C  
HETATM    4  H   UNL     1     -12.617  11.111  68.356  1.00  0.00     0.000 HD 
HETATM    5  O   UNL     1     -11.999  11.700  67.940  1.00  0.00    -0.599 OA 
BRANCH   3   6
HETATM    6  C   UNL     1     -10.772   9.687  67.416  1.00  0.00    -0.308 A  
HETATM    7  C   UNL     1     -10.517   9.520  68.789  1.00  0.00    -0.243 A  
HETATM    8  C   UNL     1      -9.844   8.384  69.252  1.00  0.00    -0.186 A  
HETATM    9  C   UNL     1      -9.439   7.392  68.361  1.00  0.00    -0.143 A  
HETATM   10  C   UNL     1      -9.747   7.511  67.008  1.00  0.00    -0.257 A  
HETATM   11  C   UNL     1     -10.418   8.645  66.542  1.00  0.00    -0.127 A  
ENDBRANCH   3   6
ENDBRANCH   2   3
BRANCH   2  12
HETATM   12  N   UNL     1     -10.566  12.262  64.755  1.00  0.00    -0.284 NA 
HETATM   13  C   UNL     1     -11.995  12.350  64.466  1.00  0.00    -0.402 C  
HETATM   14  C   UNL     1      -9.950  11.290  63.845  1.00  0.00    -0.321 C  
ENDBRANCH   2  12
TORSDOF 3
ENDMDL
MODEL      156
REMARK 921   NORMALIZED FREE ENERGY PREDICTED BY IDOCK:   -2.99 KCAL/MOL
REMARK 922        TOTAL FREE ENERGY PREDICTED BY IDOCK:   -3.78 KCAL/MOL
REMARK 923 INTER-LIGAND FREE ENERGY PREDICTED BY IDOCK:   -3.56 KCAL/MOL
REMARK 924 INTRA-LIGAND FREE ENERGY PREDICTED BY IDOCK:   -0.22 KCAL/MOL
REMARK 927      BINDING AFFINITY PREDICTED BY RF-SCORE:    0.00 PKD
ROOT
HETATM    1  C   UNL     1      -8.820   5.689  68.484  1.00  0.00    -0.108 C  
HETATM    2  C   UNL     1      -9.337   5.920  69.917  1.00  0.00    -0.150 C  
ENDROOT
BRANCH   2   3
HETATM    3  C   UNL     1     -10.894   6.167  69.896  1.00  0.00    -0.353 C  
HETATM    4  H   UNL     1     -12.313   6.383  68.531  1.00  0.00     0.000 HD 
HETATM    5  O   UNL     1     -11.374   6.234  68.544  1.00  0.00    -0.324 OA 
BRANCH   3   6
HETATM    6  C   UNL     1     -11.453   7.343  70.689  1.00  0.00    -0.307 A  
HETATM    7  C   UNL     1     -12.656   7.200  71.403  1.00  0.00    -0.432 A  
HETATM    8  C   UNL     1     -13.294   8.319  71.950  1.00  0.00    -0.364 A  
HETATM    9  C   UNL     1     -12.732   9.587  71.814  1.00  0.00    -0.492 A  
HETATM   10  C   UNL     1     -11.506   9.734  71.169  1.00  0.00    -0.472 A  
HETATM   11  C   UNL     1     -10.867   8.619  70.621  1.00  0.00    -0.265 A  
ENDBRANCH   3   6
ENDBRANCH   2   3
BRANCH   2  12
HETATM   12  N   UNL     1      -8.929   4.765  70.788  1.00  0.00    -0.120 NA 
HETATM   13  C   UNL     1      -8.533   5.160  72.137  1.00  0.00    -0.125 C  
HETATM   14  C   UNL     1      -7.872   3.935  70.199  1.00  0.00    -0.048 C  
ENDBRANCH   2  12
TORSDOF 3
ENDMDL
MODEL      157
REMARK 921   NORMALIZED FREE ENERGY PREDICTED BY IDOCK:   -2.98 KCAL/MOL
REMARK 922        TOTAL FREE ENERGY PREDICTED BY IDOCK:   -3.76 KCAL/MOL
REMARK 923 INTER-LIGAND FREE ENERGY PREDICTED BY IDOCK:   -4.10 KCAL/MOL
REMARK 924 INTRA-LIGAND FREE ENERGY PREDICTED BY IDOCK:    0.33 KCAL/MOL
REMARK 927      BINDING AFFINITY PREDICTED BY RF-SCORE:    0.00 PKD
ROOT
HETATM    1  C   UNL     1      -8.322  11.176  68.000  1.00  0.00    -0.134 C  
HETATM    2  C   UNL     1      -9.717  10.553  67.795  1.00  0.00    -0.160 C  
ENDROOT
BRANCH   2   3
HETATM    3  C   UNL     1     -10.747  11.668  67.371  1.00  0.00    -0.234 C  
HETATM    4  H   UNL     1     -12.635  12.127  67.758  1.00  0.00     0.000 HD 
HETATM    5  O   UNL     1     -12.014  11.455  68.014  1.00  0.00    -0.613 OA 
BRANCH   3   6
HETATM    6  C   UNL     1     -10.973  11.919  65.884  1.00  0.00    -0.354 A  
HETATM    7  C   UNL     1     -12.187  12.476  65.442  1.00  0.00    -0.475 A  
HETATM    8  C   UNL     1     -12.497  12.509  64.078  1.00  0.00    -0.527 A  
HETATM    9  C   UNL     1     -11.596  12.011  63.138  1.00  0.00    -0.265 A  
HETATM   10  C   UNL     1     -10.363  11.520  63.556  1.00  0.00    -0.484 A  
HETATM   11  C   UNL     1     -10.049  11.485  64.917  1.00  0.00    -0.314 A  
ENDBRANCH   3   6
ENDBRANCH   2   3
BRANCH   2  12
HETATM   12  N   UNL     1      -9.620   9.424  66.808  1.00  0.00    -0.167 NA 
HETATM   13  C   UNL     1     -10.567   8.341  67.062  1.00  0.00    -0.258 C  
HETATM   14  C   UNL     1      -8.268   8.865  66.692  1.00  0.00    -0.111 C  
ENDBRANCH   2  12
TORSDOF 3
ENDMDL
MODEL      158
REMARK 921   NORMALIZED FREE ENERGY PREDICTED BY IDOCK:   -2.96 KCAL/MOL
REMARK 922        TOTAL FREE ENERGY PREDICTED BY IDOCK:   -3.74 KCAL/MOL
REMARK 923 INTER-LIGAND FREE ENERGY PREDICTED BY IDOCK:   -3.47 KCAL/MOL
REMARK 924 INTRA-LIGAND FREE ENERGY PREDICTED BY IDOCK:   -0.27 KCAL/MOL
REMARK 927      BINDING AFFINITY PREDICTED BY RF-SCORE:    0.00 PKD
ROOT
HETATM    1  C   UNL     1     -11.710  13.224  69.526  1.00  0.00    -0.384 C  
HETATM    2  C   UNL     1     -10.877  12.565  68.409  1.00  0.00    -0.243 C  
ENDROOT
BRANCH   2   3
HETATM    3  C   UNL     1     -11.338  11.071  68.205  1.00  0.00    -0.307 C  
HETATM    4  H   UNL     1     -12.761   9.880  68.898  1.00  0.00     0.000 HD 
HETATM    5  O   UNL     1     -12.483  10.781  69.021  1.00  0.00    -0.379 OA 
BRANCH   3   6
HETATM    6  C   UNL     1     -10.305   9.963  68.374  1.00  0.00    -0.226 A  
HETATM    7  C   UNL     1      -9.294  10.088  69.344  1.00  0.00    -0.237 A  
HETATM    8  C   UNL     1      -8.217   9.194  69.365  1.00  0.00    -0.118 A  
HETATM    9  C   UNL     1      -8.145   8.155  68.439  1.00  0.00    -0.128 A  
HETATM   10  C   UNL     1      -9.174   7.979  67.517  1.00  0.00    -0.153 A  
HETATM   11  C   UNL     1     -10.250   8.870  67.492  1.00  0.00    -0.309 A  
ENDBRANCH   3   6
ENDBRANCH   2   3
BRANCH   2  12
HETATM   12  N   UNL     1     -10.972  13.394  67.160  1.00  0.00    -0.276 NA 
HETATM   13  C   UNL     1     -11.670  12.725  66.064  1.00  0.00    -0.418 C  
HETATM   14  C   UNL     1      -9.671  13.876  66.680  1.00  0.00    -0.289 C  
ENDBRANCH   2  12
TORSDOF 3
ENDMDL
MODEL      159
REMARK 921   NORMALIZED FREE ENERGY PREDICTED BY IDOCK:   -2.96 KCAL/MOL
REMARK 922        TOTAL FREE ENERGY PREDICTED BY IDOCK:   -3.74 KCAL/MOL
REMARK 923 INTER-LIGAND FREE ENERGY PREDICTED BY IDOCK:   -3.50 KCAL/MOL
REMARK 924 INTRA-LIGAND FREE ENERGY PREDICTED BY IDOCK:   -0.24 KCAL/MOL
REMARK 927      BINDING AFFINITY PREDICTED BY RF-SCORE:    0.00 PKD
ROOT
HETATM    1  C   UNL     1     -11.877  12.727  66.461  1.00  0.00    -0.471 C  
HETATM    2  C   UNL     1     -11.598  12.780  67.975  1.00  0.00    -0.341 C  
ENDROOT
BRANCH   2   3
HETATM    3  C   UNL     1     -11.764  11.343  68.603  1.00  0.00    -0.329 C  
HETATM    4  H   UNL     1     -12.132  10.571  70.390  1.00  0.00     0.000 HD 
HETATM    5  O   UNL     1     -12.031  11.436  70.011  1.00  0.00    -0.310 OA 
BRANCH   3   6
HETATM    6  C   UNL     1     -10.662  10.316  68.367  1.00  0.00    -0.263 A  
HETATM    7  C   UNL     1     -10.587   9.637  67.138  1.00  0.00    -0.298 A  
HETATM    8  C   UNL     1      -9.728   8.543  66.983  1.00  0.00    -0.266 A  
HETATM    9  C   UNL     1      -8.918   8.128  68.038  1.00  0.00    -0.134 A  
HETATM   10  C   UNL     1      -8.931   8.834  69.238  1.00  0.00    -0.144 A  
HETATM   11  C   UNL     1      -9.789   9.926  69.397  1.00  0.00    -0.231 A  
ENDBRANCH   3   6
ENDBRANCH   2   3
BRANCH   2  12
HETATM   12  N   UNL     1     -10.241  13.380  68.213  1.00  0.00    -0.245 NA 
HETATM   13  C   UNL     1     -10.277  14.626  68.976  1.00  0.00    -0.220 C  
HETATM   14  C   UNL     1      -9.473  13.592  66.981  1.00  0.00    -0.252 C  
ENDBRANCH   2  12
TORSDOF 3
ENDMDL
MODEL      160
REMARK 921   NORMALIZED FREE ENERGY PREDICTED BY IDOCK:   -2.96 KCAL/MOL
REMARK 922        TOTAL FREE ENERGY PREDICTED BY IDOCK:   -3.74 KCAL/MOL
REMARK 923 INTER-LIGAND FREE ENERGY PREDICTED BY IDOCK:   -3.42 KCAL/MOL
REMARK 924 INTRA-LIGAND FREE ENERGY PREDICTED BY IDOCK:   -0.32 KCAL/MOL
REMARK 927      BINDING AFFINITY PREDICTED BY RF-SCORE:    0.00 PKD
ROOT
HETATM    1  C   UNL     1      -9.450   9.600  69.843  1.00  0.00    -0.260 C  
HETATM    2  C   UNL     1      -9.795   8.192  69.320  1.00  0.00    -0.182 C  
ENDROOT
BRANCH   2   3
HETATM    3  C   UNL     1     -11.074   7.642  70.061  1.00  0.00    -0.191 C  
HETATM    4  H   UNL     1     -12.455   8.345  71.294  1.00  0.00     0.000 HD 
HETATM    5  O   UNL     1     -11.684   8.676  70.848  1.00  0.00    -0.282 OA 
BRANCH   3   6
HETATM    6  C   UNL     1     -10.936   6.381  70.906  1.00  0.00    -0.335 A  
HETATM    7  C   UNL     1     -11.776   6.184  72.017  1.00  0.00    -0.354 A  
HETATM    8  C   UNL     1     -11.521   5.150  72.925  1.00  0.00    -0.329 A  
HETATM    9  C   UNL     1     -10.444   4.289  72.727  1.00  0.00    -0.249 A  
HETATM   10  C   UNL     1      -9.645   4.429  71.595  1.00  0.00    -0.227 A  
HETATM   11  C   UNL     1      -9.896   5.460  70.687  1.00  0.00    -0.254 A  
ENDBRANCH   3   6
ENDBRANCH   2   3
BRANCH   2  12
HETATM   12  N   UNL     1      -9.946   8.237  67.826  1.00  0.00    -0.175 NA 
HETATM   13  C   UNL     1     -10.659   9.417  67.344  1.00  0.00    -0.258 C  
HETATM   14  C   UNL     1     -10.572   7.034  67.266  1.00  0.00    -0.325 C  
ENDBRANCH   2  12
TORSDOF 3
ENDMDL
MODEL      161
REMARK 921   NORMALIZED FREE ENERGY PREDICTED BY IDOCK:   -2.95 KCAL/MOL
REMARK 922        TOTAL FREE ENERGY PREDICTED BY IDOCK:   -3.73 KCAL/MOL
REMARK 923 INTER-LIGAND FREE ENERGY PREDICTED BY IDOCK:   -3.65 KCAL/MOL
REMARK 924 INTRA-LIGAND FREE ENERGY PREDICTED BY IDOCK:   -0.08 KCAL/MOL
REMARK 927      BINDING AFFINITY PREDICTED BY RF-SCORE:    0.00 PKD
ROOT
HETATM    1  C   UNL     1     -11.707  12.494  67.948  1.00  0.00    -0.416 C  
HETATM    2  C   UNL     1     -10.615  13.516  68.320  1.00  0.00    -0.250 C  
ENDROOT
BRANCH   2   3
HETATM    3  C   UNL     1     -10.056  14.205  67.016  1.00  0.00    -0.261 C  
HETATM    4  H   UNL     1      -9.577  13.657  65.174  1.00  0.00     0.000 HD 
HETATM    5  O   UNL     1      -9.913  13.243  65.960  1.00  0.00    -0.289 OA 
BRANCH   3   6
HETATM    6  C   UNL     1      -8.778  15.029  67.123  1.00  0.00    -0.242 A  
HETATM    7  C   UNL     1      -8.657  16.232  66.404  1.00  0.00    -0.361 A  
HETATM    8  C   UNL     1      -7.421  16.884  66.316  1.00  0.00    -0.282 A  
HETATM    9  C   UNL     1      -6.301  16.361  66.958  1.00  0.00    -0.176 A  
HETATM   10  C   UNL     1      -6.422  15.208  67.729  1.00  0.00    -0.182 A  
HETATM   11  C   UNL     1      -7.653  14.554  67.819  1.00  0.00    -0.171 A  
ENDBRANCH   3   6
ENDBRANCH   2   3
BRANCH   2  12
HETATM   12  N   UNL     1     -11.165  14.493  69.320  1.00  0.00    -0.269 NA 
HETATM   13  C   UNL     1     -12.233  13.942  70.152  1.00  0.00    -0.358 C  
HETATM   14  C   UNL     1     -11.623  15.750  68.718  1.00  0.00    -0.395 C  
ENDBRANCH   2  12
TORSDOF 3
ENDMDL
MODEL      162
REMARK 921   NORMALIZED FREE ENERGY PREDICTED BY IDOCK:   -2.95 KCAL/MOL
REMARK 922        TOTAL FREE ENERGY PREDICTED BY IDOCK:   -3.72 KCAL/MOL
REMARK 923 INTER-LIGAND FREE ENERGY PREDICTED BY IDOCK:   -3.44 KCAL/MOL
REMARK 924 INTRA-LIGAND FREE ENERGY PREDICTED BY IDOCK:   -0.28 KCAL/MOL
REMARK 927      BINDING AFFINITY PREDICTED BY RF-SCORE:    0.00 PKD
ROOT
HETATM    1  C   UNL     1      -8.264  10.828  68.802  1.00  0.00    -0.145 C  
HETATM    2  C   UNL     1      -9.156   9.616  68.467  1.00  0.00    -0.131 C  
ENDROOT
BRANCH   2   3
HETATM    3  C   UNL     1     -10.544   9.750  69.203  1.00  0.00    -0.218 C  
HETATM    4  H   UNL     1     -11.533  11.147  70.199  1.00  0.00     0.000 HD 
HETATM    5  O   UNL     1     -10.696  11.066  69.756  1.00  0.00    -0.197 OA 
BRANCH   3   6
HETATM    6  C   UNL     1     -10.907   8.714  70.261  1.00  0.00    -0.250 A  
HETATM    7  C   UNL     1     -10.964   7.351  69.918  1.00  0.00    -0.239 A  
HETATM    8  C   UNL     1     -11.505   6.418  70.810  1.00  0.00    -0.415 A  
HETATM    9  C   UNL     1     -11.973   6.824  72.058  1.00  0.00    -0.355 A  
HETATM   10  C   UNL     1     -11.859   8.159  72.437  1.00  0.00    -0.448 A  
HETATM   11  C   UNL     1     -11.320   9.094  71.549  1.00  0.00    -0.439 A  
ENDBRANCH   3   6
ENDBRANCH   2   3
BRANCH   2  12
HETATM   12  N   UNL     1      -9.282   9.485  66.976  1.00  0.00    -0.137 NA 
HETATM   13  C   UNL     1     -10.235  10.422  66.384  1.00  0.00    -0.230 C  
HETATM   14  C   UNL     1      -9.607   8.124  66.535  1.00  0.00    -0.234 C  
ENDBRANCH   2  12
TORSDOF 3
ENDMDL
MODEL      163
REMARK 921   NORMALIZED FREE ENERGY PREDICTED BY IDOCK:   -2.95 KCAL/MOL
REMARK 922        TOTAL FREE ENERGY PREDICTED BY IDOCK:   -3.72 KCAL/MOL
REMARK 923 INTER-LIGAND FREE ENERGY PREDICTED BY IDOCK:   -3.35 KCAL/MOL
REMARK 924 INTRA-LIGAND FREE ENERGY PREDICTED BY IDOCK:   -0.37 KCAL/MOL
REMARK 927      BINDING AFFINITY PREDICTED BY RF-SCORE:    0.00 PKD
ROOT
HETATM    1  C   UNL     1      -8.991  10.062  69.451  1.00  0.00    -0.205 C  
HETATM    2  C   UNL     1      -9.873  10.155  68.190  1.00  0.00    -0.144 C  
ENDROOT
BRANCH   2   3
HETATM    3  C   UNL     1     -10.682  11.508  68.198  1.00  0.00    -0.205 C  
HETATM    4  H   UNL     1     -12.543  12.091  67.850  1.00  0.00     0.000 HD 
HETATM    5  O   UNL     1     -12.055  11.276  67.845  1.00  0.00    -0.634 OA 
BRANCH   3   6
HETATM    6  C   UNL     1     -10.144  12.680  67.386  1.00  0.00    -0.218 A  
HETATM    7  C   UNL     1      -9.145  13.510  67.928  1.00  0.00    -0.204 A  
HETATM    8  C   UNL     1      -8.799  14.709  67.294  1.00  0.00    -0.220 A  
HETATM    9  C   UNL     1      -9.424  15.085  66.107  1.00  0.00    -0.347 A  
HETATM   10  C   UNL     1     -10.365  14.240  65.524  1.00  0.00    -0.374 A  
HETATM   11  C   UNL     1     -10.714  13.043  66.153  1.00  0.00    -0.288 A  
ENDBRANCH   3   6
ENDBRANCH   2   3
BRANCH   2  12
HETATM   12  N   UNL     1      -9.017   9.981  66.968  1.00  0.00    -0.138 NA 
HETATM   13  C   UNL     1      -9.680   9.257  65.886  1.00  0.00    -0.285 C  
HETATM   14  C   UNL     1      -7.722   9.348  67.248  1.00  0.00    -0.091 C  
ENDBRANCH   2  12
TORSDOF 3
ENDMDL
MODEL      164
REMARK 921   NORMALIZED FREE ENERGY PREDICTED BY IDOCK:   -2.94 KCAL/MOL
REMARK 922        TOTAL FREE ENERGY PREDICTED BY IDOCK:   -3.71 KCAL/MOL
REMARK 923 INTER-LIGAND FREE ENERGY PREDICTED BY IDOCK:   -3.43 KCAL/MOL
REMARK 924 INTRA-LIGAND FREE ENERGY PREDICTED BY IDOCK:   -0.28 KCAL/MOL
REMARK 927      BINDING AFFINITY PREDICTED BY RF-SCORE:    0.00 PKD
ROOT
HETATM    1  C   UNL     1      -8.253   7.976  70.649  1.00  0.00    -0.114 C  
HETATM    2  C   UNL     1      -9.598   8.027  71.400  1.00  0.00    -0.154 C  
ENDROOT
BRANCH   2   3
HETATM    3  C   UNL     1     -10.750   8.453  70.412  1.00  0.00    -0.231 C  
HETATM    4  H   UNL     1     -11.249   8.111  68.526  1.00  0.00     0.000 HD 
HETATM    5  O   UNL     1     -10.554   7.854  69.122  1.00  0.00    -0.219 OA 
BRANCH   3   6
HETATM    6  C   UNL     1     -11.046   9.938  70.239  1.00  0.00    -0.368 A  
HETATM    7  C   UNL     1     -12.045  10.551  71.017  1.00  0.00    -0.492 A  
HETATM    8  C   UNL     1     -12.479  11.848  70.721  1.00  0.00    -0.384 A  
HETATM    9  C   UNL     1     -11.909  12.558  69.666  1.00  0.00    -0.382 A  
HETATM   10  C   UNL     1     -10.871  11.990  68.932  1.00  0.00    -0.252 A  
HETATM   11  C   UNL     1     -10.436  10.695  69.223  1.00  0.00    -0.252 A  
ENDBRANCH   3   6
ENDBRANCH   2   3
BRANCH   2  12
HETATM   12  N   UNL     1      -9.846   6.706  72.071  1.00  0.00    -0.159 NA 
HETATM   13  C   UNL     1      -9.307   5.565  71.335  1.00  0.00    -0.147 C  
HETATM   14  C   UNL     1     -11.261   6.461  72.372  1.00  0.00    -0.277 C  
ENDBRANCH   2  12
TORSDOF 3
ENDMDL
MODEL      165
REMARK 921   NORMALIZED FREE ENERGY PREDICTED BY IDOCK:   -2.91 KCAL/MOL
REMARK 922        TOTAL FREE ENERGY PREDICTED BY IDOCK:   -3.68 KCAL/MOL
REMARK 923 INTER-LIGAND FREE ENERGY PREDICTED BY IDOCK:   -3.45 KCAL/MOL
REMARK 924 INTRA-LIGAND FREE ENERGY PREDICTED BY IDOCK:   -0.23 KCAL/MOL
REMARK 927      BINDING AFFINITY PREDICTED BY RF-SCORE:    0.00 PKD
ROOT
HETATM    1  C   UNL     1      -7.995  14.893  68.345  1.00  0.00    -0.134 C  
HETATM    2  C   UNL     1      -8.223  15.787  67.110  1.00  0.00    -0.206 C  
ENDROOT
BRANCH   2   3
HETATM    3  C   UNL     1      -9.203  15.074  66.102  1.00  0.00    -0.259 C  
HETATM    4  H   UNL     1     -10.743  15.583  64.965  1.00  0.00     0.000 HD 
HETATM    5  O   UNL     1     -10.152  16.013  65.573  1.00  0.00    -0.382 OA 
BRANCH   3   6
HETATM    6  C   UNL     1      -9.939  13.823  66.569  1.00  0.00    -0.290 A  
HETATM    7  C   UNL     1      -9.583  12.564  66.051  1.00  0.00    -0.205 A  
HETATM    8  C   UNL     1     -10.383  11.443  66.298  1.00  0.00    -0.287 A  
HETATM    9  C   UNL     1     -11.533  11.556  67.078  1.00  0.00    -0.290 A  
HETATM   10  C   UNL     1     -11.860  12.781  67.653  1.00  0.00    -0.396 A  
HETATM   11  C   UNL     1     -11.063  13.902  67.409  1.00  0.00    -0.313 A  
ENDBRANCH   3   6
ENDBRANCH   2   3
BRANCH   2  12
HETATM   12  N   UNL     1      -8.705  17.139  67.554  1.00  0.00    -0.206 NA 
HETATM   13  C   UNL     1      -7.645  18.142  67.631  1.00  0.00    -0.219 C  
HETATM   14  C   UNL     1      -9.434  17.109  68.827  1.00  0.00    -0.263 C  
ENDBRANCH   2  12
TORSDOF 3
ENDMDL
MODEL      166
REMARK 921   NORMALIZED FREE ENERGY PREDICTED BY IDOCK:   -2.91 KCAL/MOL
REMARK 922        TOTAL FREE ENERGY PREDICTED BY IDOCK:   -3.67 KCAL/MOL
REMARK 923 INTER-LIGAND FREE ENERGY PREDICTED BY IDOCK:   -3.45 KCAL/MOL
REMARK 924 INTRA-LIGAND FREE ENERGY PREDICTED BY IDOCK:   -0.23 KCAL/MOL
REMARK 927      BINDING AFFINITY PREDICTED BY RF-SCORE:    0.00 PKD
ROOT
HETATM    1  C   UNL     1      -5.620  18.425  67.275  1.00  0.00    -0.147 C  
HETATM    2  C   UNL     1      -7.087  18.090  67.608  1.00  0.00    -0.198 C  
ENDROOT
BRANCH   2   3
HETATM    3  C   UNL     1      -7.256  16.534  67.793  1.00  0.00    -0.139 C  
HETATM    4  H   UNL     1      -6.386  14.886  67.120  1.00  0.00     0.000 HD 
HETATM    5  O   UNL     1      -6.284  15.825  67.008  1.00  0.00    -0.312 OA 
BRANCH   3   6
HETATM    6  C   UNL     1      -8.633  15.921  67.564  1.00  0.00    -0.181 A  
HETATM    7  C   UNL     1      -9.341  15.363  68.644  1.00  0.00    -0.202 A  
HETATM    8  C   UNL     1     -10.497  14.607  68.419  1.00  0.00    -0.243 A  
HETATM    9  C   UNL     1     -10.973  14.416  67.123  1.00  0.00    -0.305 A  
HETATM   10  C   UNL     1     -10.321  15.020  66.051  1.00  0.00    -0.326 A  
HETATM   11  C   UNL     1      -9.166  15.775  66.272  1.00  0.00    -0.368 A  
ENDBRANCH   3   6
ENDBRANCH   2   3
BRANCH   2  12
HETATM   12  N   UNL     1      -7.521  18.883  68.807  1.00  0.00    -0.320 NA 
HETATM   13  C   UNL     1      -8.866  19.440  68.686  1.00  0.00    -0.373 C  
HETATM   14  C   UNL     1      -6.586  19.955  69.168  1.00  0.00    -0.333 C  
ENDBRANCH   2  12
TORSDOF 3
ENDMDL
MODEL      167
REMARK 921   NORMALIZED FREE ENERGY PREDICTED BY IDOCK:   -2.90 KCAL/MOL
REMARK 922        TOTAL FREE ENERGY PREDICTED BY IDOCK:   -3.66 KCAL/MOL
REMARK 923 INTER-LIGAND FREE ENERGY PREDICTED BY IDOCK:   -3.44 KCAL/MOL
REMARK 924 INTRA-LIGAND FREE ENERGY PREDICTED BY IDOCK:   -0.23 KCAL/MOL
REMARK 927      BINDING AFFINITY PREDICTED BY RF-SCORE:    0.00 PKD
ROOT
HETATM    1  C   UNL     1     -10.066  17.119  68.057  1.00  0.00    -0.311 C  
HETATM    2  C   UNL     1     -10.908  15.858  67.781  1.00  0.00    -0.324 C  
ENDROOT
BRANCH   2   3
HETATM    3  C   UNL     1     -10.404  15.151  66.465  1.00  0.00    -0.282 C  
HETATM    4  H   UNL     1     -11.214  14.308  64.866  1.00  0.00     0.000 HD 
HETATM    5  O   UNL     1     -11.517  14.734  65.659  1.00  0.00    -0.348 OA 
BRANCH   3   6
HETATM    6  C   UNL     1      -9.416  13.997  66.595  1.00  0.00    -0.300 A  
HETATM    7  C   UNL     1      -9.800  12.698  66.215  1.00  0.00    -0.266 A  
HETATM    8  C   UNL     1      -8.992  11.599  66.530  1.00  0.00    -0.191 A  
HETATM    9  C   UNL     1      -7.785  11.782  67.202  1.00  0.00    -0.162 A  
HETATM   10  C   UNL     1      -7.360  13.068  67.522  1.00  0.00    -0.154 A  
HETATM   11  C   UNL     1      -8.164  14.167  67.211  1.00  0.00    -0.200 A  
ENDBRANCH   3   6
ENDBRANCH   2   3
BRANCH   2  12
HETATM   12  N   UNL     1     -10.877  14.963  68.988  1.00  0.00    -0.236 NA 
HETATM   13  C   UNL     1     -12.049  14.099  69.106  1.00  0.00    -0.325 C  
HETATM   14  C   UNL     1     -10.685  15.690  70.248  1.00  0.00    -0.338 C  
ENDBRANCH   2  12
TORSDOF 3
ENDMDL
MODEL      168
REMARK 921   NORMALIZED FREE ENERGY PREDICTED BY IDOCK:   -2.89 KCAL/MOL
REMARK 922        TOTAL FREE ENERGY PREDICTED BY IDOCK:   -3.66 KCAL/MOL
REMARK 923 INTER-LIGAND FREE ENERGY PREDICTED BY IDOCK:   -3.38 KCAL/MOL
REMARK 924 INTRA-LIGAND FREE ENERGY PREDICTED BY IDOCK:   -0.28 KCAL/MOL
REMARK 927      BINDING AFFINITY PREDICTED BY RF-SCORE:    0.00 PKD
ROOT
HETATM    1  C   UNL     1      -9.523  11.019  68.328  1.00  0.00    -0.172 C  
HETATM    2  C   UNL     1     -10.741  10.087  68.485  1.00  0.00    -0.231 C  
ENDROOT
BRANCH   2   3
HETATM    3  C   UNL     1     -10.383   8.890  69.446  1.00  0.00    -0.213 C  
HETATM    4  H   UNL     1      -8.898   8.394  70.660  1.00  0.00     0.000 HD 
HETATM    5  O   UNL     1      -9.114   9.115  70.080  1.00  0.00    -0.172 OA 
BRANCH   3   6
HETATM    6  C   UNL     1     -10.421   7.473  68.885  1.00  0.00    -0.214 A  
HETATM    7  C   UNL     1      -9.985   6.393  69.674  1.00  0.00    -0.193 A  
HETATM    8  C   UNL     1      -9.807   5.126  69.107  1.00  0.00    -0.257 A  
HETATM    9  C   UNL     1     -10.082   4.914  67.757  1.00  0.00    -0.158 A  
HETATM   10  C   UNL     1     -10.580   5.957  66.981  1.00  0.00    -0.376 A  
HETATM   11  C   UNL     1     -10.758   7.223  67.544  1.00  0.00    -0.326 A  
ENDBRANCH   3   6
ENDBRANCH   2   3
BRANCH   2  12
HETATM   12  N   UNL     1     -11.926  10.887  68.947  1.00  0.00    -0.444 NA 
HETATM   13  C   UNL     1     -11.736  12.332  68.838  1.00  0.00    -0.328 C  
HETATM   14  C   UNL     1     -12.356  10.560  70.311  1.00  0.00    -0.298 C  
ENDBRANCH   2  12
TORSDOF 3
ENDMDL
MODEL      169
REMARK 921   NORMALIZED FREE ENERGY PREDICTED BY IDOCK:   -2.89 KCAL/MOL
REMARK 922        TOTAL FREE ENERGY PREDICTED BY IDOCK:   -3.66 KCAL/MOL
REMARK 923 INTER-LIGAND FREE ENERGY PREDICTED BY IDOCK:   -3.40 KCAL/MOL
REMARK 924 INTRA-LIGAND FREE ENERGY PREDICTED BY IDOCK:   -0.26 KCAL/MOL
REMARK 927      BINDING AFFINITY PREDICTED BY RF-SCORE:    0.00 PKD
ROOT
HETATM    1  C   UNL     1     -10.906  15.560  65.554  1.00  0.00    -0.372 C  
HETATM    2  C   UNL     1      -9.555  15.116  66.149  1.00  0.00    -0.313 C  
ENDROOT
BRANCH   2   3
HETATM    3  C   UNL     1      -9.027  16.207  67.158  1.00  0.00    -0.200 C  
HETATM    4  H   UNL     1      -9.807  17.544  68.394  1.00  0.00     0.000 HD 
HETATM    5  O   UNL     1     -10.125  16.887  67.786  1.00  0.00    -0.272 OA 
BRANCH   3   6
HETATM    6  C   UNL     1      -8.020  17.235  66.654  1.00  0.00    -0.296 A  
HETATM    7  C   UNL     1      -6.643  16.950  66.702  1.00  0.00    -0.252 A  
HETATM    8  C   UNL     1      -5.702  17.956  66.452  1.00  0.00    -0.215 A  
HETATM    9  C   UNL     1      -6.119  19.247  66.131  1.00  0.00    -0.191 A  
HETATM   10  C   UNL     1      -7.478  19.524  66.013  1.00  0.00    -0.312 A  
HETATM   11  C   UNL     1      -8.420  18.524  66.262  1.00  0.00    -0.227 A  
ENDBRANCH   3   6
ENDBRANCH   2   3
BRANCH   2  12
HETATM   12  N   UNL     1      -9.704  13.755  66.768  1.00  0.00    -0.267 NA 
HETATM   13  C   UNL     1      -8.451  13.203  67.278  1.00  0.00    -0.198 C  
HETATM   14  C   UNL     1     -10.334  12.775  65.876  1.00  0.00    -0.283 C  
ENDBRANCH   2  12
TORSDOF 3
ENDMDL
MODEL      170
REMARK 921   NORMALIZED FREE ENERGY PREDICTED BY IDOCK:   -2.89 KCAL/MOL
REMARK 922        TOTAL FREE ENERGY PREDICTED BY IDOCK:   -3.66 KCAL/MOL
REMARK 923 INTER-LIGAND FREE ENERGY PREDICTED BY IDOCK:   -3.87 KCAL/MOL
REMARK 924 INTRA-LIGAND FREE ENERGY PREDICTED BY IDOCK:    0.21 KCAL/MOL
REMARK 927      BINDING AFFINITY PREDICTED BY RF-SCORE:    0.00 PKD
ROOT
HETATM    1  C   UNL     1      -9.214   9.612  62.681  1.00  0.00    -0.203 C  
HETATM    2  C   UNL     1      -8.339  10.263  63.770  1.00  0.00    -0.165 C  
ENDROOT
BRANCH   2   3
HETATM    3  C   UNL     1      -9.214  10.588  65.040  1.00  0.00    -0.206 C  
HETATM    4  H   UNL     1     -10.290   9.580  66.363  1.00  0.00     0.000 HD 
HETATM    5  O   UNL     1      -9.762   9.384  65.597  1.00  0.00    -0.278 OA 
BRANCH   3   6
HETATM    6  C   UNL     1     -10.319  11.632  64.912  1.00  0.00    -0.331 A  
HETATM    7  C   UNL     1     -10.953  12.128  66.065  1.00  0.00    -0.332 A  
HETATM    8  C   UNL     1     -12.106  12.914  65.958  1.00  0.00    -0.484 A  
HETATM    9  C   UNL     1     -12.628  13.232  64.705  1.00  0.00    -0.398 A  
HETATM   10  C   UNL     1     -11.970  12.805  63.554  1.00  0.00    -0.633 A  
HETATM   11  C   UNL     1     -10.819  12.021  63.658  1.00  0.00    -0.510 A  
ENDBRANCH   3   6
ENDBRANCH   2   3
BRANCH   2  12
HETATM   12  N   UNL     1      -7.166   9.372  64.068  1.00  0.00    -0.099 NA 
HETATM   13  C   UNL     1      -5.943  10.102  64.393  1.00  0.00    -0.138 C  
HETATM   14  C   UNL     1      -6.881   8.406  63.000  1.00  0.00    -0.090 C  
ENDBRANCH   2  12
TORSDOF 3
ENDMDL
MODEL      171
REMARK 921   NORMALIZED FREE ENERGY PREDICTED BY IDOCK:   -2.87 KCAL/MOL
REMARK 922        TOTAL FREE ENERGY PREDICTED BY IDOCK:   -3.64 KCAL/MOL
REMARK 923 INTER-LIGAND FREE ENERGY PREDICTED BY IDOCK:   -3.42 KCAL/MOL
REMARK 924 INTRA-LIGAND FREE ENERGY PREDICTED BY IDOCK:   -0.22 KCAL/MOL
REMARK 927      BINDING AFFINITY PREDICTED BY RF-SCORE:    0.00 PKD
ROOT
HETATM    1  C   UNL     1      -7.449  13.453  67.472  1.00  0.00    -0.170 C  
HETATM    2  C   UNL     1      -8.657  12.760  68.133  1.00  0.00    -0.185 C  
ENDROOT
BRANCH   2   3
HETATM    3  C   UNL     1      -9.968  13.595  67.865  1.00  0.00    -0.244 C  
HETATM    4  H   UNL     1     -10.510  15.130  66.737  1.00  0.00     0.000 HD 
HETATM    5  O   UNL     1      -9.719  14.627  66.899  1.00  0.00    -0.228 OA 
BRANCH   3   6
HETATM    6  C   UNL     1     -10.706  14.189  69.059  1.00  0.00    -0.249 A  
HETATM    7  C   UNL     1     -11.845  13.545  69.573  1.00  0.00    -0.392 A  
HETATM    8  C   UNL     1     -12.657  14.184  70.517  1.00  0.00    -0.410 A  
HETATM    9  C   UNL     1     -12.332  15.458  70.978  1.00  0.00    -0.449 A  
HETATM   10  C   UNL     1     -11.169  16.079  70.530  1.00  0.00    -0.397 A  
HETATM   11  C   UNL     1     -10.357  15.445  69.587  1.00  0.00    -0.283 A  
ENDBRANCH   3   6
ENDBRANCH   2   3
BRANCH   2  12
HETATM   12  N   UNL     1      -8.745  11.341  67.649  1.00  0.00    -0.129 NA 
HETATM   13  C   UNL     1      -8.210  10.365  68.596  1.00  0.00    -0.121 C  
HETATM   14  C   UNL     1      -8.123  11.131  66.337  1.00  0.00    -0.159 C  
ENDBRANCH   2  12
TORSDOF 3
ENDMDL
MODEL      172
REMARK 921   NORMALIZED FREE ENERGY PREDICTED BY IDOCK:   -2.85 KCAL/MOL
REMARK 922        TOTAL FREE ENERGY PREDICTED BY IDOCK:   -3.61 KCAL/MOL
REMARK 923 INTER-LIGAND FREE ENERGY PREDICTED BY IDOCK:   -3.36 KCAL/MOL
REMARK 924 INTRA-LIGAND FREE ENERGY PREDICTED BY IDOCK:   -0.25 KCAL/MOL
REMARK 927      BINDING AFFINITY PREDICTED BY RF-SCORE:    0.00 PKD
ROOT
HETATM    1  C   UNL     1     -10.625   4.987  72.572  1.00  0.00    -0.277 C  
HETATM    2  C   UNL     1     -10.312   6.020  71.472  1.00  0.00    -0.214 C  
ENDROOT
BRANCH   2   3
HETATM    3  C   UNL     1     -10.410   5.341  70.052  1.00  0.00    -0.295 C  
HETATM    4  H   UNL     1      -9.758   3.685  69.184  1.00  0.00     0.000 HD 
HETATM    5  O   UNL     1      -9.699   4.094  70.040  1.00  0.00    -0.198 OA 
BRANCH   3   6
HETATM    6  C   UNL     1     -10.015   6.159  68.828  1.00  0.00    -0.175 A  
HETATM    7  C   UNL     1      -8.812   6.888  68.829  1.00  0.00    -0.132 A  
HETATM    8  C   UNL     1      -8.541   7.811  67.812  1.00  0.00    -0.121 A  
HETATM    9  C   UNL     1      -9.451   8.002  66.774  1.00  0.00    -0.259 A  
HETATM   10  C   UNL     1     -10.613   7.237  66.723  1.00  0.00    -0.288 A  
HETATM   11  C   UNL     1     -10.887   6.316  67.737  1.00  0.00    -0.424 A  
ENDBRANCH   3   6
ENDBRANCH   2   3
BRANCH   2  12
HETATM   12  N   UNL     1     -11.219   7.207  71.629  1.00  0.00    -0.240 NA 
HETATM   13  C   UNL     1     -11.134   7.840  72.943  1.00  0.00    -0.398 C  
HETATM   14  C   UNL     1     -12.624   6.913  71.325  1.00  0.00    -0.345 C  
ENDBRANCH   2  12
TORSDOF 3
ENDMDL
MODEL      173
REMARK 921   NORMALIZED FREE ENERGY PREDICTED BY IDOCK:   -2.85 KCAL/MOL
REMARK 922        TOTAL FREE ENERGY PREDICTED BY IDOCK:   -3.61 KCAL/MOL
REMARK 923 INTER-LIGAND FREE ENERGY PREDICTED BY IDOCK:   -3.31 KCAL/MOL
REMARK 924 INTRA-LIGAND FREE ENERGY PREDICTED BY IDOCK:   -0.30 KCAL/MOL
REMARK 927      BINDING AFFINITY PREDICTED BY RF-SCORE:    0.00 PKD
ROOT
HETATM    1  C   UNL     1      -7.554  12.467  68.558  1.00  0.00    -0.122 C  
HETATM    2  C   UNL     1      -8.143  11.056  68.360  1.00  0.00    -0.134 C  
ENDROOT
BRANCH   2   3
HETATM    3  C   UNL     1      -9.706  11.146  68.177  1.00  0.00    -0.181 C  
HETATM    4  H   UNL     1     -11.048  12.556  67.811  1.00  0.00     0.000 HD 
HETATM    5  O   UNL     1     -10.106  12.502  67.922  1.00  0.00    -0.202 OA 
BRANCH   3   6
HETATM    6  C   UNL     1     -10.598  10.553  69.261  1.00  0.00    -0.265 A  
HETATM    7  C   UNL     1     -11.907  11.038  69.436  1.00  0.00    -0.407 A  
HETATM    8  C   UNL     1     -12.658  10.664  70.557  1.00  0.00    -0.433 A  
HETATM    9  C   UNL     1     -12.126   9.788  71.502  1.00  0.00    -0.493 A  
HETATM   10  C   UNL     1     -10.858   9.247  71.305  1.00  0.00    -0.417 A  
HETATM   11  C   UNL     1     -10.105   9.619  70.188  1.00  0.00    -0.311 A  
ENDBRANCH   3   6
ENDBRANCH   2   3
BRANCH   2  12
HETATM   12  N   UNL     1      -7.447  10.381  67.212  1.00  0.00    -0.094 NA 
HETATM   13  C   UNL     1      -6.374  11.181  66.625  1.00  0.00    -0.134 C  
HETATM   14  C   UNL     1      -8.360   9.947  66.149  1.00  0.00    -0.122 C  
ENDBRANCH   2  12
TORSDOF 3
ENDMDL
MODEL      174
REMARK 921   NORMALIZED FREE ENERGY PREDICTED BY IDOCK:   -2.84 KCAL/MOL
REMARK 922        TOTAL FREE ENERGY PREDICTED BY IDOCK:   -3.60 KCAL/MOL
REMARK 923 INTER-LIGAND FREE ENERGY PREDICTED BY IDOCK:   -3.35 KCAL/MOL
REMARK 924 INTRA-LIGAND FREE ENERGY PREDICTED BY IDOCK:   -0.25 KCAL/MOL
REMARK 927      BINDING AFFINITY PREDICTED BY RF-SCORE:    0.00 PKD
ROOT
HETATM    1  C   UNL     1      -9.251   8.831  70.378  1.00  0.00    -0.204 C  
HETATM    2  C   UNL     1     -10.553   9.385  70.989  1.00  0.00    -0.330 C  
ENDROOT
BRANCH   2   3
HETATM    3  C   UNL     1     -11.064  10.614  70.143  1.00  0.00    -0.268 C  
HETATM    4  H   UNL     1     -12.799  11.310  69.491  1.00  0.00     0.000 HD 
HETATM    5  O   UNL     1     -12.492  10.569  70.000  1.00  0.00    -0.278 OA 
BRANCH   3   6
HETATM    6  C   UNL     1     -10.429  10.871  68.782  1.00  0.00    -0.224 A  
HETATM    7  C   UNL     1      -9.369  11.789  68.663  1.00  0.00    -0.096 A  
HETATM    8  C   UNL     1      -8.925  12.199  67.401  1.00  0.00    -0.180 A  
HETATM    9  C   UNL     1      -9.511  11.686  66.246  1.00  0.00    -0.233 A  
HETATM   10  C   UNL     1     -10.513  10.725  66.348  1.00  0.00    -0.293 A  
HETATM   11  C   UNL     1     -10.961  10.313  67.606  1.00  0.00    -0.356 A  
ENDBRANCH   3   6
ENDBRANCH   2   3
BRANCH   2  12
HETATM   12  N   UNL     1     -11.563   8.279  71.102  1.00  0.00    -0.276 NA 
HETATM   13  C   UNL     1     -11.778   7.820  72.473  1.00  0.00    -0.339 C  
HETATM   14  C   UNL     1     -11.262   7.124  70.249  1.00  0.00    -0.276 C  
ENDBRANCH   2  12
TORSDOF 3
ENDMDL
MODEL      175
REMARK 921   NORMALIZED FREE ENERGY PREDICTED BY IDOCK:   -2.84 KCAL/MOL
REMARK 922        TOTAL FREE ENERGY PREDICTED BY IDOCK:   -3.59 KCAL/MOL
REMARK 923 INTER-LIGAND FREE ENERGY PREDICTED BY IDOCK:   -3.51 KCAL/MOL
REMARK 924 INTRA-LIGAND FREE ENERGY PREDICTED BY IDOCK:   -0.08 KCAL/MOL
REMARK 927      BINDING AFFINITY PREDICTED BY RF-SCORE:    0.00 PKD
ROOT
HETATM    1  C   UNL     1     -11.870  15.383  68.760  1.00  0.00    -0.339 C  
HETATM    2  C   UNL     1     -12.137  13.866  68.828  1.00  0.00    -0.309 C  
ENDROOT
BRANCH   2   3
HETATM    3  C   UNL     1     -11.351  13.129  67.677  1.00  0.00    -0.298 C  
HETATM    4  H   UNL     1     -11.552  11.474  66.607  1.00  0.00     0.000 HD 
HETATM    5  O   UNL     1     -12.025  11.918  67.301  1.00  0.00    -0.605 OA 
BRANCH   3   6
HETATM    6  C   UNL     1      -9.868  12.838  67.881  1.00  0.00    -0.223 A  
HETATM    7  C   UNL     1      -8.910  13.820  67.569  1.00  0.00    -0.197 A  
HETATM    8  C   UNL     1      -7.549  13.498  67.541  1.00  0.00    -0.176 A  
HETATM    9  C   UNL     1      -7.123  12.206  67.844  1.00  0.00    -0.101 A  
HETATM   10  C   UNL     1      -8.055  11.243  68.222  1.00  0.00    -0.137 A  
HETATM   11  C   UNL     1      -9.415  11.560  68.251  1.00  0.00    -0.189 A  
ENDBRANCH   3   6
ENDBRANCH   2   3
BRANCH   2  12
HETATM   12  N   UNL     1     -11.796  13.359  70.200  1.00  0.00    -0.301 NA 
HETATM   13  C   UNL     1     -12.287  12.009  70.465  1.00  0.00    -0.282 C  
HETATM   14  C   UNL     1     -12.237  14.252  71.278  1.00  0.00    -0.350 C  
ENDBRANCH   2  12
TORSDOF 3
ENDMDL
MODEL      176
REMARK 921   NORMALIZED FREE ENERGY PREDICTED BY IDOCK:   -2.82 KCAL/MOL
REMARK 922        TOTAL FREE ENERGY PREDICTED BY IDOCK:   -3.57 KCAL/MOL
REMARK 923 INTER-LIGAND FREE ENERGY PREDICTED BY IDOCK:   -3.35 KCAL/MOL
REMARK 924 INTRA-LIGAND FREE ENERGY PREDICTED BY IDOCK:   -0.22 KCAL/MOL
REMARK 927      BINDING AFFINITY PREDICTED BY RF-SCORE:    0.00 PKD
ROOT
HETATM    1  C   UNL     1     -10.561   6.465  68.510  1.00  0.00    -0.302 C  
HETATM    2  C   UNL     1     -11.007   7.361  69.681  1.00  0.00    -0.172 C  
ENDROOT
BRANCH   2   3
HETATM    3  C   UNL     1     -11.768   6.498  70.760  1.00  0.00    -0.366 C  
HETATM    4  H   UNL     1     -13.458   6.614  71.786  1.00  0.00     0.000 HD 
HETATM    5  O   UNL     1     -13.000   7.134  71.136  1.00  0.00    -0.366 OA 
BRANCH   3   6
HETATM    6  C   UNL     1     -11.014   6.077  72.016  1.00  0.00    -0.313 A  
HETATM    7  C   UNL     1     -10.927   6.956  73.110  1.00  0.00    -0.297 A  
HETATM    8  C   UNL     1     -10.062   6.679  74.175  1.00  0.00    -0.390 A  
HETATM    9  C   UNL     1      -9.293   5.517  74.175  1.00  0.00    -0.135 A  
HETATM   10  C   UNL     1      -9.421   4.605  73.131  1.00  0.00    -0.140 A  
HETATM   11  C   UNL     1     -10.283   4.878  72.066  1.00  0.00    -0.263 A  
ENDBRANCH   3   6
ENDBRANCH   2   3
BRANCH   2  12
HETATM   12  N   UNL     1      -9.816   8.091  70.235  1.00  0.00    -0.183 NA 
HETATM   13  C   UNL     1     -10.092   9.482  70.583  1.00  0.00    -0.286 C  
HETATM   14  C   UNL     1      -8.640   8.038  69.358  1.00  0.00    -0.136 C  
ENDBRANCH   2  12
TORSDOF 3
ENDMDL
MODEL      177
REMARK 921   NORMALIZED FREE ENERGY PREDICTED BY IDOCK:   -2.81 KCAL/MOL
REMARK 922        TOTAL FREE ENERGY PREDICTED BY IDOCK:   -3.56 KCAL/MOL
REMARK 923 INTER-LIGAND FREE ENERGY PREDICTED BY IDOCK:   -3.26 KCAL/MOL
REMARK 924 INTRA-LIGAND FREE ENERGY PREDICTED BY IDOCK:   -0.30 KCAL/MOL
REMARK 927      BINDING AFFINITY PREDICTED BY RF-SCORE:    0.00 PKD
ROOT
HETATM    1  C   UNL     1      -9.540   4.675  67.930  1.00  0.00    -0.205 C  
HETATM    2  C   UNL     1     -10.004   6.127  67.706  1.00  0.00    -0.127 C  
ENDROOT
BRANCH   2   3
HETATM    3  C   UNL     1      -9.477   7.048  68.873  1.00  0.00    -0.137 C  
HETATM    4  H   UNL     1      -7.983   7.034  70.173  1.00  0.00     0.000 HD 
HETATM    5  O   UNL     1      -8.301   6.479  69.470  1.00  0.00    -0.127 OA 
BRANCH   3   6
HETATM    6  C   UNL     1     -10.452   7.459  69.970  1.00  0.00    -0.233 A  
HETATM    7  C   UNL     1     -10.131   8.523  70.832  1.00  0.00    -0.246 A  
HETATM    8  C   UNL     1     -10.904   8.770  71.972  1.00  0.00    -0.428 A  
HETATM    9  C   UNL     1     -12.015   7.978  72.255  1.00  0.00    -0.412 A  
HETATM   10  C   UNL     1     -12.385   6.966  71.373  1.00  0.00    -0.421 A  
HETATM   11  C   UNL     1     -11.615   6.716  70.235  1.00  0.00    -0.454 A  
ENDBRANCH   3   6
ENDBRANCH   2   3
BRANCH   2  12
HETATM   12  N   UNL     1      -9.571   6.586  66.343  1.00  0.00    -0.142 NA 
HETATM   13  C   UNL     1      -8.477   5.797  65.780  1.00  0.00    -0.143 C  
HETATM   14  C   UNL     1      -9.214   8.008  66.291  1.00  0.00    -0.184 C  
ENDBRANCH   2  12
TORSDOF 3
ENDMDL
MODEL      178
REMARK 921   NORMALIZED FREE ENERGY PREDICTED BY IDOCK:   -2.80 KCAL/MOL
REMARK 922        TOTAL FREE ENERGY PREDICTED BY IDOCK:   -3.55 KCAL/MOL
REMARK 923 INTER-LIGAND FREE ENERGY PREDICTED BY IDOCK:   -3.30 KCAL/MOL
REMARK 924 INTRA-LIGAND FREE ENERGY PREDICTED BY IDOCK:   -0.25 KCAL/MOL
REMARK 927      BINDING AFFINITY PREDICTED BY RF-SCORE:    0.00 PKD
ROOT
HETATM    1  C   UNL     1     -11.248  10.069  71.009  1.00  0.00    -0.387 C  
HETATM    2  C   UNL     1     -10.939   8.876  70.084  1.00  0.00    -0.227 C  
ENDROOT
BRANCH   2   3
HETATM    3  C   UNL     1      -9.528   9.069  69.408  1.00  0.00    -0.159 C  
HETATM    4  H   UNL     1      -7.866  10.080  69.776  1.00  0.00     0.000 HD 
HETATM    5  O   UNL     1      -8.716   9.964  70.184  1.00  0.00    -0.200 OA 
BRANCH   3   6
HETATM    6  C   UNL     1      -9.477   9.484  67.942  1.00  0.00    -0.149 A  
HETATM    7  C   UNL     1     -10.145  10.647  67.518  1.00  0.00    -0.217 A  
HETATM    8  C   UNL     1     -10.293  10.923  66.154  1.00  0.00    -0.305 A  
HETATM    9  C   UNL     1      -9.760  10.059  65.199  1.00  0.00    -0.380 A  
HETATM   10  C   UNL     1      -9.037   8.941  65.605  1.00  0.00    -0.269 A  
HETATM   11  C   UNL     1      -8.888   8.662  66.966  1.00  0.00    -0.143 A  
ENDBRANCH   3   6
ENDBRANCH   2   3
BRANCH   2  12
HETATM   12  N   UNL     1     -11.057   7.597  70.863  1.00  0.00    -0.258 NA 
HETATM   13  C   UNL     1     -10.643   6.413  70.112  1.00  0.00    -0.240 C  
HETATM   14  C   UNL     1     -12.396   7.371  71.417  1.00  0.00    -0.361 C  
ENDBRANCH   2  12
TORSDOF 3
ENDMDL
MODEL      179
REMARK 921   NORMALIZED FREE ENERGY PREDICTED BY IDOCK:   -2.79 KCAL/MOL
REMARK 922        TOTAL FREE ENERGY PREDICTED BY IDOCK:   -3.54 KCAL/MOL
REMARK 923 INTER-LIGAND FREE ENERGY PREDICTED BY IDOCK:   -3.30 KCAL/MOL
REMARK 924 INTRA-LIGAND FREE ENERGY PREDICTED BY IDOCK:   -0.24 KCAL/MOL
REMARK 927      BINDING AFFINITY PREDICTED BY RF-SCORE:    0.00 PKD
ROOT
HETATM    1  C   UNL     1     -10.584   9.002  67.928  1.00  0.00    -0.256 C  
HETATM    2  C   UNL     1      -9.436   8.466  68.806  1.00  0.00    -0.147 C  
ENDROOT
BRANCH   2   3
HETATM    3  C   UNL     1      -9.284   9.357  70.097  1.00  0.00    -0.234 C  
HETATM    4  H   UNL     1      -7.926  10.570  70.876  1.00  0.00     0.000 HD 
HETATM    5  O   UNL     1      -8.017  10.032  70.098  1.00  0.00    -0.179 OA 
BRANCH   3   6
HETATM    6  C   UNL     1      -9.510   8.707  71.458  1.00  0.00    -0.320 A  
HETATM    7  C   UNL     1      -8.417   8.196  72.182  1.00  0.00    -0.216 A  
HETATM    8  C   UNL     1      -8.626   7.407  73.318  1.00  0.00    -0.185 A  
HETATM    9  C   UNL     1      -9.920   7.137  73.761  1.00  0.00    -0.373 A  
HETATM   10  C   UNL     1     -11.008   7.694  73.094  1.00  0.00    -0.411 A  
HETATM   11  C   UNL     1     -10.804   8.481  71.959  1.00  0.00    -0.405 A  
ENDBRANCH   3   6
ENDBRANCH   2   3
BRANCH   2  12
HETATM   12  N   UNL     1      -9.675   7.014  69.108  1.00  0.00    -0.156 NA 
HETATM   13  C   UNL     1      -8.704   6.118  68.484  1.00  0.00    -0.111 C  
HETATM   14  C   UNL     1     -11.030   6.563  68.774  1.00  0.00    -0.305 C  
ENDBRANCH   2  12
TORSDOF 3
ENDMDL
MODEL      180
REMARK 921   NORMALIZED FREE ENERGY PREDICTED BY IDOCK:   -2.78 KCAL/MOL
REMARK 922        TOTAL FREE ENERGY PREDICTED BY IDOCK:   -3.52 KCAL/MOL
REMARK 923 INTER-LIGAND FREE ENERGY PREDICTED BY IDOCK:   -3.27 KCAL/MOL
REMARK 924 INTRA-LIGAND FREE ENERGY PREDICTED BY IDOCK:   -0.25 KCAL/MOL
REMARK 927      BINDING AFFINITY PREDICTED BY RF-SCORE:    0.00 PKD
ROOT
HETATM    1  C   UNL     1      -9.109  11.723  67.467  1.00  0.00    -0.175 C  
HETATM    2  C   UNL     1     -10.099  12.835  67.866  1.00  0.00    -0.231 C  
ENDROOT
BRANCH   2   3
HETATM    3  C   UNL     1     -10.392  13.765  66.628  1.00  0.00    -0.279 C  
HETATM    4  H   UNL     1      -9.814  13.896  64.738  1.00  0.00     0.000 HD 
HETATM    5  O   UNL     1      -9.637  13.335  65.485  1.00  0.00    -0.105 OA 
BRANCH   3   6
HETATM    6  C   UNL     1     -10.232  15.272  66.799  1.00  0.00    -0.273 A  
HETATM    7  C   UNL     1     -10.525  15.873  68.036  1.00  0.00    -0.274 A  
HETATM    8  C   UNL     1     -10.597  17.266  68.149  1.00  0.00    -0.386 A  
HETATM    9  C   UNL     1     -10.356  18.076  67.040  1.00  0.00    -0.377 A  
HETATM   10  C   UNL     1      -9.997  17.496  65.826  1.00  0.00    -0.060 A  
HETATM   11  C   UNL     1      -9.925  16.106  65.710  1.00  0.00    -0.370 A  
ENDBRANCH   3   6
ENDBRANCH   2   3
BRANCH   2  12
HETATM   12  N   UNL     1     -11.336  12.215  68.451  1.00  0.00    -0.260 NA 
HETATM   13  C   UNL     1     -11.582  12.595  69.840  1.00  0.00    -0.177 C  
HETATM   14  C   UNL     1     -11.365  10.752  68.340  1.00  0.00    -0.302 C  
ENDBRANCH   2  12
TORSDOF 3
ENDMDL
MODEL      181
REMARK 921   NORMALIZED FREE ENERGY PREDICTED BY IDOCK:   -2.76 KCAL/MOL
REMARK 922        TOTAL FREE ENERGY PREDICTED BY IDOCK:   -3.50 KCAL/MOL
REMARK 923 INTER-LIGAND FREE ENERGY PREDICTED BY IDOCK:   -3.26 KCAL/MOL
REMARK 924 INTRA-LIGAND FREE ENERGY PREDICTED BY IDOCK:   -0.25 KCAL/MOL
REMARK 927      BINDING AFFINITY PREDICTED BY RF-SCORE:    0.00 PKD
ROOT
HETATM    1  C   UNL     1     -11.231  16.628  68.269  1.00  0.00    -0.220 C  
HETATM    2  C   UNL     1      -9.838  16.576  67.611  1.00  0.00    -0.247 C  
ENDROOT
BRANCH   2   3
HETATM    3  C   UNL     1      -9.836  15.526  66.435  1.00  0.00    -0.278 C  
HETATM    4  H   UNL     1     -11.070  14.953  64.996  1.00  0.00     0.000 HD 
HETATM    5  O   UNL     1     -11.071  15.585  65.705  1.00  0.00    -0.308 OA 
BRANCH   3   6
HETATM    6  C   UNL     1      -9.513  14.072  66.761  1.00  0.00    -0.292 A  
HETATM    7  C   UNL     1      -8.229  13.723  67.216  1.00  0.00    -0.173 A  
HETATM    8  C   UNL     1      -7.850  12.379  67.308  1.00  0.00    -0.166 A  
HETATM    9  C   UNL     1      -8.750  11.369  66.973  1.00  0.00    -0.160 A  
HETATM   10  C   UNL     1     -10.047  11.698  66.589  1.00  0.00    -0.238 A  
HETATM   11  C   UNL     1     -10.428  13.039  66.494  1.00  0.00    -0.284 A  
ENDBRANCH   3   6
ENDBRANCH   2   3
BRANCH   2  12
HETATM   12  N   UNL     1      -9.439  17.958  67.176  1.00  0.00    -0.257 NA 
HETATM   13  C   UNL     1      -8.035  18.270  67.430  1.00  0.00    -0.231 C  
HETATM   14  C   UNL     1     -10.279  19.015  67.750  1.00  0.00    -0.402 C  
ENDBRANCH   2  12
TORSDOF 3
ENDMDL
MODEL      182
REMARK 921   NORMALIZED FREE ENERGY PREDICTED BY IDOCK:   -2.74 KCAL/MOL
REMARK 922        TOTAL FREE ENERGY PREDICTED BY IDOCK:   -3.48 KCAL/MOL
REMARK 923 INTER-LIGAND FREE ENERGY PREDICTED BY IDOCK:   -3.28 KCAL/MOL
REMARK 924 INTRA-LIGAND FREE ENERGY PREDICTED BY IDOCK:   -0.21 KCAL/MOL
REMARK 927      BINDING AFFINITY PREDICTED BY RF-SCORE:    0.00 PKD
ROOT
HETATM    1  C   UNL     1      -8.040  10.144  69.100  1.00  0.00    -0.134 C  
HETATM    2  C   UNL     1      -8.515   9.147  68.025  1.00  0.00    -0.121 C  
ENDROOT
BRANCH   2   3
HETATM    3  C   UNL     1      -9.991   8.688  68.331  1.00  0.00    -0.184 C  
HETATM    4  H   UNL     1     -11.532   7.971  67.313  1.00  0.00     0.000 HD 
HETATM    5  O   UNL     1     -10.642   8.249  67.129  1.00  0.00    -0.317 OA 
BRANCH   3   6
HETATM    6  C   UNL     1     -10.910   9.648  69.079  1.00  0.00    -0.206 A  
HETATM    7  C   UNL     1     -11.202  10.910  68.532  1.00  0.00    -0.335 A  
HETATM    8  C   UNL     1     -11.857  11.881  69.298  1.00  0.00    -0.379 A  
HETATM    9  C   UNL     1     -12.249  11.600  70.606  1.00  0.00    -0.461 A  
HETATM   10  C   UNL     1     -12.027  10.332  71.136  1.00  0.00    -0.472 A  
HETATM   11  C   UNL     1     -11.373   9.361  70.375  1.00  0.00    -0.295 A  
ENDBRANCH   3   6
ENDBRANCH   2   3
BRANCH   2  12
HETATM   12  N   UNL     1      -8.353   9.765  66.665  1.00  0.00    -0.123 NA 
HETATM   13  C   UNL     1      -7.359   9.093  65.831  1.00  0.00    -0.094 C  
HETATM   14  C   UNL     1      -8.054  11.201  66.707  1.00  0.00    -0.155 C  
ENDBRANCH   2  12
TORSDOF 3
ENDMDL
MODEL      183
REMARK 921   NORMALIZED FREE ENERGY PREDICTED BY IDOCK:   -2.72 KCAL/MOL
REMARK 922        TOTAL FREE ENERGY PREDICTED BY IDOCK:   -3.45 KCAL/MOL
REMARK 923 INTER-LIGAND FREE ENERGY PREDICTED BY IDOCK:   -3.31 KCAL/MOL
REMARK 924 INTRA-LIGAND FREE ENERGY PREDICTED BY IDOCK:   -0.15 KCAL/MOL
REMARK 927      BINDING AFFINITY PREDICTED BY RF-SCORE:    0.00 PKD
ROOT
HETATM    1  C   UNL     1      -8.158  14.006  67.937  1.00  0.00    -0.156 C  
HETATM    2  C   UNL     1      -7.603  15.395  68.308  1.00  0.00    -0.115 C  
ENDROOT
BRANCH   2   3
HETATM    3  C   UNL     1      -8.776  16.334  68.786  1.00  0.00    -0.244 C  
HETATM    4  H   UNL     1     -10.741  16.209  69.005  1.00  0.00     0.000 HD 
HETATM    5  O   UNL     1     -10.034  15.644  68.716  1.00  0.00    -0.200 OA 
BRANCH   3   6
HETATM    6  C   UNL     1      -8.917  17.707  68.139  1.00  0.00    -0.269 A  
HETATM    7  C   UNL     1      -7.807  18.308  67.519  1.00  0.00    -0.228 A  
HETATM    8  C   UNL     1      -7.859  19.648  67.118  1.00  0.00    -0.300 A  
HETATM    9  C   UNL     1      -9.020  20.396  67.307  1.00  0.00    -0.460 A  
HETATM   10  C   UNL     1     -10.148  19.793  67.856  1.00  0.00    -0.558 A  
HETATM   11  C   UNL     1     -10.100  18.457  68.259  1.00  0.00    -0.410 A  
ENDBRANCH   3   6
ENDBRANCH   2   3
BRANCH   2  12
HETATM   12  N   UNL     1      -6.510  15.241  69.326  1.00  0.00    -0.122 NA 
HETATM   13  C   UNL     1      -5.691  16.440  69.492  1.00  0.00    -0.161 C  
HETATM   14  C   UNL     1      -5.635  14.091  69.074  1.00  0.00    -0.084 C  
ENDBRANCH   2  12
TORSDOF 3
ENDMDL
MODEL      184
REMARK 921   NORMALIZED FREE ENERGY PREDICTED BY IDOCK:   -2.71 KCAL/MOL
REMARK 922        TOTAL FREE ENERGY PREDICTED BY IDOCK:   -3.45 KCAL/MOL
REMARK 923 INTER-LIGAND FREE ENERGY PREDICTED BY IDOCK:   -3.17 KCAL/MOL
REMARK 924 INTRA-LIGAND FREE ENERGY PREDICTED BY IDOCK:   -0.28 KCAL/MOL
REMARK 927      BINDING AFFINITY PREDICTED BY RF-SCORE:    0.00 PKD
ROOT
HETATM    1  C   UNL     1      -8.965  11.718  68.007  1.00  0.00    -0.176 C  
HETATM    2  C   UNL     1      -9.046  10.528  67.031  1.00  0.00    -0.143 C  
ENDROOT
BRANCH   2   3
HETATM    3  C   UNL     1     -10.462   9.844  67.132  1.00  0.00    -0.242 C  
HETATM    4  H   UNL     1     -12.259  10.314  67.819  1.00  0.00     0.000 HD 
HETATM    5  O   UNL     1     -11.405  10.727  67.759  1.00  0.00    -0.358 OA 
BRANCH   3   6
HETATM    6  C   UNL     1     -10.558   8.465  67.776  1.00  0.00    -0.238 A  
HETATM    7  C   UNL     1     -10.824   7.335  66.981  1.00  0.00    -0.350 A  
HETATM    8  C   UNL     1     -11.131   6.106  67.576  1.00  0.00    -0.318 A  
HETATM    9  C   UNL     1     -11.154   5.981  68.964  1.00  0.00    -0.377 A  
HETATM   10  C   UNL     1     -10.825   7.074  69.761  1.00  0.00    -0.276 A  
HETATM   11  C   UNL     1     -10.518   8.303  69.172  1.00  0.00    -0.217 A  
ENDBRANCH   3   6
ENDBRANCH   2   3
BRANCH   2  12
HETATM   12  N   UNL     1      -8.708  10.996  65.643  1.00  0.00    -0.181 NA 
HETATM   13  C   UNL     1      -9.674  10.576  64.632  1.00  0.00    -0.309 C  
HETATM   14  C   UNL     1      -7.359  10.612  65.210  1.00  0.00     0.015 C  
ENDBRANCH   2  12
TORSDOF 3
ENDMDL
MODEL      185
REMARK 921   NORMALIZED FREE ENERGY PREDICTED BY IDOCK:   -2.71 KCAL/MOL
REMARK 922        TOTAL FREE ENERGY PREDICTED BY IDOCK:   -3.45 KCAL/MOL
REMARK 923 INTER-LIGAND FREE ENERGY PREDICTED BY IDOCK:   -3.33 KCAL/MOL
REMARK 924 INTRA-LIGAND FREE ENERGY PREDICTED BY IDOCK:   -0.11 KCAL/MOL
REMARK 927      BINDING AFFINITY PREDICTED BY RF-SCORE:    0.00 PKD
ROOT
HETATM    1  C   UNL     1      -9.084   8.580  71.904  1.00  0.00    -0.314 C  
HETATM    2  C   UNL     1     -10.420   7.974  72.378  1.00  0.00    -0.301 C  
ENDROOT
BRANCH   2   3
HETATM    3  C   UNL     1     -11.526   8.179  71.274  1.00  0.00    -0.266 C  
HETATM    4  H   UNL     1     -12.728   7.038  70.189  1.00  0.00     0.000 HD 
HETATM    5  O   UNL     1     -12.061   6.914  70.854  1.00  0.00    -0.366 OA 
BRANCH   3   6
HETATM    6  C   UNL     1     -11.179   9.012  70.045  1.00  0.00    -0.141 A  
HETATM    7  C   UNL     1     -10.524   8.414  68.953  1.00  0.00    -0.208 A  
HETATM    8  C   UNL     1     -10.005   9.201  67.919  1.00  0.00    -0.228 A  
HETATM    9  C   UNL     1     -10.151  10.587  67.947  1.00  0.00    -0.204 A  
HETATM   10  C   UNL     1     -10.857  11.186  68.986  1.00  0.00    -0.276 A  
HETATM   11  C   UNL     1     -11.376  10.404  70.021  1.00  0.00    -0.384 A  
ENDBRANCH   3   6
ENDBRANCH   2   3
BRANCH   2  12
HETATM   12  N   UNL     1     -10.210   6.534  72.750  1.00  0.00    -0.181 NA 
HETATM   13  C   UNL     1     -10.277   6.285  74.189  1.00  0.00    -0.324 C  
HETATM   14  C   UNL     1      -8.964   5.969  72.221  1.00  0.00    -0.141 C  
ENDBRANCH   2  12
TORSDOF 3
ENDMDL
MODEL      186
REMARK 921   NORMALIZED FREE ENERGY PREDICTED BY IDOCK:   -2.71 KCAL/MOL
REMARK 922        TOTAL FREE ENERGY PREDICTED BY IDOCK:   -3.44 KCAL/MOL
REMARK 923 INTER-LIGAND FREE ENERGY PREDICTED BY IDOCK:   -3.23 KCAL/MOL
REMARK 924 INTRA-LIGAND FREE ENERGY PREDICTED BY IDOCK:   -0.22 KCAL/MOL
REMARK 927      BINDING AFFINITY PREDICTED BY RF-SCORE:    0.00 PKD
ROOT
HETATM    1  C   UNL     1     -10.448   9.301  70.420  1.00  0.00    -0.296 C  
HETATM    2  C   UNL     1      -9.901   8.251  71.407  1.00  0.00    -0.184 C  
ENDROOT
BRANCH   2   3
HETATM    3  C   UNL     1      -9.781   6.851  70.692  1.00  0.00    -0.175 C  
HETATM    4  H   UNL     1     -10.353   6.040  68.978  1.00  0.00     0.000 HD 
HETATM    5  O   UNL     1     -10.426   6.883  69.409  1.00  0.00    -0.199 OA 
BRANCH   3   6
HETATM    6  C   UNL     1     -10.231   5.608  71.451  1.00  0.00    -0.270 A  
HETATM    7  C   UNL     1     -11.154   5.724  72.505  1.00  0.00    -0.327 A  
HETATM    8  C   UNL     1     -11.409   4.637  73.349  1.00  0.00    -0.394 A  
HETATM    9  C   UNL     1     -10.766   3.418  73.140  1.00  0.00    -0.266 A  
HETATM   10  C   UNL     1      -9.902   3.269  72.059  1.00  0.00    -0.240 A  
HETATM   11  C   UNL     1      -9.645   4.352  71.215  1.00  0.00    -0.242 A  
ENDBRANCH   3   6
ENDBRANCH   2   3
BRANCH   2  12
HETATM   12  N   UNL     1      -8.603   8.738  71.986  1.00  0.00    -0.369 NA 
HETATM   13  C   UNL     1      -7.575   9.001  70.982  1.00  0.00    -0.115 C  
HETATM   14  C   UNL     1      -8.054   7.849  73.016  1.00  0.00    -0.147 C  
ENDBRANCH   2  12
TORSDOF 3
ENDMDL
MODEL      187
REMARK 921   NORMALIZED FREE ENERGY PREDICTED BY IDOCK:   -2.70 KCAL/MOL
REMARK 922        TOTAL FREE ENERGY PREDICTED BY IDOCK:   -3.43 KCAL/MOL
REMARK 923 INTER-LIGAND FREE ENERGY PREDICTED BY IDOCK:   -3.30 KCAL/MOL
REMARK 924 INTRA-LIGAND FREE ENERGY PREDICTED BY IDOCK:   -0.13 KCAL/MOL
REMARK 927      BINDING AFFINITY PREDICTED BY RF-SCORE:    0.00 PKD
ROOT
HETATM    1  C   UNL     1      -9.463   5.050  69.045  1.00  0.00    -0.194 C  
HETATM    2  C   UNL     1      -9.181   6.437  69.654  1.00  0.00    -0.142 C  
ENDROOT
BRANCH   2   3
HETATM    3  C   UNL     1      -9.992   6.611  70.995  1.00  0.00    -0.183 C  
HETATM    4  H   UNL     1     -11.198   5.512  72.118  1.00  0.00     0.000 HD 
HETATM    5  O   UNL     1     -10.709   5.407  71.310  1.00  0.00    -0.237 OA 
BRANCH   3   6
HETATM    6  C   UNL     1     -10.930   7.805  71.126  1.00  0.00    -0.259 A  
HETATM    7  C   UNL     1     -10.564   9.049  70.581  1.00  0.00    -0.290 A  
HETATM    8  C   UNL     1     -11.303  10.200  70.879  1.00  0.00    -0.420 A  
HETATM    9  C   UNL     1     -12.425  10.123  71.702  1.00  0.00    -0.506 A  
HETATM   10  C   UNL     1     -12.839   8.887  72.192  1.00  0.00    -0.471 A  
HETATM   11  C   UNL     1     -12.104   7.736  71.897  1.00  0.00    -0.341 A  
ENDBRANCH   3   6
ENDBRANCH   2   3
BRANCH   2  12
HETATM   12  N   UNL     1      -7.700   6.616  69.826  1.00  0.00    -0.110 NA 
HETATM   13  C   UNL     1      -7.332   7.874  70.472  1.00  0.00    -0.067 C  
HETATM   14  C   UNL     1      -6.946   6.478  68.575  1.00  0.00    -0.080 C  
ENDBRANCH   2  12
TORSDOF 3
ENDMDL
MODEL      188
REMARK 921   NORMALIZED FREE ENERGY PREDICTED BY IDOCK:   -2.69 KCAL/MOL
REMARK 922        TOTAL FREE ENERGY PREDICTED BY IDOCK:   -3.42 KCAL/MOL
REMARK 923 INTER-LIGAND FREE ENERGY PREDICTED BY IDOCK:   -3.54 KCAL/MOL
REMARK 924 INTRA-LIGAND FREE ENERGY PREDICTED BY IDOCK:    0.12 KCAL/MOL
REMARK 927      BINDING AFFINITY PREDICTED BY RF-SCORE:    0.00 PKD
ROOT
HETATM    1  C   UNL     1      -8.242  11.007  67.957  1.00  0.00    -0.123 C  
HETATM    2  C   UNL     1      -9.400  11.967  68.291  1.00  0.00    -0.193 C  
ENDROOT
BRANCH   2   3
HETATM    3  C   UNL     1      -9.292  13.269  67.410  1.00  0.00    -0.217 C  
HETATM    4  H   UNL     1      -9.158  15.222  67.711  1.00  0.00     0.000 HD 
HETATM    5  O   UNL     1      -9.223  14.437  68.242  1.00  0.00    -0.188 OA 
BRANCH   3   6
HETATM    6  C   UNL     1     -10.328  13.492  66.314  1.00  0.00    -0.293 A  
HETATM    7  C   UNL     1     -10.651  12.446  65.430  1.00  0.00    -0.316 A  
HETATM    8  C   UNL     1     -11.428  12.694  64.293  1.00  0.00    -0.420 A  
HETATM    9  C   UNL     1     -11.910  13.975  64.033  1.00  0.00    -0.339 A  
HETATM   10  C   UNL     1     -11.655  15.005  64.935  1.00  0.00    -0.374 A  
HETATM   11  C   UNL     1     -10.879  14.762  66.072  1.00  0.00    -0.318 A  
ENDBRANCH   3   6
ENDBRANCH   2   3
BRANCH   2  12
HETATM   12  N   UNL     1     -10.709  11.246  68.131  1.00  0.00    -0.192 NA 
HETATM   13  C   UNL     1     -11.658  11.507  69.211  1.00  0.00    -0.322 C  
HETATM   14  C   UNL     1     -10.559   9.796  67.961  1.00  0.00    -0.243 C  
ENDBRANCH   2  12
TORSDOF 3
ENDMDL
MODEL      189
REMARK 921   NORMALIZED FREE ENERGY PREDICTED BY IDOCK:   -2.67 KCAL/MOL
REMARK 922        TOTAL FREE ENERGY PREDICTED BY IDOCK:   -3.40 KCAL/MOL
REMARK 923 INTER-LIGAND FREE ENERGY PREDICTED BY IDOCK:   -3.12 KCAL/MOL
REMARK 924 INTRA-LIGAND FREE ENERGY PREDICTED BY IDOCK:   -0.28 KCAL/MOL
REMARK 927      BINDING AFFINITY PREDICTED BY RF-SCORE:    0.00 PKD
ROOT
HETATM    1  C   UNL     1     -10.686   9.643  70.624  1.00  0.00    -0.388 C  
HETATM    2  C   UNL     1      -9.468   8.764  70.974  1.00  0.00    -0.228 C  
ENDROOT
BRANCH   2   3
HETATM    3  C   UNL     1      -9.512   8.366  72.499  1.00  0.00    -0.289 C  
HETATM    4  H   UNL     1      -8.334   8.539  74.081  1.00  0.00     0.000 HD 
HETATM    5  O   UNL     1      -8.307   8.779  73.162  1.00  0.00    -0.402 OA 
BRANCH   3   6
HETATM    6  C   UNL     1      -9.816   6.917  72.861  1.00  0.00    -0.195 A  
HETATM    7  C   UNL     1      -8.763   5.997  73.019  1.00  0.00    -0.122 A  
HETATM    8  C   UNL     1      -9.029   4.628  73.133  1.00  0.00    -0.119 A  
HETATM    9  C   UNL     1     -10.342   4.161  73.115  1.00  0.00    -0.237 A  
HETATM   10  C   UNL     1     -11.396   5.067  73.029  1.00  0.00    -0.374 A  
HETATM   11  C   UNL     1     -11.135   6.434  72.914  1.00  0.00    -0.259 A  
ENDBRANCH   3   6
ENDBRANCH   2   3
BRANCH   2  12
HETATM   12  N   UNL     1      -9.424   7.581  70.050  1.00  0.00    -0.161 NA 
HETATM   13  C   UNL     1      -8.253   7.562  69.177  1.00  0.00    -0.131 C  
HETATM   14  C   UNL     1     -10.635   7.431  69.235  1.00  0.00    -0.213 C  
ENDBRANCH   2  12
TORSDOF 3
ENDMDL
MODEL      190
REMARK 921   NORMALIZED FREE ENERGY PREDICTED BY IDOCK:   -2.66 KCAL/MOL
REMARK 922        TOTAL FREE ENERGY PREDICTED BY IDOCK:   -3.38 KCAL/MOL
REMARK 923 INTER-LIGAND FREE ENERGY PREDICTED BY IDOCK:   -3.02 KCAL/MOL
REMARK 924 INTRA-LIGAND FREE ENERGY PREDICTED BY IDOCK:   -0.36 KCAL/MOL
REMARK 927      BINDING AFFINITY PREDICTED BY RF-SCORE:    0.00 PKD
ROOT
HETATM    1  C   UNL     1      -8.084   8.971  67.090  1.00  0.00    -0.106 C  
HETATM    2  C   UNL     1      -8.619   9.274  65.677  1.00  0.00    -0.153 C  
ENDROOT
BRANCH   2   3
HETATM    3  C   UNL     1     -10.030   9.969  65.773  1.00  0.00    -0.276 C  
HETATM    4  H   UNL     1     -11.195  11.064  64.603  1.00  0.00     0.000 HD 
HETATM    5  O   UNL     1     -10.344  10.645  64.545  1.00  0.00    -0.355 OA 
BRANCH   3   6
HETATM    6  C   UNL     1     -10.299  10.905  66.946  1.00  0.00    -0.285 A  
HETATM    7  C   UNL     1     -11.260  10.560  67.913  1.00  0.00    -0.358 A  
HETATM    8  C   UNL     1     -11.675  11.498  68.867  1.00  0.00    -0.403 A  
HETATM    9  C   UNL     1     -11.124  12.777  68.883  1.00  0.00    -0.310 A  
HETATM   10  C   UNL     1     -10.122  13.110  67.974  1.00  0.00    -0.232 A  
HETATM   11  C   UNL     1      -9.706  12.178  67.021  1.00  0.00    -0.208 A  
ENDBRANCH   3   6
ENDBRANCH   2   3
BRANCH   2  12
HETATM   12  N   UNL     1      -7.605  10.086  64.922  1.00  0.00    -0.136 NA 
HETATM   13  C   UNL     1      -7.031   9.386  63.774  1.00  0.00    -0.095 C  
HETATM   14  C   UNL     1      -6.519  10.596  65.767  1.00  0.00    -0.107 C  
ENDBRANCH   2  12
TORSDOF 3
ENDMDL
MODEL      191
REMARK 921   NORMALIZED FREE ENERGY PREDICTED BY IDOCK:   -2.65 KCAL/MOL
REMARK 922        TOTAL FREE ENERGY PREDICTED BY IDOCK:   -3.38 KCAL/MOL
REMARK 923 INTER-LIGAND FREE ENERGY PREDICTED BY IDOCK:   -3.25 KCAL/MOL
REMARK 924 INTRA-LIGAND FREE ENERGY PREDICTED BY IDOCK:   -0.13 KCAL/MOL
REMARK 927      BINDING AFFINITY PREDICTED BY RF-SCORE:    0.00 PKD
ROOT
HETATM    1  C   UNL     1      -6.145  17.456  66.479  1.00  0.00    -0.250 C  
HETATM    2  C   UNL     1      -7.019  18.675  66.126  1.00  0.00    -0.254 C  
ENDROOT
BRANCH   2   3
HETATM    3  C   UNL     1      -8.508  18.419  66.576  1.00  0.00    -0.270 C  
HETATM    4  H   UNL     1      -9.832  19.274  67.775  1.00  0.00     0.000 HD 
HETATM    5  O   UNL     1      -8.935  19.428  67.504  1.00  0.00    -0.293 OA 
BRANCH   3   6
HETATM    6  C   UNL     1      -8.874  17.044  67.123  1.00  0.00    -0.232 A  
HETATM    7  C   UNL     1      -8.812  16.800  68.507  1.00  0.00    -0.248 A  
HETATM    8  C   UNL     1      -8.929  15.496  69.003  1.00  0.00    -0.237 A  
HETATM    9  C   UNL     1      -9.132  14.427  68.133  1.00  0.00    -0.194 A  
HETATM   10  C   UNL     1      -9.264  14.663  66.767  1.00  0.00    -0.285 A  
HETATM   11  C   UNL     1      -9.147  15.962  66.268  1.00  0.00    -0.379 A  
ENDBRANCH   3   6
ENDBRANCH   2   3
BRANCH   2  12
HETATM   12  N   UNL     1      -6.418  19.913  66.730  1.00  0.00    -0.193 NA 
HETATM   13  C   UNL     1      -6.122  20.958  65.753  1.00  0.00    -0.246 C  
HETATM   14  C   UNL     1      -5.218  19.648  67.531  1.00  0.00    -0.169 C  
ENDBRANCH   2  12
TORSDOF 3
ENDMDL
MODEL      192
REMARK 921   NORMALIZED FREE ENERGY PREDICTED BY IDOCK:   -2.63 KCAL/MOL
REMARK 922        TOTAL FREE ENERGY PREDICTED BY IDOCK:   -3.36 KCAL/MOL
REMARK 923 INTER-LIGAND FREE ENERGY PREDICTED BY IDOCK:   -3.05 KCAL/MOL
REMARK 924 INTRA-LIGAND FREE ENERGY PREDICTED BY IDOCK:   -0.31 KCAL/MOL
REMARK 927      BINDING AFFINITY PREDICTED BY RF-SCORE:    0.00 PKD
ROOT
HETATM    1  C   UNL     1     -10.292   7.675  68.527  1.00  0.00    -0.225 C  
HETATM    2  C   UNL     1     -10.729   6.988  69.836  1.00  0.00    -0.240 C  
ENDROOT
BRANCH   2   3
HETATM    3  C   UNL     1      -9.468   6.420  70.593  1.00  0.00    -0.165 C  
HETATM    4  H   UNL     1      -7.585   5.984  70.158  1.00  0.00     0.000 HD 
HETATM    5  O   UNL     1      -8.346   6.326  69.701  1.00  0.00    -0.122 OA 
BRANCH   3   6
HETATM    6  C   UNL     1      -9.611   5.112  71.362  1.00  0.00    -0.215 A  
HETATM    7  C   UNL     1      -9.294   3.892  70.739  1.00  0.00    -0.214 A  
HETATM    8  C   UNL     1      -9.626   2.677  71.349  1.00  0.00    -0.222 A  
HETATM    9  C   UNL     1     -10.254   2.661  72.593  1.00  0.00    -0.235 A  
HETATM   10  C   UNL     1     -10.512   3.860  73.252  1.00  0.00    -0.256 A  
HETATM   11  C   UNL     1     -10.183   5.075  72.646  1.00  0.00    -0.236 A  
ENDBRANCH   3   6
ENDBRANCH   2   3
BRANCH   2  12
HETATM   12  N   UNL     1     -11.536   7.950  70.661  1.00  0.00    -0.267 NA 
HETATM   13  C   UNL     1     -10.770   8.593  71.726  1.00  0.00    -0.321 C  
HETATM   14  C   UNL     1     -12.749   7.355  71.232  1.00  0.00    -0.331 C  
ENDBRANCH   2  12
TORSDOF 3
ENDMDL
MODEL      193
REMARK 921   NORMALIZED FREE ENERGY PREDICTED BY IDOCK:   -2.63 KCAL/MOL
REMARK 922        TOTAL FREE ENERGY PREDICTED BY IDOCK:   -3.35 KCAL/MOL
REMARK 923 INTER-LIGAND FREE ENERGY PREDICTED BY IDOCK:   -3.10 KCAL/MOL
REMARK 924 INTRA-LIGAND FREE ENERGY PREDICTED BY IDOCK:   -0.26 KCAL/MOL
REMARK 927      BINDING AFFINITY PREDICTED BY RF-SCORE:    0.00 PKD
ROOT
HETATM    1  C   UNL     1      -8.667   5.801  67.123  1.00  0.00    -0.108 C  
HETATM    2  C   UNL     1      -8.896   6.742  68.322  1.00  0.00    -0.125 C  
ENDROOT
BRANCH   2   3
HETATM    3  C   UNL     1     -10.423   7.119  68.426  1.00  0.00    -0.197 C  
HETATM    4  H   UNL     1     -11.680   8.355  67.522  1.00  0.00     0.000 HD 
HETATM    5  O   UNL     1     -10.760   8.127  67.460  1.00  0.00    -0.242 OA 
BRANCH   3   6
HETATM    6  C   UNL     1     -10.981   7.520  69.787  1.00  0.00    -0.195 A  
HETATM    7  C   UNL     1     -10.679   8.784  70.325  1.00  0.00    -0.249 A  
HETATM    8  C   UNL     1     -10.996   9.082  71.656  1.00  0.00    -0.435 A  
HETATM    9  C   UNL     1     -11.635   8.137  72.457  1.00  0.00    -0.468 A  
HETATM   10  C   UNL     1     -12.002   6.908  71.916  1.00  0.00    -0.363 A  
HETATM   11  C   UNL     1     -11.687   6.606  70.589  1.00  0.00    -0.452 A  
ENDBRANCH   3   6
ENDBRANCH   2   3
BRANCH   2  12
HETATM   12  N   UNL     1      -8.355   6.103  69.570  1.00  0.00    -0.119 NA 
HETATM   13  C   UNL     1      -6.940   6.382  69.804  1.00  0.00    -0.067 C  
HETATM   14  C   UNL     1      -8.576   4.654  69.627  1.00  0.00    -0.077 C  
ENDBRANCH   2  12
TORSDOF 3
ENDMDL
MODEL      194
REMARK 921   NORMALIZED FREE ENERGY PREDICTED BY IDOCK:   -2.62 KCAL/MOL
REMARK 922        TOTAL FREE ENERGY PREDICTED BY IDOCK:   -3.34 KCAL/MOL
REMARK 923 INTER-LIGAND FREE ENERGY PREDICTED BY IDOCK:   -3.70 KCAL/MOL
REMARK 924 INTRA-LIGAND FREE ENERGY PREDICTED BY IDOCK:    0.36 KCAL/MOL
REMARK 927      BINDING AFFINITY PREDICTED BY RF-SCORE:    0.00 PKD
ROOT
HETATM    1  C   UNL     1      -9.401  15.270  68.861  1.00  0.00    -0.213 C  
HETATM    2  C   UNL     1     -10.263  16.431  69.394  1.00  0.00    -0.273 C  
ENDROOT
BRANCH   2   3
HETATM    3  C   UNL     1     -10.468  17.512  68.265  1.00  0.00    -0.383 C  
HETATM    4  H   UNL     1     -11.491  17.677  66.578  1.00  0.00     0.000 HD 
HETATM    5  O   UNL     1     -11.368  17.025  67.258  1.00  0.00     0.149 OA 
BRANCH   3   6
HETATM    6  C   UNL     1      -9.233  18.103  67.594  1.00  0.00    -0.259 A  
HETATM    7  C   UNL     1      -9.144  19.491  67.384  1.00  0.00    -0.377 A  
HETATM    8  C   UNL     1      -8.130  20.023  66.580  1.00  0.00    -0.346 A  
HETATM    9  C   UNL     1      -7.180  19.186  65.997  1.00  0.00    -0.298 A  
HETATM   10  C   UNL     1      -7.215  17.818  66.254  1.00  0.00    -0.331 A  
HETATM   11  C   UNL     1      -8.227  17.283  67.055  1.00  0.00    -0.233 A  
ENDBRANCH   3   6
ENDBRANCH   2   3
BRANCH   2  12
HETATM   12  N   UNL     1     -11.554  15.886  69.938  1.00  0.00    -0.336 NA 
HETATM   13  C   UNL     1     -11.686  16.031  71.386  1.00  0.00    -0.473 C  
HETATM   14  C   UNL     1     -11.799  14.487  69.569  1.00  0.00    -0.329 C  
ENDBRANCH   2  12
TORSDOF 3
ENDMDL
MODEL      195
REMARK 921   NORMALIZED FREE ENERGY PREDICTED BY IDOCK:   -2.60 KCAL/MOL
REMARK 922        TOTAL FREE ENERGY PREDICTED BY IDOCK:   -3.31 KCAL/MOL
REMARK 923 INTER-LIGAND FREE ENERGY PREDICTED BY IDOCK:   -3.00 KCAL/MOL
REMARK 924 INTRA-LIGAND FREE ENERGY PREDICTED BY IDOCK:   -0.32 KCAL/MOL
REMARK 927      BINDING AFFINITY PREDICTED BY RF-SCORE:    0.00 PKD
ROOT
HETATM    1  C   UNL     1      -9.462   8.228  67.851  1.00  0.00    -0.163 C  
HETATM    2  C   UNL     1     -10.509   8.425  68.964  1.00  0.00    -0.201 C  
ENDROOT
BRANCH   2   3
HETATM    3  C   UNL     1     -10.556   7.150  69.891  1.00  0.00    -0.230 C  
HETATM    4  H   UNL     1     -11.926   5.879  70.547  1.00  0.00     0.000 HD 
HETATM    5  O   UNL     1     -11.898   6.648  69.989  1.00  0.00    -0.372 OA 
BRANCH   3   6
HETATM    6  C   UNL     1      -9.950   7.244  71.286  1.00  0.00    -0.191 A  
HETATM    7  C   UNL     1      -8.553   7.222  71.448  1.00  0.00    -0.115 A  
HETATM    8  C   UNL     1      -7.989   7.086  72.722  1.00  0.00    -0.110 A  
HETATM    9  C   UNL     1      -8.804   6.995  73.848  1.00  0.00    -0.207 A  
HETATM   10  C   UNL     1     -10.187   7.086  73.709  1.00  0.00    -0.401 A  
HETATM   11  C   UNL     1     -10.754   7.221  72.439  1.00  0.00    -0.283 A  
ENDBRANCH   3   6
ENDBRANCH   2   3
BRANCH   2  12
HETATM   12  N   UNL     1     -10.211   9.694  69.712  1.00  0.00    -0.220 NA 
HETATM   13  C   UNL     1     -11.400  10.489  70.013  1.00  0.00    -0.318 C  
HETATM   14  C   UNL     1      -9.219  10.544  69.046  1.00  0.00    -0.185 C  
ENDBRANCH   2  12
TORSDOF 3
ENDMDL
MODEL      196
REMARK 921   NORMALIZED FREE ENERGY PREDICTED BY IDOCK:   -2.57 KCAL/MOL
REMARK 922        TOTAL FREE ENERGY PREDICTED BY IDOCK:   -3.28 KCAL/MOL
REMARK 923 INTER-LIGAND FREE ENERGY PREDICTED BY IDOCK:   -2.97 KCAL/MOL
REMARK 924 INTRA-LIGAND FREE ENERGY PREDICTED BY IDOCK:   -0.31 KCAL/MOL
REMARK 927      BINDING AFFINITY PREDICTED BY RF-SCORE:    0.00 PKD
ROOT
HETATM    1  C   UNL     1      -8.039  10.245  68.884  1.00  0.00    -0.123 C  
HETATM    2  C   UNL     1      -8.328   8.751  69.133  1.00  0.00    -0.125 C  
ENDROOT
BRANCH   2   3
HETATM    3  C   UNL     1      -9.814   8.416  68.727  1.00  0.00    -0.173 C  
HETATM    4  H   UNL     1     -11.206   9.179  67.541  1.00  0.00     0.000 HD 
HETATM    5  O   UNL     1     -10.310   9.382  67.786  1.00  0.00    -0.208 OA 
BRANCH   3   6
HETATM    6  C   UNL     1     -10.842   8.218  69.835  1.00  0.00    -0.213 A  
HETATM    7  C   UNL     1     -11.191   9.295  70.670  1.00  0.00    -0.333 A  
HETATM    8  C   UNL     1     -11.959   9.081  71.820  1.00  0.00    -0.438 A  
HETATM    9  C   UNL     1     -12.407   7.801  72.140  1.00  0.00    -0.303 A  
HETATM   10  C   UNL     1     -12.128   6.737  71.286  1.00  0.00    -0.421 A  
HETATM   11  C   UNL     1     -11.361   6.947  70.137  1.00  0.00    -0.364 A  
ENDBRANCH   3   6
ENDBRANCH   2   3
BRANCH   2  12
HETATM   12  N   UNL     1      -7.310   7.918  68.408  1.00  0.00    -0.099 NA 
HETATM   13  C   UNL     1      -6.645   8.624  67.316  1.00  0.00    -0.058 C  
HETATM   14  C   UNL     1      -7.847   6.649  67.904  1.00  0.00    -0.112 C  
ENDBRANCH   2  12
TORSDOF 3
ENDMDL
MODEL      197
REMARK 921   NORMALIZED FREE ENERGY PREDICTED BY IDOCK:   -2.57 KCAL/MOL
REMARK 922        TOTAL FREE ENERGY PREDICTED BY IDOCK:   -3.28 KCAL/MOL
REMARK 923 INTER-LIGAND FREE ENERGY PREDICTED BY IDOCK:   -2.97 KCAL/MOL
REMARK 924 INTRA-LIGAND FREE ENERGY PREDICTED BY IDOCK:   -0.31 KCAL/MOL
REMARK 927      BINDING AFFINITY PREDICTED BY RF-SCORE:    0.00 PKD
ROOT
HETATM    1  C   UNL     1      -7.543   7.487  66.527  1.00  0.00    -0.089 C  
HETATM    2  C   UNL     1      -8.033   8.931  66.752  1.00  0.00    -0.107 C  
ENDROOT
BRANCH   2   3
HETATM    3  C   UNL     1      -9.591   8.940  66.987  1.00  0.00    -0.176 C  
HETATM    4  H   UNL     1     -11.127   7.748  66.605  1.00  0.00     0.000 HD 
HETATM    5  O   UNL     1     -10.187   7.743  66.463  1.00  0.00    -0.236 OA 
BRANCH   3   6
HETATM    6  C   UNL     1     -10.390  10.149  66.513  1.00  0.00    -0.270 A  
HETATM    7  C   UNL     1     -10.305  10.565  65.172  1.00  0.00    -0.310 A  
HETATM    8  C   UNL     1     -10.851  11.791  64.774  1.00  0.00    -0.358 A  
HETATM    9  C   UNL     1     -11.506  12.603  65.697  1.00  0.00    -0.387 A  
HETATM   10  C   UNL     1     -11.659  12.171  67.012  1.00  0.00    -0.406 A  
HETATM   11  C   UNL     1     -11.114  10.949  67.414  1.00  0.00    -0.373 A  
ENDBRANCH   3   6
ENDBRANCH   2   3
BRANCH   2  12
HETATM   12  N   UNL     1      -7.256   9.552  67.878  1.00  0.00    -0.081 NA 
HETATM   13  C   UNL     1      -7.932   9.469  69.171  1.00  0.00    -0.094 C  
HETATM   14  C   UNL     1      -6.873  10.945  67.623  1.00  0.00    -0.081 C  
ENDBRANCH   2  12
TORSDOF 3
ENDMDL
MODEL      198
REMARK 921   NORMALIZED FREE ENERGY PREDICTED BY IDOCK:   -2.54 KCAL/MOL
REMARK 922        TOTAL FREE ENERGY PREDICTED BY IDOCK:   -3.24 KCAL/MOL
REMARK 923 INTER-LIGAND FREE ENERGY PREDICTED BY IDOCK:   -3.05 KCAL/MOL
REMARK 924 INTRA-LIGAND FREE ENERGY PREDICTED BY IDOCK:   -0.19 KCAL/MOL
REMARK 927      BINDING AFFINITY PREDICTED BY RF-SCORE:    0.00 PKD
ROOT
HETATM    1  C   UNL     1      -9.244  15.813  68.866  1.00  0.00    -0.227 C  
HETATM    2  C   UNL     1      -8.191  14.788  68.400  1.00  0.00    -0.154 C  
ENDROOT
BRANCH   2   3
HETATM    3  C   UNL     1      -8.868  13.382  68.178  1.00  0.00    -0.180 C  
HETATM    4  H   UNL     1      -8.285  11.537  67.755  1.00  0.00     0.000 HD 
HETATM    5  O   UNL     1      -7.877  12.385  67.889  1.00  0.00    -0.122 OA 
BRANCH   3   6
HETATM    6  C   UNL     1     -10.001  13.275  67.163  1.00  0.00    -0.238 A  
HETATM    7  C   UNL     1     -11.332  13.470  67.574  1.00  0.00    -0.335 A  
HETATM    8  C   UNL     1     -12.392  13.161  66.713  1.00  0.00    -0.173 A  
HETATM    9  C   UNL     1     -12.141  12.679  65.430  1.00  0.00    -0.516 A  
HETATM   10  C   UNL     1     -10.828  12.548  64.987  1.00  0.00    -0.324 A  
HETATM   11  C   UNL     1      -9.767  12.854  65.843  1.00  0.00    -0.190 A  
ENDBRANCH   3   6
ENDBRANCH   2   3
BRANCH   2  12
HETATM   12  N   UNL     1      -7.490  15.312  67.179  1.00  0.00    -0.198 NA 
HETATM   13  C   UNL     1      -6.130  15.779  67.438  1.00  0.00    -0.083 C  
HETATM   14  C   UNL     1      -8.237  16.366  66.484  1.00  0.00    -0.306 C  
ENDBRANCH   2  12
TORSDOF 3
ENDMDL
MODEL      199
REMARK 921   NORMALIZED FREE ENERGY PREDICTED BY IDOCK:   -2.53 KCAL/MOL
REMARK 922        TOTAL FREE ENERGY PREDICTED BY IDOCK:   -3.23 KCAL/MOL
REMARK 923 INTER-LIGAND FREE ENERGY PREDICTED BY IDOCK:   -3.07 KCAL/MOL
REMARK 924 INTRA-LIGAND FREE ENERGY PREDICTED BY IDOCK:   -0.16 KCAL/MOL
REMARK 927      BINDING AFFINITY PREDICTED BY RF-SCORE:    0.00 PKD
ROOT
HETATM    1  C   UNL     1     -10.941  16.959  68.281  1.00  0.00    -0.298 C  
HETATM    2  C   UNL     1      -9.577  17.679  68.278  1.00  0.00    -0.306 C  
ENDROOT
BRANCH   2   3
HETATM    3  C   UNL     1      -8.595  16.966  67.272  1.00  0.00    -0.196 C  
HETATM    4  H   UNL     1      -8.648  16.318  65.401  1.00  0.00     0.000 HD 
HETATM    5  O   UNL     1      -9.240  16.747  66.007  1.00  0.00    -0.421 OA 
BRANCH   3   6
HETATM    6  C   UNL     1      -7.909  15.679  67.716  1.00  0.00    -0.158 A  
HETATM    7  C   UNL     1      -8.104  14.491  66.989  1.00  0.00    -0.125 A  
HETATM    8  C   UNL     1      -7.666  13.265  67.502  1.00  0.00    -0.175 A  
HETATM    9  C   UNL     1      -7.009  13.210  68.730  1.00  0.00    -0.103 A  
HETATM   10  C   UNL     1      -6.747  14.386  69.427  1.00  0.00    -0.140 A  
HETATM   11  C   UNL     1      -7.184  15.611  68.919  1.00  0.00    -0.146 A  
ENDBRANCH   3   6
ENDBRANCH   2   3
BRANCH   2  12
HETATM   12  N   UNL     1      -9.782  19.136  67.978  1.00  0.00    -0.326 NA 
HETATM   13  C   UNL     1     -10.062  19.944  69.163  1.00  0.00    -0.244 C  
HETATM   14  C   UNL     1     -10.819  19.385  66.970  1.00  0.00    -0.432 C  
ENDBRANCH   2  12
TORSDOF 3
ENDMDL
MODEL      200
REMARK 921   NORMALIZED FREE ENERGY PREDICTED BY IDOCK:   -2.51 KCAL/MOL
REMARK 922        TOTAL FREE ENERGY PREDICTED BY IDOCK:   -3.21 KCAL/MOL
REMARK 923 INTER-LIGAND FREE ENERGY PREDICTED BY IDOCK:   -2.96 KCAL/MOL
REMARK 924 INTRA-LIGAND FREE ENERGY PREDICTED BY IDOCK:   -0.25 KCAL/MOL
REMARK 927      BINDING AFFINITY PREDICTED BY RF-SCORE:    0.00 PKD
ROOT
HETATM    1  C   UNL     1      -8.885   5.778  66.517  1.00  0.00    -0.126 C  
HETATM    2  C   UNL     1      -8.791   7.056  67.373  1.00  0.00    -0.119 C  
ENDROOT
BRANCH   2   3
HETATM    3  C   UNL     1     -10.196   7.385  68.007  1.00  0.00    -0.191 C  
HETATM    4  H   UNL     1     -12.099   7.030  67.587  1.00  0.00     0.000 HD 
HETATM    5  O   UNL     1     -11.252   6.833  67.205  1.00  0.00    -0.379 OA 
BRANCH   3   6
HETATM    6  C   UNL     1     -10.522   8.837  68.338  1.00  0.00    -0.220 A  
HETATM    7  C   UNL     1     -10.831   9.203  69.660  1.00  0.00    -0.210 A  
HETATM    8  C   UNL     1     -11.343  10.475  69.942  1.00  0.00    -0.380 A  
HETATM    9  C   UNL     1     -11.529  11.402  68.918  1.00  0.00    -0.363 A  
HETATM   10  C   UNL     1     -11.162  11.077  67.616  1.00  0.00    -0.373 A  
HETATM   11  C   UNL     1     -10.652   9.808  67.330  1.00  0.00    -0.320 A  
ENDBRANCH   3   6
ENDBRANCH   2   3
BRANCH   2  12
HETATM   12  N   UNL     1      -7.700   6.894  68.393  1.00  0.00    -0.114 NA 
HETATM   13  C   UNL     1      -6.526   6.186  67.889  1.00  0.00    -0.049 C  
HETATM   14  C   UNL     1      -8.152   6.256  69.634  1.00  0.00    -0.120 C  
ENDBRANCH   2  12
TORSDOF 3
ENDMDL
MODEL      201
REMARK 921   NORMALIZED FREE ENERGY PREDICTED BY IDOCK:   -2.48 KCAL/MOL
REMARK 922        TOTAL FREE ENERGY PREDICTED BY IDOCK:   -3.18 KCAL/MOL
REMARK 923 INTER-LIGAND FREE ENERGY PREDICTED BY IDOCK:   -2.95 KCAL/MOL
REMARK 924 INTRA-LIGAND FREE ENERGY PREDICTED BY IDOCK:   -0.23 KCAL/MOL
REMARK 927      BINDING AFFINITY PREDICTED BY RF-SCORE:    0.00 PKD
ROOT
HETATM    1  C   UNL     1     -10.907   9.849  67.668  1.00  0.00    -0.318 C  
HETATM    2  C   UNL     1      -9.900   9.033  68.503  1.00  0.00    -0.169 C  
ENDROOT
BRANCH   2   3
HETATM    3  C   UNL     1      -9.970   7.512  68.095  1.00  0.00    -0.172 C  
HETATM    4  H   UNL     1     -11.002   6.392  66.830  1.00  0.00     0.000 HD 
HETATM    5  O   UNL     1     -10.960   7.309  67.076  1.00  0.00    -0.358 OA 
BRANCH   3   6
HETATM    6  C   UNL     1     -10.158   6.474  69.196  1.00  0.00    -0.190 A  
HETATM    7  C   UNL     1     -10.683   6.859  70.442  1.00  0.00    -0.278 A  
HETATM    8  C   UNL     1     -10.658   5.974  71.526  1.00  0.00    -0.295 A  
HETATM    9  C   UNL     1     -10.132   4.692  71.378  1.00  0.00    -0.248 A  
HETATM   10  C   UNL     1      -9.672   4.275  70.132  1.00  0.00    -0.282 A  
HETATM   11  C   UNL     1      -9.695   5.155  69.047  1.00  0.00    -0.227 A  
ENDBRANCH   3   6
ENDBRANCH   2   3
BRANCH   2  12
HETATM   12  N   UNL     1      -8.529   9.628  68.352  1.00  0.00    -0.117 NA 
HETATM   13  C   UNL     1      -7.952  10.098  69.610  1.00  0.00    -0.173 C  
HETATM   14  C   UNL     1      -8.467  10.709  67.361  1.00  0.00    -0.122 C  
ENDBRANCH   2  12
TORSDOF 3
ENDMDL
MODEL      202
REMARK 921   NORMALIZED FREE ENERGY PREDICTED BY IDOCK:   -2.48 KCAL/MOL
REMARK 922        TOTAL FREE ENERGY PREDICTED BY IDOCK:   -3.18 KCAL/MOL
REMARK 923 INTER-LIGAND FREE ENERGY PREDICTED BY IDOCK:   -3.00 KCAL/MOL
REMARK 924 INTRA-LIGAND FREE ENERGY PREDICTED BY IDOCK:   -0.17 KCAL/MOL
REMARK 927      BINDING AFFINITY PREDICTED BY RF-SCORE:    0.00 PKD
ROOT
HETATM    1  C   UNL     1      -8.869   3.630  69.460  1.00  0.00    -0.152 C  
HETATM    2  C   UNL     1      -9.859   4.521  68.684  1.00  0.00    -0.098 C  
ENDROOT
BRANCH   2   3
HETATM    3  C   UNL     1      -9.542   6.041  68.956  1.00  0.00    -0.131 C  
HETATM    4  H   UNL     1      -7.933   7.173  69.180  1.00  0.00     0.000 HD 
HETATM    5  O   UNL     1      -8.124   6.257  69.017  1.00  0.00    -0.108 OA 
BRANCH   3   6
HETATM    6  C   UNL     1     -10.207   6.718  70.149  1.00  0.00    -0.215 A  
HETATM    7  C   UNL     1     -11.576   6.516  70.398  1.00  0.00    -0.470 A  
HETATM    8  C   UNL     1     -12.247   7.295  71.348  1.00  0.00    -0.384 A  
HETATM    9  C   UNL     1     -11.560   8.266  72.075  1.00  0.00    -0.403 A  
HETATM   10  C   UNL     1     -10.191   8.429  71.887  1.00  0.00    -0.340 A  
HETATM   11  C   UNL     1      -9.518   7.654  70.940  1.00  0.00    -0.166 A  
ENDBRANCH   3   6
ENDBRANCH   2   3
BRANCH   2  12
HETATM   12  N   UNL     1      -9.822   4.156  67.227  1.00  0.00    -0.171 NA 
HETATM   13  C   UNL     1      -8.472   4.083  66.675  1.00  0.00    -0.104 C  
HETATM   14  C   UNL     1     -10.641   5.035  66.384  1.00  0.00    -0.261 C  
ENDBRANCH   2  12
TORSDOF 3
ENDMDL
MODEL      203
REMARK 921   NORMALIZED FREE ENERGY PREDICTED BY IDOCK:   -2.46 KCAL/MOL
REMARK 922        TOTAL FREE ENERGY PREDICTED BY IDOCK:   -3.15 KCAL/MOL
REMARK 923 INTER-LIGAND FREE ENERGY PREDICTED BY IDOCK:   -2.84 KCAL/MOL
REMARK 924 INTRA-LIGAND FREE ENERGY PREDICTED BY IDOCK:   -0.31 KCAL/MOL
REMARK 927      BINDING AFFINITY PREDICTED BY RF-SCORE:    0.00 PKD
ROOT
HETATM    1  C   UNL     1     -10.237   8.039  72.797  1.00  0.00    -0.389 C  
HETATM    2  C   UNL     1      -9.842   7.200  71.566  1.00  0.00    -0.171 C  
ENDROOT
BRANCH   2   3
HETATM    3  C   UNL     1      -8.842   8.014  70.658  1.00  0.00    -0.143 C  
HETATM    4  H   UNL     1      -8.003   9.808  70.665  1.00  0.00     0.000 HD 
HETATM    5  O   UNL     1      -8.606   9.318  71.212  1.00  0.00    -0.310 OA 
BRANCH   3   6
HETATM    6  C   UNL     1      -9.156   8.147  69.172  1.00  0.00    -0.148 A  
HETATM    7  C   UNL     1      -8.437   9.062  68.382  1.00  0.00    -0.129 A  
HETATM    8  C   UNL     1      -8.855   9.354  67.078  1.00  0.00    -0.139 A  
HETATM    9  C   UNL     1      -9.975   8.725  66.540  1.00  0.00    -0.360 A  
HETATM   10  C   UNL     1     -10.655   7.767  67.286  1.00  0.00    -0.376 A  
HETATM   11  C   UNL     1     -10.242   7.473  68.588  1.00  0.00    -0.210 A  
ENDBRANCH   3   6
ENDBRANCH   2   3
BRANCH   2  12
HETATM   12  N   UNL     1      -9.293   5.877  72.019  1.00  0.00    -0.150 NA 
HETATM   13  C   UNL     1      -7.917   5.636  71.591  1.00  0.00    -0.117 C  
HETATM   14  C   UNL     1     -10.126   4.735  71.628  1.00  0.00    -0.194 C  
ENDBRANCH   2  12
TORSDOF 3
ENDMDL
MODEL      204
REMARK 921   NORMALIZED FREE ENERGY PREDICTED BY IDOCK:   -2.45 KCAL/MOL
REMARK 922        TOTAL FREE ENERGY PREDICTED BY IDOCK:   -3.14 KCAL/MOL
REMARK 923 INTER-LIGAND FREE ENERGY PREDICTED BY IDOCK:   -2.93 KCAL/MOL
REMARK 924 INTRA-LIGAND FREE ENERGY PREDICTED BY IDOCK:   -0.21 KCAL/MOL
REMARK 927      BINDING AFFINITY PREDICTED BY RF-SCORE:    0.00 PKD
ROOT
HETATM    1  C   UNL     1      -8.157   8.080  66.681  1.00  0.00    -0.103 C  
HETATM    2  C   UNL     1      -8.209   9.620  66.639  1.00  0.00    -0.120 C  
ENDROOT
BRANCH   2   3
HETATM    3  C   UNL     1      -9.471  10.138  67.428  1.00  0.00    -0.153 C  
HETATM    4  H   UNL     1     -11.116   9.361  68.212  1.00  0.00     0.000 HD 
HETATM    5  O   UNL     1     -10.355   9.049  67.736  1.00  0.00    -0.219 OA 
BRANCH   3   6
HETATM    6  C   UNL     1     -10.276  11.289  66.835  1.00  0.00    -0.254 A  
HETATM    7  C   UNL     1     -11.005  12.145  67.680  1.00  0.00    -0.289 A  
HETATM    8  C   UNL     1     -11.917  13.061  67.144  1.00  0.00    -0.389 A  
HETATM    9  C   UNL     1     -12.097  13.153  65.765  1.00  0.00    -0.502 A  
HETATM   10  C   UNL     1     -11.331  12.360  64.915  1.00  0.00    -0.361 A  
HETATM   11  C   UNL     1     -10.420  11.443  65.445  1.00  0.00    -0.336 A  
ENDBRANCH   3   6
ENDBRANCH   2   3
BRANCH   2  12
HETATM   12  N   UNL     1      -6.913  10.177  67.155  1.00  0.00    -0.086 NA 
HETATM   13  C   UNL     1      -5.833  10.158  66.170  1.00  0.00    -0.067 C  
HETATM   14  C   UNL     1      -6.450   9.534  68.390  1.00  0.00    -0.053 C  
ENDBRANCH   2  12
TORSDOF 3
ENDMDL
MODEL      205
REMARK 921   NORMALIZED FREE ENERGY PREDICTED BY IDOCK:   -2.44 KCAL/MOL
REMARK 922        TOTAL FREE ENERGY PREDICTED BY IDOCK:   -3.13 KCAL/MOL
REMARK 923 INTER-LIGAND FREE ENERGY PREDICTED BY IDOCK:   -4.25 KCAL/MOL
REMARK 924 INTRA-LIGAND FREE ENERGY PREDICTED BY IDOCK:    1.12 KCAL/MOL
REMARK 927      BINDING AFFINITY PREDICTED BY RF-SCORE:    0.00 PKD
ROOT
HETATM    1  C   UNL     1      -6.093  18.271  65.487  1.00  0.00    -0.265 C  
HETATM    2  C   UNL     1      -5.669  19.337  66.516  1.00  0.00    -0.157 C  
ENDROOT
BRANCH   2   3
HETATM    3  C   UNL     1      -6.829  20.385  66.716  1.00  0.00    -0.252 C  
HETATM    4  H   UNL     1      -7.166  21.987  67.830  1.00  0.00     0.000 HD 
HETATM    5  O   UNL     1      -6.467  21.355  67.710  1.00  0.00    -0.445 OA 
BRANCH   3   6
HETATM    6  C   UNL     1      -8.233  19.866  67.006  1.00  0.00    -0.356 A  
HETATM    7  C   UNL     1      -9.181  19.788  65.970  1.00  0.00    -0.338 A  
HETATM    8  C   UNL     1     -10.526  19.526  66.257  1.00  0.00    -0.609 A  
HETATM    9  C   UNL     1     -10.938  19.317  67.572  1.00  0.00    -0.426 A  
HETATM   10  C   UNL     1      -9.998  19.323  68.600  1.00  0.00    -0.506 A  
HETATM   11  C   UNL     1      -8.655  19.584  68.317  1.00  0.00    -0.380 A  
ENDBRANCH   3   6
ENDBRANCH   2   3
BRANCH   2  12
HETATM   12  N   UNL     1      -5.250  18.661  67.791  1.00  0.00    -0.165 NA 
HETATM   13  C   UNL     1      -6.065  17.497  68.132  1.00  0.00    -0.164 C  
HETATM   14  C   UNL     1      -5.200  19.568  68.943  1.00  0.00    -0.188 C  
ENDBRANCH   2  12
TORSDOF 3
ENDMDL
MODEL      206
REMARK 921   NORMALIZED FREE ENERGY PREDICTED BY IDOCK:   -2.40 KCAL/MOL
REMARK 922        TOTAL FREE ENERGY PREDICTED BY IDOCK:   -3.08 KCAL/MOL
REMARK 923 INTER-LIGAND FREE ENERGY PREDICTED BY IDOCK:   -3.16 KCAL/MOL
REMARK 924 INTRA-LIGAND FREE ENERGY PREDICTED BY IDOCK:    0.08 KCAL/MOL
REMARK 927      BINDING AFFINITY PREDICTED BY RF-SCORE:    0.00 PKD
ROOT
HETATM    1  C   UNL     1     -11.905  12.445  68.599  1.00  0.00    -0.348 C  
HETATM    2  C   UNL     1     -11.599  13.874  68.108  1.00  0.00    -0.335 C  
ENDROOT
BRANCH   2   3
HETATM    3  C   UNL     1     -10.494  14.531  69.020  1.00  0.00    -0.237 C  
HETATM    4  H   UNL     1     -10.238  16.235  69.997  1.00  0.00     0.000 HD 
HETATM    5  O   UNL     1     -10.904  15.839  69.447  1.00  0.00    -0.229 OA 
BRANCH   3   6
HETATM    6  C   UNL     1      -9.065  14.599  68.493  1.00  0.00    -0.188 A  
HETATM    7  C   UNL     1      -8.403  13.420  68.104  1.00  0.00    -0.164 A  
HETATM    8  C   UNL     1      -7.031  13.435  67.829  1.00  0.00    -0.159 A  
HETATM    9  C   UNL     1      -6.308  14.623  67.915  1.00  0.00    -0.173 A  
HETATM   10  C   UNL     1      -6.964  15.809  68.232  1.00  0.00    -0.120 A  
HETATM   11  C   UNL     1      -8.333  15.799  68.508  1.00  0.00    -0.175 A  
ENDBRANCH   3   6
ENDBRANCH   2   3
BRANCH   2  12
HETATM   12  N   UNL     1     -11.225  13.833  66.654  1.00  0.00    -0.311 NA 
HETATM   13  C   UNL     1     -11.186  15.150  66.022  1.00  0.00    -0.275 C  
HETATM   14  C   UNL     1     -12.076  12.942  65.857  1.00  0.00    -0.444 C  
ENDBRANCH   2  12
TORSDOF 3
ENDMDL
MODEL      207
REMARK 921   NORMALIZED FREE ENERGY PREDICTED BY IDOCK:   -2.40 KCAL/MOL
REMARK 922        TOTAL FREE ENERGY PREDICTED BY IDOCK:   -3.07 KCAL/MOL
REMARK 923 INTER-LIGAND FREE ENERGY PREDICTED BY IDOCK:   -2.82 KCAL/MOL
REMARK 924 INTRA-LIGAND FREE ENERGY PREDICTED BY IDOCK:   -0.25 KCAL/MOL
REMARK 927      BINDING AFFINITY PREDICTED BY RF-SCORE:    0.00 PKD
ROOT
HETATM    1  C   UNL     1     -11.940  15.036  69.536  1.00  0.00    -0.346 C  
HETATM    2  C   UNL     1     -10.713  14.135  69.294  1.00  0.00    -0.144 C  
ENDROOT
BRANCH   2   3
HETATM    3  C   UNL     1     -11.172  12.748  68.701  1.00  0.00    -0.282 C  
HETATM    4  H   UNL     1     -12.208  11.175  69.313  1.00  0.00     0.000 HD 
HETATM    5  O   UNL     1     -11.931  12.011  69.671  1.00  0.00    -0.307 OA 
BRANCH   3   6
HETATM    6  C   UNL     1     -10.115  11.835  68.088  1.00  0.00    -0.196 A  
HETATM    7  C   UNL     1      -9.997  11.736  66.690  1.00  0.00    -0.224 A  
HETATM    8  C   UNL     1      -9.191  10.748  66.115  1.00  0.00    -0.202 A  
HETATM    9  C   UNL     1      -8.476   9.864  66.921  1.00  0.00    -0.125 A  
HETATM   10  C   UNL     1      -8.529   9.995  68.306  1.00  0.00    -0.111 A  
HETATM   11  C   UNL     1      -9.334  10.980  68.884  1.00  0.00    -0.155 A  
ENDBRANCH   3   6
ENDBRANCH   2   3
BRANCH   2  12
HETATM   12  N   UNL     1      -9.725  14.858  68.423  1.00  0.00    -0.204 NA 
HETATM   13  C   UNL     1      -8.635  15.484  69.168  1.00  0.00    -0.246 C  
HETATM   14  C   UNL     1     -10.344  15.857  67.544  1.00  0.00    -0.283 C  
ENDBRANCH   2  12
TORSDOF 3
ENDMDL
MODEL      208
REMARK 921   NORMALIZED FREE ENERGY PREDICTED BY IDOCK:   -2.38 KCAL/MOL
REMARK 922        TOTAL FREE ENERGY PREDICTED BY IDOCK:   -3.06 KCAL/MOL
REMARK 923 INTER-LIGAND FREE ENERGY PREDICTED BY IDOCK:   -2.82 KCAL/MOL
REMARK 924 INTRA-LIGAND FREE ENERGY PREDICTED BY IDOCK:   -0.24 KCAL/MOL
REMARK 927      BINDING AFFINITY PREDICTED BY RF-SCORE:    0.00 PKD
ROOT
HETATM    1  C   UNL     1      -9.309  15.183  68.817  1.00  0.00    -0.200 C  
HETATM    2  C   UNL     1      -8.716  13.921  68.161  1.00  0.00    -0.182 C  
ENDROOT
BRANCH   2   3
HETATM    3  C   UNL     1      -9.676  13.405  67.022  1.00  0.00    -0.239 C  
HETATM    4  H   UNL     1     -11.574  13.634  66.505  1.00  0.00     0.000 HD 
HETATM    5  O   UNL     1     -10.996  13.944  67.192  1.00  0.00    -0.284 OA 
BRANCH   3   6
HETATM    6  C   UNL     1      -9.773  11.903  66.779  1.00  0.00    -0.218 A  
HETATM    7  C   UNL     1      -9.298  11.003  67.750  1.00  0.00    -0.162 A  
HETATM    8  C   UNL     1      -9.177   9.640  67.455  1.00  0.00    -0.148 A  
HETATM    9  C   UNL     1      -9.547   9.155  66.202  1.00  0.00    -0.333 A  
HETATM   10  C   UNL     1     -10.083  10.024  65.256  1.00  0.00    -0.299 A  
HETATM   11  C   UNL     1     -10.205  11.385  65.546  1.00  0.00    -0.312 A  
ENDBRANCH   3   6
ENDBRANCH   2   3
BRANCH   2  12
HETATM   12  N   UNL     1      -7.324  14.216  67.679  1.00  0.00    -0.165 NA 
HETATM   13  C   UNL     1      -6.279  13.606  68.499  1.00  0.00    -0.091 C  
HETATM   14  C   UNL     1      -7.048  15.649  67.534  1.00  0.00    -0.186 C  
ENDBRANCH   2  12
TORSDOF 3
ENDMDL
MODEL      209
REMARK 921   NORMALIZED FREE ENERGY PREDICTED BY IDOCK:   -2.37 KCAL/MOL
REMARK 922        TOTAL FREE ENERGY PREDICTED BY IDOCK:   -3.05 KCAL/MOL
REMARK 923 INTER-LIGAND FREE ENERGY PREDICTED BY IDOCK:   -2.74 KCAL/MOL
REMARK 924 INTRA-LIGAND FREE ENERGY PREDICTED BY IDOCK:   -0.31 KCAL/MOL
REMARK 927      BINDING AFFINITY PREDICTED BY RF-SCORE:    0.00 PKD
ROOT
HETATM    1  C   UNL     1      -6.838  10.456  69.236  1.00  0.00    -0.073 C  
HETATM    2  C   UNL     1      -8.173   9.792  68.846  1.00  0.00    -0.117 C  
ENDROOT
BRANCH   2   3
HETATM    3  C   UNL     1      -8.885   9.219  70.130  1.00  0.00    -0.213 C  
HETATM    4  H   UNL     1      -8.474   9.029  72.059  1.00  0.00     0.000 HD 
HETATM    5  O   UNL     1      -8.044   9.374  71.284  1.00  0.00    -0.319 OA 
BRANCH   3   6
HETATM    6  C   UNL     1      -9.422   7.793  70.087  1.00  0.00    -0.160 A  
HETATM    7  C   UNL     1     -10.773   7.560  69.771  1.00  0.00    -0.249 A  
HETATM    8  C   UNL     1     -11.332   6.289  69.940  1.00  0.00    -0.504 A  
HETATM    9  C   UNL     1     -10.551   5.231  70.402  1.00  0.00    -0.278 A  
HETATM   10  C   UNL     1      -9.196   5.431  70.653  1.00  0.00    -0.183 A  
HETATM   11  C   UNL     1      -8.635   6.699  70.486  1.00  0.00    -0.143 A  
ENDBRANCH   3   6
ENDBRANCH   2   3
BRANCH   2  12
HETATM   12  N   UNL     1      -9.016  10.775  68.086  1.00  0.00    -0.135 NA 
HETATM   13  C   UNL     1     -10.198  11.223  68.819  1.00  0.00    -0.202 C  
HETATM   14  C   UNL     1      -9.425  10.293  66.762  1.00  0.00    -0.163 C  
ENDBRANCH   2  12
TORSDOF 3
ENDMDL
MODEL      210
REMARK 921   NORMALIZED FREE ENERGY PREDICTED BY IDOCK:   -2.35 KCAL/MOL
REMARK 922        TOTAL FREE ENERGY PREDICTED BY IDOCK:   -3.03 KCAL/MOL
REMARK 923 INTER-LIGAND FREE ENERGY PREDICTED BY IDOCK:   -2.78 KCAL/MOL
REMARK 924 INTRA-LIGAND FREE ENERGY PREDICTED BY IDOCK:   -0.25 KCAL/MOL
REMARK 927      BINDING AFFINITY PREDICTED BY RF-SCORE:    0.00 PKD
ROOT
HETATM    1  C   UNL     1     -10.786   9.434  67.994  1.00  0.00    -0.246 C  
HETATM    2  C   UNL     1      -9.575   9.207  68.920  1.00  0.00    -0.152 C  
ENDROOT
BRANCH   2   3
HETATM    3  C   UNL     1      -9.480   7.684  69.317  1.00  0.00    -0.158 C  
HETATM    4  H   UNL     1     -10.131   5.953  68.609  1.00  0.00     0.000 HD 
HETATM    5  O   UNL     1     -10.188   6.870  68.369  1.00  0.00    -0.161 OA 
BRANCH   3   6
HETATM    6  C   UNL     1      -9.882   7.276  70.731  1.00  0.00    -0.178 A  
HETATM    7  C   UNL     1     -10.072   5.918  71.042  1.00  0.00    -0.252 A  
HETATM    8  C   UNL     1     -10.648   5.544  72.261  1.00  0.00    -0.276 A  
HETATM    9  C   UNL     1     -11.021   6.513  73.191  1.00  0.00    -0.251 A  
HETATM   10  C   UNL     1     -10.775   7.857  72.925  1.00  0.00    -0.440 A  
HETATM   11  C   UNL     1     -10.200   8.234  71.709  1.00  0.00    -0.297 A  
ENDBRANCH   3   6
ENDBRANCH   2   3
BRANCH   2  12
HETATM   12  N   UNL     1      -8.333   9.728  68.256  1.00  0.00    -0.106 NA 
HETATM   13  C   UNL     1      -7.677  10.801  68.999  1.00  0.00    -0.133 C  
HETATM   14  C   UNL     1      -8.550  10.163  66.872  1.00  0.00    -0.126 C  
ENDBRANCH   2  12
TORSDOF 3
ENDMDL
MODEL      211
REMARK 921   NORMALIZED FREE ENERGY PREDICTED BY IDOCK:   -2.35 KCAL/MOL
REMARK 922        TOTAL FREE ENERGY PREDICTED BY IDOCK:   -3.02 KCAL/MOL
REMARK 923 INTER-LIGAND FREE ENERGY PREDICTED BY IDOCK:   -2.80 KCAL/MOL
REMARK 924 INTRA-LIGAND FREE ENERGY PREDICTED BY IDOCK:   -0.21 KCAL/MOL
REMARK 927      BINDING AFFINITY PREDICTED BY RF-SCORE:    0.00 PKD
ROOT
HETATM    1  C   UNL     1     -12.128  14.105  66.137  1.00  0.00    -0.454 C  
HETATM    2  C   UNL     1     -11.063  13.116  65.623  1.00  0.00    -0.275 C  
ENDROOT
BRANCH   2   3
HETATM    3  C   UNL     1     -11.067  11.812  66.508  1.00  0.00    -0.310 C  
HETATM    4  H   UNL     1     -11.637  11.295  68.333  1.00  0.00     0.000 HD 
HETATM    5  O   UNL     1     -11.634  12.081  67.800  1.00  0.00    -0.310 OA 
BRANCH   3   6
HETATM    6  C   UNL     1      -9.759  11.048  66.682  1.00  0.00    -0.226 A  
HETATM    7  C   UNL     1      -9.772   9.742  67.203  1.00  0.00    -0.223 A  
HETATM    8  C   UNL     1      -8.577   9.114  67.572  1.00  0.00    -0.116 A  
HETATM    9  C   UNL     1      -7.357   9.767  67.406  1.00  0.00    -0.090 A  
HETATM   10  C   UNL     1      -7.324  11.033  66.827  1.00  0.00    -0.139 A  
HETATM   11  C   UNL     1      -8.515  11.663  66.458  1.00  0.00    -0.141 A  
ENDBRANCH   3   6
ENDBRANCH   2   3
BRANCH   2  12
HETATM   12  N   UNL     1     -11.295  12.846  64.163  1.00  0.00    -0.370 NA 
HETATM   13  C   UNL     1     -12.052  13.897  63.486  1.00  0.00    -0.086 C  
HETATM   14  C   UNL     1     -11.931  11.550  63.903  1.00  0.00    -0.064 C  
ENDBRANCH   2  12
TORSDOF 3
ENDMDL
MODEL      212
REMARK 921   NORMALIZED FREE ENERGY PREDICTED BY IDOCK:   -2.34 KCAL/MOL
REMARK 922        TOTAL FREE ENERGY PREDICTED BY IDOCK:   -3.01 KCAL/MOL
REMARK 923 INTER-LIGAND FREE ENERGY PREDICTED BY IDOCK:   -3.26 KCAL/MOL
REMARK 924 INTRA-LIGAND FREE ENERGY PREDICTED BY IDOCK:    0.25 KCAL/MOL
REMARK 927      BINDING AFFINITY PREDICTED BY RF-SCORE:    0.00 PKD
ROOT
HETATM    1  C   UNL     1      -7.940  14.476  67.202  1.00  0.00    -0.167 C  
HETATM    2  C   UNL     1      -8.465  13.234  67.948  1.00  0.00    -0.177 C  
ENDROOT
BRANCH   2   3
HETATM    3  C   UNL     1      -9.202  12.272  66.940  1.00  0.00    -0.209 C  
HETATM    4  H   UNL     1      -8.695  10.998  65.510  1.00  0.00     0.000 HD 
HETATM    5  O   UNL     1      -8.251  11.578  66.118  1.00  0.00    -0.107 OA 
BRANCH   3   6
HETATM    6  C   UNL     1     -10.303  12.851  66.057  1.00  0.00    -0.294 A  
HETATM    7  C   UNL     1     -11.432  13.449  66.645  1.00  0.00    -0.376 A  
HETATM    8  C   UNL     1     -12.544  13.785  65.863  1.00  0.00    -0.494 A  
HETATM    9  C   UNL     1     -12.536  13.552  64.489  1.00  0.00    -0.344 A  
HETATM   10  C   UNL     1     -11.398  13.025  63.885  1.00  0.00    -0.460 A  
HETATM   11  C   UNL     1     -10.287  12.687  64.661  1.00  0.00    -0.354 A  
ENDBRANCH   3   6
ENDBRANCH   2   3
BRANCH   2  12
HETATM   12  N   UNL     1      -7.331  12.574  68.680  1.00  0.00    -0.108 NA 
HETATM   13  C   UNL     1      -6.095  12.504  67.904  1.00  0.00    -0.101 C  
HETATM   14  C   UNL     1      -7.661  11.235  69.181  1.00  0.00    -0.070 C  
ENDBRANCH   2  12
TORSDOF 3
ENDMDL
MODEL      213
REMARK 921   NORMALIZED FREE ENERGY PREDICTED BY IDOCK:   -2.33 KCAL/MOL
REMARK 922        TOTAL FREE ENERGY PREDICTED BY IDOCK:   -3.00 KCAL/MOL
REMARK 923 INTER-LIGAND FREE ENERGY PREDICTED BY IDOCK:   -2.85 KCAL/MOL
REMARK 924 INTRA-LIGAND FREE ENERGY PREDICTED BY IDOCK:   -0.16 KCAL/MOL
REMARK 927      BINDING AFFINITY PREDICTED BY RF-SCORE:    0.00 PKD
ROOT
HETATM    1  C   UNL     1     -12.781   8.926  72.014  1.00  0.00    -0.456 C  
HETATM    2  C   UNL     1     -11.451   8.263  71.605  1.00  0.00    -0.278 C  
ENDROOT
BRANCH   2   3
HETATM    3  C   UNL     1     -10.443   9.356  71.080  1.00  0.00    -0.322 C  
HETATM    4  H   UNL     1     -10.547  11.150  70.249  1.00  0.00     0.000 HD 
HETATM    5  O   UNL     1     -11.155  10.491  70.565  1.00  0.00    -0.300 OA 
BRANCH   3   6
HETATM    6  C   UNL     1      -9.372   8.935  70.080  1.00  0.00    -0.184 A  
HETATM    7  C   UNL     1      -8.017   9.198  70.349  1.00  0.00    -0.155 A  
HETATM    8  C   UNL     1      -7.049   9.020  69.354  1.00  0.00    -0.056 A  
HETATM    9  C   UNL     1      -7.413   8.558  68.091  1.00  0.00    -0.097 A  
HETATM   10  C   UNL     1      -8.741   8.228  67.832  1.00  0.00    -0.135 A  
HETATM   11  C   UNL     1      -9.710   8.405  68.822  1.00  0.00    -0.168 A  
ENDBRANCH   3   6
ENDBRANCH   2   3
BRANCH   2  12
HETATM   12  N   UNL     1     -10.916   7.462  72.758  1.00  0.00    -0.310 NA 
HETATM   13  C   UNL     1      -9.738   8.056  73.386  1.00  0.00    -0.168 C  
HETATM   14  C   UNL     1     -10.625   6.066  72.414  1.00  0.00    -0.217 C  
ENDBRANCH   2  12
TORSDOF 3
ENDMDL
MODEL      214
REMARK 921   NORMALIZED FREE ENERGY PREDICTED BY IDOCK:   -2.33 KCAL/MOL
REMARK 922        TOTAL FREE ENERGY PREDICTED BY IDOCK:   -3.00 KCAL/MOL
REMARK 923 INTER-LIGAND FREE ENERGY PREDICTED BY IDOCK:   -2.99 KCAL/MOL
REMARK 924 INTRA-LIGAND FREE ENERGY PREDICTED BY IDOCK:   -0.00 KCAL/MOL
REMARK 927      BINDING AFFINITY PREDICTED BY RF-SCORE:    0.00 PKD
ROOT
HETATM    1  C   UNL     1      -9.369   4.037  67.996  1.00  0.00    -0.220 C  
HETATM    2  C   UNL     1     -10.250   4.608  66.868  1.00  0.00    -0.155 C  
ENDROOT
BRANCH   2   3
HETATM    3  C   UNL     1     -10.344   6.176  66.998  1.00  0.00    -0.237 C  
HETATM    4  H   UNL     1      -9.335   7.752  66.348  1.00  0.00     0.000 HD 
HETATM    5  O   UNL     1      -9.279   6.806  66.269  1.00  0.00    -0.163 OA 
BRANCH   3   6
HETATM    6  C   UNL     1     -10.429   6.784  68.393  1.00  0.00    -0.238 A  
HETATM    7  C   UNL     1     -11.258   6.198  69.366  1.00  0.00    -0.466 A  
HETATM    8  C   UNL     1     -11.517   6.861  70.571  1.00  0.00    -0.390 A  
HETATM    9  C   UNL     1     -10.938   8.102  70.831  1.00  0.00    -0.266 A  
HETATM   10  C   UNL     1     -10.060   8.661  69.907  1.00  0.00    -0.197 A  
HETATM   11  C   UNL     1      -9.799   8.003  68.703  1.00  0.00    -0.182 A  
ENDBRANCH   3   6
ENDBRANCH   2   3
BRANCH   2  12
HETATM   12  N   UNL     1      -9.719   4.151  65.539  1.00  0.00    -0.188 NA 
HETATM   13  C   UNL     1     -10.762   3.874  64.554  1.00  0.00    -0.153 C  
HETATM   14  C   UNL     1      -8.827   2.989  65.635  1.00  0.00    -0.138 C  
ENDBRANCH   2  12
TORSDOF 3
ENDMDL
MODEL      215
REMARK 921   NORMALIZED FREE ENERGY PREDICTED BY IDOCK:   -2.30 KCAL/MOL
REMARK 922        TOTAL FREE ENERGY PREDICTED BY IDOCK:   -2.96 KCAL/MOL
REMARK 923 INTER-LIGAND FREE ENERGY PREDICTED BY IDOCK:   -2.65 KCAL/MOL
REMARK 924 INTRA-LIGAND FREE ENERGY PREDICTED BY IDOCK:   -0.32 KCAL/MOL
REMARK 927      BINDING AFFINITY PREDICTED BY RF-SCORE:    0.00 PKD
ROOT
HETATM    1  C   UNL     1     -10.751   5.497  71.317  1.00  0.00    -0.288 C  
HETATM    2  C   UNL     1     -10.351   6.784  70.569  1.00  0.00    -0.201 C  
ENDROOT
BRANCH   2   3
HETATM    3  C   UNL     1     -10.073   6.460  69.051  1.00  0.00    -0.165 C  
HETATM    4  H   UNL     1     -11.140   6.084  67.425  1.00  0.00     0.000 HD 
HETATM    5  O   UNL     1     -11.308   6.279  68.340  1.00  0.00    -0.298 OA 
BRANCH   3   6
HETATM    6  C   UNL     1      -9.126   5.313  68.716  1.00  0.00    -0.134 A  
HETATM    7  C   UNL     1      -9.617   4.160  68.078  1.00  0.00    -0.200 A  
HETATM    8  C   UNL     1      -8.817   3.018  67.962  1.00  0.00    -0.162 A  
HETATM    9  C   UNL     1      -7.514   3.017  68.458  1.00  0.00    -0.049 A  
HETATM   10  C   UNL     1      -6.992   4.174  69.030  1.00  0.00    -0.047 A  
HETATM   11  C   UNL     1      -7.788   5.316  69.148  1.00  0.00    -0.085 A  
ENDBRANCH   3   6
ENDBRANCH   2   3
BRANCH   2  12
HETATM   12  N   UNL     1     -11.412   7.829  70.770  1.00  0.00    -0.281 NA 
HETATM   13  C   UNL     1     -10.946   9.004  71.502  1.00  0.00    -0.348 C  
HETATM   14  C   UNL     1     -12.626   7.312  71.412  1.00  0.00    -0.388 C  
ENDBRANCH   2  12
TORSDOF 3
ENDMDL
MODEL      216
REMARK 921   NORMALIZED FREE ENERGY PREDICTED BY IDOCK:   -2.27 KCAL/MOL
REMARK 922        TOTAL FREE ENERGY PREDICTED BY IDOCK:   -2.93 KCAL/MOL
REMARK 923 INTER-LIGAND FREE ENERGY PREDICTED BY IDOCK:   -2.65 KCAL/MOL
REMARK 924 INTRA-LIGAND FREE ENERGY PREDICTED BY IDOCK:   -0.28 KCAL/MOL
REMARK 927      BINDING AFFINITY PREDICTED BY RF-SCORE:    0.00 PKD
ROOT
HETATM    1  C   UNL     1     -10.580  10.315  68.536  1.00  0.00    -0.240 C  
HETATM    2  C   UNL     1     -10.387   9.235  67.453  1.00  0.00    -0.263 C  
ENDROOT
BRANCH   2   3
HETATM    3  C   UNL     1      -9.037   9.486  66.677  1.00  0.00    -0.148 C  
HETATM    4  H   UNL     1      -7.554  10.798  66.726  1.00  0.00     0.000 HD 
HETATM    5  O   UNL     1      -8.368  10.647  67.194  1.00  0.00    -0.123 OA 
BRANCH   3   6
HETATM    6  C   UNL     1      -9.079   9.564  65.155  1.00  0.00    -0.281 A  
HETATM    7  C   UNL     1      -8.091   8.916  64.392  1.00  0.00    -0.153 A  
HETATM    8  C   UNL     1      -7.987   9.156  63.017  1.00  0.00    -0.147 A  
HETATM    9  C   UNL     1      -8.875  10.023  62.384  1.00  0.00    -0.263 A  
HETATM   10  C   UNL     1      -9.901  10.617  63.115  1.00  0.00    -0.351 A  
HETATM   11  C   UNL     1     -10.008  10.380  64.487  1.00  0.00    -0.401 A  
ENDBRANCH   3   6
ENDBRANCH   2   3
BRANCH   2  12
HETATM   12  N   UNL     1     -10.467   7.874  68.084  1.00  0.00    -0.198 NA 
HETATM   13  C   UNL     1      -9.168   7.222  68.237  1.00  0.00    -0.133 C  
HETATM   14  C   UNL     1     -11.385   6.963  67.393  1.00  0.00     0.047 C  
ENDBRANCH   2  12
TORSDOF 3
ENDMDL
MODEL      217
REMARK 921   NORMALIZED FREE ENERGY PREDICTED BY IDOCK:   -2.22 KCAL/MOL
REMARK 922        TOTAL FREE ENERGY PREDICTED BY IDOCK:   -2.86 KCAL/MOL
REMARK 923 INTER-LIGAND FREE ENERGY PREDICTED BY IDOCK:   -2.66 KCAL/MOL
REMARK 924 INTRA-LIGAND FREE ENERGY PREDICTED BY IDOCK:   -0.20 KCAL/MOL
REMARK 927      BINDING AFFINITY PREDICTED BY RF-SCORE:    0.00 PKD
ROOT
HETATM    1  C   UNL     1     -11.956  15.017  69.760  1.00  0.00    -0.366 C  
HETATM    2  C   UNL     1     -11.086  13.966  69.044  1.00  0.00    -0.268 C  
ENDROOT
BRANCH   2   3
HETATM    3  C   UNL     1     -11.659  12.521  69.309  1.00  0.00    -0.319 C  
HETATM    4  H   UNL     1     -12.862  11.653  70.621  1.00  0.00     0.000 HD 
HETATM    5  O   UNL     1     -12.516  12.523  70.462  1.00  0.00    -0.277 OA 
BRANCH   3   6
HETATM    6  C   UNL     1     -10.678  11.359  69.413  1.00  0.00    -0.152 A  
HETATM    7  C   UNL     1     -10.762  10.464  70.495  1.00  0.00    -0.096 A  
HETATM    8  C   UNL     1      -9.744   9.531  70.724  1.00  0.00    -0.289 A  
HETATM    9  C   UNL     1      -8.645   9.463  69.869  1.00  0.00    -0.201 A  
HETATM   10  C   UNL     1      -8.584  10.296  68.755  1.00  0.00    -0.139 A  
HETATM   11  C   UNL     1      -9.598  11.229  68.524  1.00  0.00    -0.199 A  
ENDBRANCH   3   6
ENDBRANCH   2   3
BRANCH   2  12
HETATM   12  N   UNL     1     -10.988  14.309  67.584  1.00  0.00    -0.271 NA 
HETATM   13  C   UNL     1      -9.780  15.053  67.237  1.00  0.00    -0.220 C  
HETATM   14  C   UNL     1     -12.161  15.029  67.074  1.00  0.00     0.136 C  
ENDBRANCH   2  12
TORSDOF 3
ENDMDL
MODEL      218
REMARK 921   NORMALIZED FREE ENERGY PREDICTED BY IDOCK:   -2.11 KCAL/MOL
REMARK 922        TOTAL FREE ENERGY PREDICTED BY IDOCK:   -2.73 KCAL/MOL
REMARK 923 INTER-LIGAND FREE ENERGY PREDICTED BY IDOCK:   -2.43 KCAL/MOL
REMARK 924 INTRA-LIGAND FREE ENERGY PREDICTED BY IDOCK:   -0.30 KCAL/MOL
REMARK 927      BINDING AFFINITY PREDICTED BY RF-SCORE:    0.00 PKD
ROOT
HETATM    1  C   UNL     1     -10.242  16.184  67.886  1.00  0.00    -0.261 C  
HETATM    2  C   UNL     1      -8.726  16.174  67.607  1.00  0.00    -0.177 C  
ENDROOT
BRANCH   2   3
HETATM    3  C   UNL     1      -8.343  14.903  66.757  1.00  0.00    -0.123 C  
HETATM    4  H   UNL     1      -9.202  13.754  65.392  1.00  0.00     0.000 HD 
HETATM    5  O   UNL     1      -9.433  14.519  65.905  1.00  0.00    -0.274 OA 
BRANCH   3   6
HETATM    6  C   UNL     1      -7.817  13.673  67.488  1.00  0.00    -0.185 A  
HETATM    7  C   UNL     1      -8.554  12.475  67.466  1.00  0.00    -0.183 A  
HETATM    8  C   UNL     1      -8.203  11.411  68.304  1.00  0.00    -0.150 A  
HETATM    9  C   UNL     1      -7.104  11.517  69.155  1.00  0.00    -0.105 A  
HETATM   10  C   UNL     1      -6.325  12.670  69.136  1.00  0.00    -0.099 A  
HETATM   11  C   UNL     1      -6.673  13.735  68.301  1.00  0.00    -0.109 A  
ENDBRANCH   3   6
ENDBRANCH   2   3
BRANCH   2  12
HETATM   12  N   UNL     1      -8.329  17.468  66.956  1.00  0.00    -0.212 NA 
HETATM   13  C   UNL     1      -7.030  17.415  66.290  1.00  0.00    -0.284 C  
HETATM   14  C   UNL     1      -8.355  18.615  67.871  1.00  0.00    -0.272 C  
ENDBRANCH   2  12
TORSDOF 3
ENDMDL
MODEL      219
REMARK 921   NORMALIZED FREE ENERGY PREDICTED BY IDOCK:   -2.10 KCAL/MOL
REMARK 922        TOTAL FREE ENERGY PREDICTED BY IDOCK:   -2.73 KCAL/MOL
REMARK 923 INTER-LIGAND FREE ENERGY PREDICTED BY IDOCK:   -3.16 KCAL/MOL
REMARK 924 INTRA-LIGAND FREE ENERGY PREDICTED BY IDOCK:    0.43 KCAL/MOL
REMARK 927      BINDING AFFINITY PREDICTED BY RF-SCORE:    0.00 PKD
ROOT
HETATM    1  C   UNL     1      -9.563   5.250  67.450  1.00  0.00    -0.146 C  
HETATM    2  C   UNL     1      -9.658   6.591  68.203  1.00  0.00    -0.123 C  
ENDROOT
BRANCH   2   3
HETATM    3  C   UNL     1      -9.787   6.331  69.753  1.00  0.00    -0.165 C  
HETATM    4  H   UNL     1     -10.207   4.802  70.940  1.00  0.00     0.000 HD 
HETATM    5  O   UNL     1     -10.130   4.959  70.006  1.00  0.00    -0.244 OA 
BRANCH   3   6
HETATM    6  C   UNL     1     -10.704   7.237  70.567  1.00  0.00    -0.249 A  
HETATM    7  C   UNL     1     -11.816   6.694  71.234  1.00  0.00    -0.403 A  
HETATM    8  C   UNL     1     -12.784   7.533  71.799  1.00  0.00    -0.360 A  
HETATM    9  C   UNL     1     -12.645   8.918  71.726  1.00  0.00    -0.420 A  
HETATM   10  C   UNL     1     -11.513   9.468  71.129  1.00  0.00    -0.430 A  
HETATM   11  C   UNL     1     -10.546   8.634  70.564  1.00  0.00    -0.248 A  
ENDBRANCH   3   6
ENDBRANCH   2   3
BRANCH   2  12
HETATM   12  N   UNL     1      -8.481   7.452  67.841  1.00  0.00    -0.122 NA 
HETATM   13  C   UNL     1      -7.989   8.269  68.948  1.00  0.00    -0.113 C  
HETATM   14  C   UNL     1      -8.724   8.313  66.678  1.00  0.00    -0.136 C  
ENDBRANCH   2  12
TORSDOF 3
ENDMDL
MODEL      220
REMARK 921   NORMALIZED FREE ENERGY PREDICTED BY IDOCK:   -2.09 KCAL/MOL
REMARK 922        TOTAL FREE ENERGY PREDICTED BY IDOCK:   -2.72 KCAL/MOL
REMARK 923 INTER-LIGAND FREE ENERGY PREDICTED BY IDOCK:   -2.40 KCAL/MOL
REMARK 924 INTRA-LIGAND FREE ENERGY PREDICTED BY IDOCK:   -0.32 KCAL/MOL
REMARK 927      BINDING AFFINITY PREDICTED BY RF-SCORE:    0.00 PKD
ROOT
HETATM    1  C   UNL     1      -9.510   3.961  67.700  1.00  0.00    -0.233 C  
HETATM    2  C   UNL     1      -9.424   4.815  66.420  1.00  0.00    -0.158 C  
ENDROOT
BRANCH   2   3
HETATM    3  C   UNL     1      -8.569   6.112  66.695  1.00  0.00    -0.118 C  
HETATM    4  H   UNL     1      -7.702   6.979  68.251  1.00  0.00     0.000 HD 
HETATM    5  O   UNL     1      -8.217   6.197  68.085  1.00  0.00    -0.113 OA 
BRANCH   3   6
HETATM    6  C   UNL     1      -9.120   7.455  66.231  1.00  0.00    -0.195 A  
HETATM    7  C   UNL     1      -8.646   8.035  65.040  1.00  0.00    -0.037 A  
HETATM    8  C   UNL     1      -8.974   9.356  64.715  1.00  0.00    -0.241 A  
HETATM    9  C   UNL     1      -9.793  10.106  65.557  1.00  0.00    -0.365 A  
HETATM   10  C   UNL     1     -10.325   9.523  66.704  1.00  0.00    -0.280 A  
HETATM   11  C   UNL     1     -10.000   8.205  67.032  1.00  0.00    -0.329 A  
ENDBRANCH   3   6
ENDBRANCH   2   3
BRANCH   2  12
HETATM   12  N   UNL     1      -8.888   3.977  65.295  1.00  0.00    -0.123 NA 
HETATM   13  C   UNL     1      -7.434   4.036  65.160  1.00  0.00    -0.077 C  
HETATM   14  C   UNL     1      -9.504   4.278  63.998  1.00  0.00    -0.127 C  
ENDBRANCH   2  12
TORSDOF 3
ENDMDL
MODEL      221
REMARK 921   NORMALIZED FREE ENERGY PREDICTED BY IDOCK:   -2.05 KCAL/MOL
REMARK 922        TOTAL FREE ENERGY PREDICTED BY IDOCK:   -2.67 KCAL/MOL
REMARK 923 INTER-LIGAND FREE ENERGY PREDICTED BY IDOCK:   -2.41 KCAL/MOL
REMARK 924 INTRA-LIGAND FREE ENERGY PREDICTED BY IDOCK:   -0.26 KCAL/MOL
REMARK 927      BINDING AFFINITY PREDICTED BY RF-SCORE:    0.00 PKD
ROOT
HETATM    1  C   UNL     1      -9.767   4.362  65.117  1.00  0.00    -0.186 C  
HETATM    2  C   UNL     1      -9.211   5.519  65.970  1.00  0.00    -0.158 C  
ENDROOT
BRANCH   2   3
HETATM    3  C   UNL     1      -9.041   5.051  67.466  1.00  0.00    -0.116 C  
HETATM    4  H   UNL     1      -9.387   3.414  68.526  1.00  0.00     0.000 HD 
HETATM    5  O   UNL     1      -9.491   3.696  67.624  1.00  0.00    -0.190 OA 
BRANCH   3   6
HETATM    6  C   UNL     1      -9.642   5.914  68.569  1.00  0.00    -0.142 A  
HETATM    7  C   UNL     1     -10.388   5.316  69.601  1.00  0.00    -0.348 A  
HETATM    8  C   UNL     1     -11.125   6.104  70.492  1.00  0.00    -0.405 A  
HETATM    9  C   UNL     1     -11.111   7.494  70.381  1.00  0.00    -0.277 A  
HETATM   10  C   UNL     1     -10.322   8.101  69.408  1.00  0.00    -0.219 A  
HETATM   11  C   UNL     1      -9.585   7.318  68.517  1.00  0.00    -0.140 A  
ENDBRANCH   3   6
ENDBRANCH   2   3
BRANCH   2  12
HETATM   12  N   UNL     1      -7.937   6.026  65.356  1.00  0.00    -0.111 NA 
HETATM   13  C   UNL     1      -8.049   6.310  63.927  1.00  0.00    -0.055 C  
HETATM   14  C   UNL     1      -6.788   5.143  65.583  1.00  0.00    -0.061 C  
ENDBRANCH   2  12
TORSDOF 3
ENDMDL
MODEL      222
REMARK 921   NORMALIZED FREE ENERGY PREDICTED BY IDOCK:   -2.05 KCAL/MOL
REMARK 922        TOTAL FREE ENERGY PREDICTED BY IDOCK:   -2.67 KCAL/MOL
REMARK 923 INTER-LIGAND FREE ENERGY PREDICTED BY IDOCK:   -2.64 KCAL/MOL
REMARK 924 INTRA-LIGAND FREE ENERGY PREDICTED BY IDOCK:   -0.02 KCAL/MOL
REMARK 927      BINDING AFFINITY PREDICTED BY RF-SCORE:    0.00 PKD
ROOT
HETATM    1  C   UNL     1     -10.718   9.618  68.030  1.00  0.00    -0.284 C  
HETATM    2  C   UNL     1      -9.976   9.853  69.360  1.00  0.00    -0.212 C  
ENDROOT
BRANCH   2   3
HETATM    3  C   UNL     1     -10.580   8.928  70.484  1.00  0.00    -0.220 C  
HETATM    4  H   UNL     1     -10.459   8.764  72.455  1.00  0.00     0.000 HD 
HETATM    5  O   UNL     1     -10.094   9.322  71.777  1.00  0.00    -0.293 OA 
BRANCH   3   6
HETATM    6  C   UNL     1     -10.441   7.417  70.333  1.00  0.00    -0.230 A  
HETATM    7  C   UNL     1      -9.511   6.715  71.120  1.00  0.00    -0.167 A  
HETATM    8  C   UNL     1      -9.215   5.375  70.843  1.00  0.00    -0.183 A  
HETATM    9  C   UNL     1      -9.856   4.714  69.798  1.00  0.00    -0.296 A  
HETATM   10  C   UNL     1     -10.829   5.376  69.055  1.00  0.00    -0.026 A  
HETATM   11  C   UNL     1     -11.127   6.713  69.328  1.00  0.00    -0.345 A  
ENDBRANCH   3   6
ENDBRANCH   2   3
BRANCH   2  12
HETATM   12  N   UNL     1      -8.502   9.653  69.152  1.00  0.00    -0.134 NA 
HETATM   13  C   UNL     1      -7.759  10.900  68.988  1.00  0.00    -0.135 C  
HETATM   14  C   UNL     1      -8.186   8.754  68.037  1.00  0.00    -0.118 C  
ENDBRANCH   2  12
TORSDOF 3
ENDMDL
MODEL      223
REMARK 921   NORMALIZED FREE ENERGY PREDICTED BY IDOCK:   -2.03 KCAL/MOL
REMARK 922        TOTAL FREE ENERGY PREDICTED BY IDOCK:   -2.65 KCAL/MOL
REMARK 923 INTER-LIGAND FREE ENERGY PREDICTED BY IDOCK:   -2.35 KCAL/MOL
REMARK 924 INTRA-LIGAND FREE ENERGY PREDICTED BY IDOCK:   -0.30 KCAL/MOL
REMARK 927      BINDING AFFINITY PREDICTED BY RF-SCORE:    0.00 PKD
ROOT
HETATM    1  C   UNL     1      -7.702   7.674  62.848  1.00  0.00    -0.124 C  
HETATM    2  C   UNL     1      -8.337   8.363  64.071  1.00  0.00    -0.061 C  
ENDROOT
BRANCH   2   3
HETATM    3  C   UNL     1      -7.815   7.693  65.399  1.00  0.00    -0.115 C  
HETATM    4  H   UNL     1      -6.510   6.291  65.905  1.00  0.00     0.000 HD 
HETATM    5  O   UNL     1      -6.825   6.695  65.104  1.00  0.00    -0.048 OA 
BRANCH   3   6
HETATM    6  C   UNL     1      -8.838   7.115  66.371  1.00  0.00    -0.161 A  
HETATM    7  C   UNL     1      -9.344   5.818  66.170  1.00  0.00    -0.160 A  
HETATM    8  C   UNL     1     -10.435   5.359  66.917  1.00  0.00    -0.337 A  
HETATM    9  C   UNL     1     -11.020   6.174  67.885  1.00  0.00    -0.399 A  
HETATM   10  C   UNL     1     -10.485   7.434  68.142  1.00  0.00    -0.241 A  
HETATM   11  C   UNL     1      -9.397   7.896  67.398  1.00  0.00    -0.169 A  
ENDBRANCH   3   6
ENDBRANCH   2   3
BRANCH   2  12
HETATM   12  N   UNL     1      -8.071   9.841  64.006  1.00  0.00    -0.140 NA 
HETATM   13  C   UNL     1      -7.226  10.333  65.092  1.00  0.00    -0.125 C  
HETATM   14  C   UNL     1      -9.293  10.651  63.941  1.00  0.00    -0.267 C  
ENDBRANCH   2  12
TORSDOF 3
ENDMDL
MODEL      224
REMARK 921   NORMALIZED FREE ENERGY PREDICTED BY IDOCK:   -1.99 KCAL/MOL
REMARK 922        TOTAL FREE ENERGY PREDICTED BY IDOCK:   -2.60 KCAL/MOL
REMARK 923 INTER-LIGAND FREE ENERGY PREDICTED BY IDOCK:   -2.31 KCAL/MOL
REMARK 924 INTRA-LIGAND FREE ENERGY PREDICTED BY IDOCK:   -0.29 KCAL/MOL
REMARK 927      BINDING AFFINITY PREDICTED BY RF-SCORE:    0.00 PKD
ROOT
HETATM    1  C   UNL     1      -8.215   2.201  67.002  1.00  0.00    -0.080 C  
HETATM    2  C   UNL     1      -9.242   3.347  66.920  1.00  0.00    -0.180 C  
ENDROOT
BRANCH   2   3
HETATM    3  C   UNL     1      -8.664   4.638  67.617  1.00  0.00    -0.104 C  
HETATM    4  H   UNL     1      -6.930   5.234  68.365  1.00  0.00     0.000 HD 
HETATM    5  O   UNL     1      -7.278   4.456  67.945  1.00  0.00    -0.063 OA 
BRANCH   3   6
HETATM    6  C   UNL     1      -9.400   5.199  68.829  1.00  0.00    -0.166 A  
HETATM    7  C   UNL     1     -10.751   5.574  68.719  1.00  0.00    -0.195 A  
HETATM    8  C   UNL     1     -11.374   6.289  69.748  1.00  0.00    -0.506 A  
HETATM    9  C   UNL     1     -10.670   6.618  70.905  1.00  0.00    -0.278 A  
HETATM   10  C   UNL     1      -9.353   6.193  71.056  1.00  0.00    -0.176 A  
HETATM   11  C   UNL     1      -8.727   5.480  70.031  1.00  0.00    -0.132 A  
ENDBRANCH   3   6
ENDBRANCH   2   3
BRANCH   2  12
HETATM   12  N   UNL     1      -9.630   3.568  65.486  1.00  0.00    -0.156 NA 
HETATM   13  C   UNL     1      -9.234   2.478  64.597  1.00  0.00    -0.136 C  
HETATM   14  C   UNL     1      -9.142   4.838  64.937  1.00  0.00    -0.141 C  
ENDBRANCH   2  12
TORSDOF 3
ENDMDL
MODEL      225
REMARK 921   NORMALIZED FREE ENERGY PREDICTED BY IDOCK:   -1.96 KCAL/MOL
REMARK 922        TOTAL FREE ENERGY PREDICTED BY IDOCK:   -2.56 KCAL/MOL
REMARK 923 INTER-LIGAND FREE ENERGY PREDICTED BY IDOCK:   -2.25 KCAL/MOL
REMARK 924 INTRA-LIGAND FREE ENERGY PREDICTED BY IDOCK:   -0.31 KCAL/MOL
REMARK 927      BINDING AFFINITY PREDICTED BY RF-SCORE:    0.00 PKD
ROOT
HETATM    1  C   UNL     1      -8.023   9.411  63.625  1.00  0.00    -0.142 C  
HETATM    2  C   UNL     1      -9.403   9.632  64.275  1.00  0.00    -0.114 C  
ENDROOT
BRANCH   2   3
HETATM    3  C   UNL     1      -9.232   9.927  65.815  1.00  0.00    -0.179 C  
HETATM    4  H   UNL     1      -7.811  10.606  67.016  1.00  0.00     0.000 HD 
HETATM    5  O   UNL     1      -7.914  10.427  66.088  1.00  0.00    -0.126 OA 
BRANCH   3   6
HETATM    6  C   UNL     1      -9.567   8.819  66.807  1.00  0.00    -0.267 A  
HETATM    7  C   UNL     1     -10.265   7.677  66.376  1.00  0.00    -0.036 A  
HETATM    8  C   UNL     1     -10.770   6.761  67.306  1.00  0.00    -0.423 A  
HETATM    9  C   UNL     1     -10.566   6.958  68.670  1.00  0.00    -0.254 A  
HETATM   10  C   UNL     1      -9.818   8.047  69.107  1.00  0.00    -0.178 A  
HETATM   11  C   UNL     1      -9.313   8.964  68.182  1.00  0.00    -0.151 A  
ENDBRANCH   3   6
ENDBRANCH   2   3
BRANCH   2  12
HETATM   12  N   UNL     1     -10.135  10.718  63.539  1.00  0.00    -0.334 NA 
HETATM   13  C   UNL     1      -9.261  11.776  63.036  1.00  0.00     0.098 C  
HETATM   14  C   UNL     1     -11.223  11.320  64.317  1.00  0.00    -0.141 C  
ENDBRANCH   2  12
TORSDOF 3
ENDMDL
MODEL      226
REMARK 921   NORMALIZED FREE ENERGY PREDICTED BY IDOCK:   -1.91 KCAL/MOL
REMARK 922        TOTAL FREE ENERGY PREDICTED BY IDOCK:   -2.50 KCAL/MOL
REMARK 923 INTER-LIGAND FREE ENERGY PREDICTED BY IDOCK:   -2.19 KCAL/MOL
REMARK 924 INTRA-LIGAND FREE ENERGY PREDICTED BY IDOCK:   -0.31 KCAL/MOL
REMARK 927      BINDING AFFINITY PREDICTED BY RF-SCORE:    0.00 PKD
ROOT
HETATM    1  C   UNL     1      -6.169  13.078  67.961  1.00  0.00    -0.112 C  
HETATM    2  C   UNL     1      -7.390  12.471  68.679  1.00  0.00    -0.099 C  
ENDROOT
BRANCH   2   3
HETATM    3  C   UNL     1      -8.675  12.622  67.778  1.00  0.00    -0.179 C  
HETATM    4  H   UNL     1      -9.097  12.668  65.843  1.00  0.00     0.000 HD 
HETATM    5  O   UNL     1      -8.323  12.577  66.387  1.00  0.00     0.061 OA 
BRANCH   3   6
HETATM    6  C   UNL     1      -9.599  13.809  68.026  1.00  0.00    -0.214 A  
HETATM    7  C   UNL     1     -10.594  13.730  69.017  1.00  0.00    -0.161 A  
HETATM    8  C   UNL     1     -11.584  14.715  69.108  1.00  0.00    -0.331 A  
HETATM    9  C   UNL     1     -11.583  15.798  68.232  1.00  0.00    -0.302 A  
HETATM   10  C   UNL     1     -10.565  15.925  67.291  1.00  0.00    -0.314 A  
HETATM   11  C   UNL     1      -9.575  14.944  67.197  1.00  0.00    -0.229 A  
ENDBRANCH   3   6
ENDBRANCH   2   3
BRANCH   2  12
HETATM   12  N   UNL     1      -7.092  11.048  69.057  1.00  0.00    -0.096 NA 
HETATM   13  C   UNL     1      -6.245  10.351  68.091  1.00  0.00    -0.051 C  
HETATM   14  C   UNL     1      -8.294  10.246  69.309  1.00  0.00    -0.163 C  
ENDBRANCH   2  12
TORSDOF 3
ENDMDL
MODEL      227
REMARK 921   NORMALIZED FREE ENERGY PREDICTED BY IDOCK:   -1.87 KCAL/MOL
REMARK 922        TOTAL FREE ENERGY PREDICTED BY IDOCK:   -2.46 KCAL/MOL
REMARK 923 INTER-LIGAND FREE ENERGY PREDICTED BY IDOCK:   -2.27 KCAL/MOL
REMARK 924 INTRA-LIGAND FREE ENERGY PREDICTED BY IDOCK:   -0.19 KCAL/MOL
REMARK 927      BINDING AFFINITY PREDICTED BY RF-SCORE:    0.00 PKD
ROOT
HETATM    1  C   UNL     1      -6.700  11.056  69.773  1.00  0.00    -0.136 C  
HETATM    2  C   UNL     1      -7.034   9.557  69.648  1.00  0.00    -0.066 C  
ENDROOT
BRANCH   2   3
HETATM    3  C   UNL     1      -8.523   9.297  70.096  1.00  0.00    -0.191 C  
HETATM    4  H   UNL     1      -9.524   9.144  71.799  1.00  0.00     0.000 HD 
HETATM    5  O   UNL     1      -8.626   9.300  71.528  1.00  0.00    -0.320 OA 
BRANCH   3   6
HETATM    6  C   UNL     1      -9.245   8.075  69.541  1.00  0.00    -0.152 A  
HETATM    7  C   UNL     1      -9.989   8.178  68.352  1.00  0.00    -0.210 A  
HETATM    8  C   UNL     1     -10.831   7.135  67.949  1.00  0.00    -0.219 A  
HETATM    9  C   UNL     1     -10.924   5.971  68.710  1.00  0.00    -0.384 A  
HETATM   10  C   UNL     1     -10.141   5.827  69.852  1.00  0.00    -0.273 A  
HETATM   11  C   UNL     1      -9.300   6.867  70.258  1.00  0.00    -0.162 A  
ENDBRANCH   3   6
ENDBRANCH   2   3
BRANCH   2  12
HETATM   12  N   UNL     1      -6.744   9.095  68.248  1.00  0.00    -0.060 NA 
HETATM   13  C   UNL     1      -5.638   8.144  68.162  1.00  0.00    -0.034 C  
HETATM   14  C   UNL     1      -6.506  10.196  67.308  1.00  0.00    -0.068 C  
ENDBRANCH   2  12
TORSDOF 3
ENDMDL
MODEL      228
REMARK 921   NORMALIZED FREE ENERGY PREDICTED BY IDOCK:   -1.79 KCAL/MOL
REMARK 922        TOTAL FREE ENERGY PREDICTED BY IDOCK:   -2.36 KCAL/MOL
REMARK 923 INTER-LIGAND FREE ENERGY PREDICTED BY IDOCK:   -2.07 KCAL/MOL
REMARK 924 INTRA-LIGAND FREE ENERGY PREDICTED BY IDOCK:   -0.29 KCAL/MOL
REMARK 927      BINDING AFFINITY PREDICTED BY RF-SCORE:    0.00 PKD
ROOT
HETATM    1  C   UNL     1      -9.453   4.775  65.521  1.00  0.00    -0.170 C  
HETATM    2  C   UNL     1      -8.357   5.628  64.853  1.00  0.00    -0.139 C  
ENDROOT
BRANCH   2   3
HETATM    3  C   UNL     1      -7.734   6.623  65.906  1.00  0.00    -0.091 C  
HETATM    4  H   UNL     1      -6.716   6.498  67.600  1.00  0.00     0.000 HD 
HETATM    5  O   UNL     1      -7.092   5.898  66.966  1.00  0.00    -0.067 OA 
BRANCH   3   6
HETATM    6  C   UNL     1      -8.630   7.702  66.504  1.00  0.00    -0.142 A  
HETATM    7  C   UNL     1      -9.127   7.557  67.811  1.00  0.00    -0.130 A  
HETATM    8  C   UNL     1     -10.119   8.419  68.293  1.00  0.00    -0.232 A  
HETATM    9  C   UNL     1     -10.610   9.447  67.490  1.00  0.00    -0.333 A  
HETATM   10  C   UNL     1     -10.077   9.645  66.219  1.00  0.00    -0.322 A  
HETATM   11  C   UNL     1      -9.088   8.786  65.734  1.00  0.00    -0.267 A  
ENDBRANCH   3   6
ENDBRANCH   2   3
BRANCH   2  12
HETATM   12  N   UNL     1      -7.341   4.725  64.213  1.00  0.00    -0.061 NA 
HETATM   13  C   UNL     1      -7.199   4.931  62.774  1.00  0.00    -0.042 C  
HETATM   14  C   UNL     1      -7.579   3.301  64.475  1.00  0.00    -0.076 C  
ENDBRANCH   2  12
TORSDOF 3
ENDMDL
MODEL      229
REMARK 921   NORMALIZED FREE ENERGY PREDICTED BY IDOCK:   -1.75 KCAL/MOL
REMARK 922        TOTAL FREE ENERGY PREDICTED BY IDOCK:   -2.32 KCAL/MOL
REMARK 923 INTER-LIGAND FREE ENERGY PREDICTED BY IDOCK:   -2.12 KCAL/MOL
REMARK 924 INTRA-LIGAND FREE ENERGY PREDICTED BY IDOCK:   -0.20 KCAL/MOL
REMARK 927      BINDING AFFINITY PREDICTED BY RF-SCORE:    0.00 PKD
ROOT
HETATM    1  C   UNL     1      -8.440  10.102  65.257  1.00  0.00    -0.165 C  
HETATM    2  C   UNL     1      -8.799   9.335  66.545  1.00  0.00    -0.133 C  
ENDROOT
BRANCH   2   3
HETATM    3  C   UNL     1      -8.107  10.016  67.788  1.00  0.00    -0.109 C  
HETATM    4  H   UNL     1      -6.382  10.903  68.187  1.00  0.00     0.000 HD 
HETATM    5  O   UNL     1      -6.798  10.492  67.438  1.00  0.00    -0.074 OA 
BRANCH   3   6
HETATM    6  C   UNL     1      -8.026   9.231  69.092  1.00  0.00    -0.097 A  
HETATM    7  C   UNL     1      -7.366   7.989  69.125  1.00  0.00    -0.086 A  
HETATM    8  C   UNL     1      -7.470   7.160  70.248  1.00  0.00    -0.085 A  
HETATM    9  C   UNL     1      -8.210   7.566  71.357  1.00  0.00    -0.106 A  
HETATM   10  C   UNL     1      -8.811   8.822  71.365  1.00  0.00    -0.292 A  
HETATM   11  C   UNL     1      -8.710   9.652  70.246  1.00  0.00    -0.248 A  
ENDBRANCH   3   6
ENDBRANCH   2   3
BRANCH   2  12
HETATM   12  N   UNL     1     -10.293   9.243  66.672  1.00  0.00    -0.248 NA 
HETATM   13  C   UNL     1     -10.897  10.396  67.335  1.00  0.00    -0.286 C  
HETATM   14  C   UNL     1     -10.748   8.014  67.331  1.00  0.00    -0.190 C  
ENDBRANCH   2  12
TORSDOF 3
ENDMDL
MODEL      230
REMARK 921   NORMALIZED FREE ENERGY PREDICTED BY IDOCK:   -1.71 KCAL/MOL
REMARK 922        TOTAL FREE ENERGY PREDICTED BY IDOCK:   -2.27 KCAL/MOL
REMARK 923 INTER-LIGAND FREE ENERGY PREDICTED BY IDOCK:   -2.16 KCAL/MOL
REMARK 924 INTRA-LIGAND FREE ENERGY PREDICTED BY IDOCK:   -0.11 KCAL/MOL
REMARK 927      BINDING AFFINITY PREDICTED BY RF-SCORE:    0.00 PKD
ROOT
HETATM    1  C   UNL     1      -9.734  11.531  68.236  1.00  0.00    -0.198 C  
HETATM    2  C   UNL     1     -10.663  12.323  67.295  1.00  0.00    -0.231 C  
ENDROOT
BRANCH   2   3
HETATM    3  C   UNL     1     -10.291  13.855  67.335  1.00  0.00    -0.252 C  
HETATM    4  H   UNL     1      -8.659  14.961  67.143  1.00  0.00     0.000 HD 
HETATM    5  O   UNL     1      -8.883  14.038  67.119  1.00  0.00    -0.209 OA 
BRANCH   3   6
HETATM    6  C   UNL     1     -10.726  14.675  68.544  1.00  0.00    -0.248 A  
HETATM    7  C   UNL     1     -10.037  14.548  69.764  1.00  0.00     0.246 A  
HETATM    8  C   UNL     1     -10.552  15.121  70.933  1.00  0.00     0.058 A  
HETATM    9  C   UNL     1     -11.743  15.844  70.897  1.00  0.00    -0.456 A  
HETATM   10  C   UNL     1     -12.398  16.036  69.685  1.00  0.00     0.113 A  
HETATM   11  C   UNL     1     -11.888  15.465  68.516  1.00  0.00    -0.293 A  
ENDBRANCH   3   6
ENDBRANCH   2   3
BRANCH   2  12
HETATM   12  N   UNL     1     -10.599  11.731  65.915  1.00  0.00    -0.262 NA 
HETATM   13  C   UNL     1     -11.778  12.015  65.101  1.00  0.00    -0.255 C  
HETATM   14  C   UNL     1     -10.347  10.286  65.912  1.00  0.00    -0.171 C  
ENDBRANCH   2  12
TORSDOF 3
ENDMDL
MODEL      231
REMARK 921   NORMALIZED FREE ENERGY PREDICTED BY IDOCK:   -1.68 KCAL/MOL
REMARK 922        TOTAL FREE ENERGY PREDICTED BY IDOCK:   -2.23 KCAL/MOL
REMARK 923 INTER-LIGAND FREE ENERGY PREDICTED BY IDOCK:   -2.68 KCAL/MOL
REMARK 924 INTRA-LIGAND FREE ENERGY PREDICTED BY IDOCK:    0.45 KCAL/MOL
REMARK 927      BINDING AFFINITY PREDICTED BY RF-SCORE:    0.00 PKD
ROOT
HETATM    1  C   UNL     1      -8.256   9.895  64.693  1.00  0.00    -0.153 C  
HETATM    2  C   UNL     1      -9.334  10.841  65.258  1.00  0.00    -0.210 C  
ENDROOT
BRANCH   2   3
HETATM    3  C   UNL     1      -8.657  12.126  65.869  1.00  0.00     0.377 C  
HETATM    4  H   UNL     1      -7.099  12.541  67.019  1.00  0.00     0.000 HD 
HETATM    5  O   UNL     1      -7.507  11.767  66.651  1.00  0.00    -0.095 OA 
BRANCH   3   6
HETATM    6  C   UNL     1      -9.524  13.095  66.665  1.00  0.00    -0.260 A  
HETATM    7  C   UNL     1     -10.010  12.725  67.932  1.00  0.00    -0.229 A  
HETATM    8  C   UNL     1     -10.979  13.503  68.575  1.00  0.00    -0.291 A  
HETATM    9  C   UNL     1     -11.458  14.668  67.978  1.00  0.00    -0.346 A  
HETATM   10  C   UNL     1     -10.935  15.082  66.756  1.00  0.00    -0.323 A  
HETATM   11  C   UNL     1      -9.969  14.308  66.110  1.00  0.00    -0.330 A  
ENDBRANCH   3   6
ENDBRANCH   2   3
BRANCH   2  12
HETATM   12  N   UNL     1     -10.340  11.150  64.185  1.00  0.00    -0.336 NA 
HETATM   13  C   UNL     1      -9.770  11.839  63.029  1.00  0.00    -0.207 C  
HETATM   14  C   UNL     1     -11.500  11.905  64.672  1.00  0.00    -0.279 C  
ENDBRANCH   2  12
TORSDOF 3
ENDMDL
MODEL      232
REMARK 921   NORMALIZED FREE ENERGY PREDICTED BY IDOCK:   -1.63 KCAL/MOL
REMARK 922        TOTAL FREE ENERGY PREDICTED BY IDOCK:   -2.17 KCAL/MOL
REMARK 923 INTER-LIGAND FREE ENERGY PREDICTED BY IDOCK:   -1.91 KCAL/MOL
REMARK 924 INTRA-LIGAND FREE ENERGY PREDICTED BY IDOCK:   -0.26 KCAL/MOL
REMARK 927      BINDING AFFINITY PREDICTED BY RF-SCORE:    0.00 PKD
ROOT
HETATM    1  C   UNL     1     -10.947   9.866  67.761  1.00  0.00    -0.278 C  
HETATM    2  C   UNL     1      -9.562   9.707  68.418  1.00  0.00    -0.144 C  
ENDROOT
BRANCH   2   3
HETATM    3  C   UNL     1      -9.208   8.178  68.567  1.00  0.00    -0.136 C  
HETATM    4  H   UNL     1     -10.139   6.443  68.352  1.00  0.00     0.000 HD 
HETATM    5  O   UNL     1     -10.352   7.364  68.263  1.00  0.00    -0.185 OA 
BRANCH   3   6
HETATM    6  C   UNL     1      -8.584   7.701  69.874  1.00  0.00    -0.138 A  
HETATM    7  C   UNL     1      -8.722   8.475  71.041  1.00  0.00    -0.209 A  
HETATM    8  C   UNL     1      -7.977   8.169  72.186  1.00  0.00    -0.168 A  
HETATM    9  C   UNL     1      -7.108   7.080  72.191  1.00  0.00    -0.072 A  
HETATM   10  C   UNL     1      -7.014   6.265  71.066  1.00  0.00    -0.068 A  
HETATM   11  C   UNL     1      -7.755   6.567  69.921  1.00  0.00    -0.109 A  
ENDBRANCH   3   6
ENDBRANCH   2   3
BRANCH   2  12
HETATM   12  N   UNL     1      -8.543  10.480  67.629  1.00  0.00    -0.118 NA 
HETATM   13  C   UNL     1      -9.082  11.681  66.995  1.00  0.00    -0.179 C  
HETATM   14  C   UNL     1      -7.850   9.671  66.620  1.00  0.00    -0.105 C  
ENDBRANCH   2  12
TORSDOF 3
ENDMDL
MODEL      233
REMARK 921   NORMALIZED FREE ENERGY PREDICTED BY IDOCK:   -1.60 KCAL/MOL
REMARK 922        TOTAL FREE ENERGY PREDICTED BY IDOCK:   -2.14 KCAL/MOL
REMARK 923 INTER-LIGAND FREE ENERGY PREDICTED BY IDOCK:   -2.13 KCAL/MOL
REMARK 924 INTRA-LIGAND FREE ENERGY PREDICTED BY IDOCK:   -0.01 KCAL/MOL
REMARK 927      BINDING AFFINITY PREDICTED BY RF-SCORE:    0.00 PKD
ROOT
HETATM    1  C   UNL     1      -6.940  13.931  69.623  1.00  0.00     0.075 C  
HETATM    2  C   UNL     1      -6.651  13.735  68.122  1.00  0.00    -0.126 C  
ENDROOT
BRANCH   2   3
HETATM    3  C   UNL     1      -6.621  12.197  67.776  1.00  0.00    -0.100 C  
HETATM    4  H   UNL     1      -5.789  11.030  66.409  1.00  0.00     0.000 HD 
HETATM    5  O   UNL     1      -5.807  11.957  66.617  1.00  0.00    -0.221 OA 
BRANCH   3   6
HETATM    6  C   UNL     1      -7.947  11.461  67.621  1.00  0.00    -0.123 A  
HETATM    7  C   UNL     1      -8.478  11.232  66.339  1.00  0.00    -0.169 A  
HETATM    8  C   UNL     1      -9.786  10.760  66.187  1.00  0.00    -0.269 A  
HETATM    9  C   UNL     1     -10.573  10.489  67.305  1.00  0.00    -0.317 A  
HETATM   10  C   UNL     1     -10.036  10.646  68.581  1.00  0.00    -0.194 A  
HETATM   11  C   UNL     1      -8.731  11.118  68.737  1.00  0.00    -0.130 A  
ENDBRANCH   3   6
ENDBRANCH   2   3
BRANCH   2  12
HETATM   12  N   UNL     1      -7.656  14.507  67.315  1.00  0.00    -0.174 NA 
HETATM   13  C   UNL     1      -7.213  15.854  66.962  1.00  0.00    -0.197 C  
HETATM   14  C   UNL     1      -8.977  14.584  67.947  1.00  0.00    -0.187 C  
ENDBRANCH   2  12
TORSDOF 3
ENDMDL
MODEL      234
REMARK 921   NORMALIZED FREE ENERGY PREDICTED BY IDOCK:   -1.49 KCAL/MOL
REMARK 922        TOTAL FREE ENERGY PREDICTED BY IDOCK:   -2.01 KCAL/MOL
REMARK 923 INTER-LIGAND FREE ENERGY PREDICTED BY IDOCK:   -1.91 KCAL/MOL
REMARK 924 INTRA-LIGAND FREE ENERGY PREDICTED BY IDOCK:   -0.10 KCAL/MOL
REMARK 927      BINDING AFFINITY PREDICTED BY RF-SCORE:    0.00 PKD
ROOT
HETATM    1  C   UNL     1      -9.739   9.647  70.420  1.00  0.00    -0.304 C  
HETATM    2  C   UNL     1      -9.622   8.145  70.093  1.00  0.00    -0.168 C  
ENDROOT
BRANCH   2   3
HETATM    3  C   UNL     1      -8.561   7.924  68.949  1.00  0.00    -0.132 C  
HETATM    4  H   UNL     1      -7.756   8.989  67.486  1.00  0.00     0.000 HD 
HETATM    5  O   UNL     1      -8.396   9.122  68.175  1.00  0.00    -0.119 OA 
BRANCH   3   6
HETATM    6  C   UNL     1      -8.745   6.738  68.008  1.00  0.00    -0.118 A  
HETATM    7  C   UNL     1      -7.658   5.893  67.723  1.00  0.00    -0.089 A  
HETATM    8  C   UNL     1      -7.750   4.940  66.701  1.00  0.00    -0.092 A  
HETATM    9  C   UNL     1      -8.927   4.803  65.969  1.00  0.00    -0.126 A  
HETATM   10  C   UNL     1     -10.034   5.586  66.287  1.00  0.00    -0.174 A  
HETATM   11  C   UNL     1      -9.946   6.539  67.305  1.00  0.00    -0.189 A  
ENDBRANCH   3   6
ENDBRANCH   2   3
BRANCH   2  12
HETATM   12  N   UNL     1      -9.311   7.384  71.350  1.00  0.00    -0.143 NA 
HETATM   13  C   UNL     1      -8.025   7.738  71.947  1.00  0.00    -0.103 C  
HETATM   14  C   UNL     1      -9.379   5.928  71.182  1.00  0.00    -0.153 C  
ENDBRANCH   2  12
TORSDOF 3
ENDMDL
MODEL      235
REMARK 921   NORMALIZED FREE ENERGY PREDICTED BY IDOCK:   -1.40 KCAL/MOL
REMARK 922        TOTAL FREE ENERGY PREDICTED BY IDOCK:   -1.90 KCAL/MOL
REMARK 923 INTER-LIGAND FREE ENERGY PREDICTED BY IDOCK:   -1.72 KCAL/MOL
REMARK 924 INTRA-LIGAND FREE ENERGY PREDICTED BY IDOCK:   -0.18 KCAL/MOL
REMARK 927      BINDING AFFINITY PREDICTED BY RF-SCORE:    0.00 PKD
ROOT
HETATM    1  C   UNL     1      -7.290   8.082  62.807  1.00  0.00    -0.102 C  
HETATM    2  C   UNL     1      -8.339   8.517  63.848  1.00  0.00    -0.087 C  
ENDROOT
BRANCH   2   3
HETATM    3  C   UNL     1      -7.868   8.100  65.294  1.00  0.00    -0.115 C  
HETATM    4  H   UNL     1      -6.154   7.916  66.269  1.00  0.00     0.000 HD 
HETATM    5  O   UNL     1      -6.438   8.167  65.397  1.00  0.00    -0.048 OA 
BRANCH   3   6
HETATM    6  C   UNL     1      -8.352   6.769  65.859  1.00  0.00    -0.137 A  
HETATM    7  C   UNL     1      -8.998   6.729  67.107  1.00  0.00    -0.116 A  
HETATM    8  C   UNL     1      -9.250   5.505  67.737  1.00  0.00    -0.110 A  
HETATM    9  C   UNL     1      -8.884   4.309  67.123  1.00  0.00    -0.119 A  
HETATM   10  C   UNL     1      -8.306   4.330  65.857  1.00  0.00    -0.109 A  
HETATM   11  C   UNL     1      -8.053   5.550  65.225  1.00  0.00    -0.122 A  
ENDBRANCH   3   6
ENDBRANCH   2   3
BRANCH   2  12
HETATM   12  N   UNL     1      -8.600   9.990  63.709  1.00  0.00    -0.180 NA 
HETATM   13  C   UNL     1      -9.921  10.398  64.180  1.00  0.00    -0.267 C  
HETATM   14  C   UNL     1      -8.399  10.492  62.344  1.00  0.00    -0.206 C  
ENDBRANCH   2  12
TORSDOF 3
ENDMDL
MODEL      236
REMARK 921   NORMALIZED FREE ENERGY PREDICTED BY IDOCK:   -1.28 KCAL/MOL
REMARK 922        TOTAL FREE ENERGY PREDICTED BY IDOCK:   -1.76 KCAL/MOL
REMARK 923 INTER-LIGAND FREE ENERGY PREDICTED BY IDOCK:   -1.55 KCAL/MOL
REMARK 924 INTRA-LIGAND FREE ENERGY PREDICTED BY IDOCK:   -0.22 KCAL/MOL
REMARK 927      BINDING AFFINITY PREDICTED BY RF-SCORE:    0.00 PKD
ROOT
HETATM    1  C   UNL     1      -8.190   7.834  63.192  1.00  0.00    -0.006 C  
HETATM    2  C   UNL     1      -8.221   7.654  64.723  1.00  0.00    -0.078 C  
ENDROOT
BRANCH   2   3
HETATM    3  C   UNL     1      -7.966   6.142  65.092  1.00  0.00    -0.117 C  
HETATM    4  H   UNL     1      -8.192   4.376  64.225  1.00  0.00     0.000 HD 
HETATM    5  O   UNL     1      -8.346   5.287  64.003  1.00  0.00    -0.128 OA 
BRANCH   3   6
HETATM    6  C   UNL     1      -8.561   5.602  66.387  1.00  0.00    -0.123 A  
HETATM    7  C   UNL     1      -9.837   6.023  66.804  1.00  0.00    -0.198 A  
HETATM    8  C   UNL     1     -10.303   5.712  68.086  1.00  0.00    -0.254 A  
HETATM    9  C   UNL     1      -9.517   4.962  68.959  1.00  0.00    -0.205 A  
HETATM   10  C   UNL     1      -8.282   4.480  68.535  1.00  0.00    -0.082 A  
HETATM   11  C   UNL     1      -7.813   4.789  67.256  1.00  0.00    -0.094 A  
ENDBRANCH   3   6
ENDBRANCH   2   3
BRANCH   2  12
HETATM   12  N   UNL     1      -7.237   8.595  65.357  1.00  0.00    -0.082 NA 
HETATM   13  C   UNL     1      -7.856   9.778  65.951  1.00  0.00    -0.108 C  
HETATM   14  C   UNL     1      -6.165   9.018  64.448  1.00  0.00    -0.071 C  
ENDBRANCH   2  12
TORSDOF 3
ENDMDL
MODEL      237
REMARK 921   NORMALIZED FREE ENERGY PREDICTED BY IDOCK:   -0.99 KCAL/MOL
REMARK 922        TOTAL FREE ENERGY PREDICTED BY IDOCK:   -1.43 KCAL/MOL
REMARK 923 INTER-LIGAND FREE ENERGY PREDICTED BY IDOCK:   -1.18 KCAL/MOL
REMARK 924 INTRA-LIGAND FREE ENERGY PREDICTED BY IDOCK:   -0.25 KCAL/MOL
REMARK 927      BINDING AFFINITY PREDICTED BY RF-SCORE:    0.00 PKD
ROOT
HETATM    1  C   UNL     1      -9.152   4.662  64.866  1.00  0.00    -0.154 C  
HETATM    2  C   UNL     1      -7.962   5.466  64.305  1.00  0.00    -0.118 C  
ENDROOT
BRANCH   2   3
HETATM    3  C   UNL     1      -7.501   6.548  65.355  1.00  0.00    -0.080 C  
HETATM    4  H   UNL     1      -5.793   7.328  65.985  1.00  0.00     0.000 HD 
HETATM    5  O   UNL     1      -6.071   6.676  65.352  1.00  0.00    -0.036 OA 
BRANCH   3   6
HETATM    6  C   UNL     1      -7.992   6.419  66.793  1.00  0.00    -0.109 A  
HETATM    7  C   UNL     1      -9.113   7.153  67.220  1.00  0.00    -0.130 A  
HETATM    8  C   UNL     1      -9.442   7.218  68.579  1.00  0.00    -0.140 A  
HETATM    9  C   UNL     1      -8.676   6.536  69.523  1.00  0.00    -0.134 A  
HETATM   10  C   UNL     1      -7.606   5.750  69.106  1.00  0.00    -0.089 A  
HETATM   11  C   UNL     1      -7.273   5.683  67.751  1.00  0.00    -0.072 A  
ENDBRANCH   3   6
ENDBRANCH   2   3
BRANCH   2  12
HETATM   12  N   UNL     1      -6.866   4.521  63.903  1.00  0.00    -0.043 NA 
HETATM   13  C   UNL     1      -6.957   4.074  62.515  1.00  0.00    -0.035 C  
HETATM   14  C   UNL     1      -6.754   3.349  64.780  1.00  0.00    -0.040 C  
ENDBRANCH   2  12
TORSDOF 3
ENDMDL
MODEL      238
REMARK 921   NORMALIZED FREE ENERGY PREDICTED BY IDOCK:   -0.27 KCAL/MOL
REMARK 922        TOTAL FREE ENERGY PREDICTED BY IDOCK:   -0.58 KCAL/MOL
REMARK 923 INTER-LIGAND FREE ENERGY PREDICTED BY IDOCK:   -0.32 KCAL/MOL
REMARK 924 INTRA-LIGAND FREE ENERGY PREDICTED BY IDOCK:   -0.26 KCAL/MOL
REMARK 927      BINDING AFFINITY PREDICTED BY RF-SCORE:    0.00 PKD
ROOT
HETATM    1  C   UNL     1      -6.553  13.039  69.098  1.00  0.00    -0.104 C  
HETATM    2  C   UNL     1      -7.011  11.840  68.245  1.00  0.00    -0.075 C  
ENDROOT
BRANCH   2   3
HETATM    3  C   UNL     1      -8.538  11.990  67.881  1.00  0.00    -0.165 C  
HETATM    4  H   UNL     1      -9.990  13.296  68.212  1.00  0.00     0.000 HD 
HETATM    5  O   UNL     1      -9.070  13.205  68.432  1.00  0.00    -0.192 OA 
BRANCH   3   6
HETATM    6  C   UNL     1      -9.478  10.835  68.206  1.00  0.00    -0.164 A  
HETATM    7  C   UNL     1     -10.282  10.887  69.360  1.00  0.00    -0.151 A  
HETATM    8  C   UNL     1     -10.981   9.753  69.789  1.00  0.00    -0.287 A  
HETATM    9  C   UNL     1     -10.907   8.564  69.065  1.00  0.00    -0.026 A  
HETATM   10  C   UNL     1     -10.171   8.519  67.884  1.00  0.00    -0.273 A  
HETATM   11  C   UNL     1      -9.472   9.649  67.453  1.00  0.00    -0.170 A  
ENDBRANCH   3   6
ENDBRANCH   2   3
BRANCH   2  12
HETATM   12  N   UNL     1      -6.121  11.714  67.041  1.00  0.00    -0.125 NA 
HETATM   13  C   UNL     1      -5.128  12.780  66.933  1.00  0.00     0.489 C  
HETATM   14  C   UNL     1      -6.860  11.614  65.778  1.00  0.00     0.927 C  
ENDBRANCH   2  12
TORSDOF 3
ENDMDL
MODEL      239
REMARK 921   NORMALIZED FREE ENERGY PREDICTED BY IDOCK:    0.50 KCAL/MOL
REMARK 922        TOTAL FREE ENERGY PREDICTED BY IDOCK:    0.33 KCAL/MOL
REMARK 923 INTER-LIGAND FREE ENERGY PREDICTED BY IDOCK:    0.10 KCAL/MOL
REMARK 924 INTRA-LIGAND FREE ENERGY PREDICTED BY IDOCK:    0.23 KCAL/MOL
REMARK 927      BINDING AFFINITY PREDICTED BY RF-SCORE:    0.00 PKD
ROOT
HETATM    1  C   UNL     1      -8.646  12.588  66.014  1.00  0.00     0.478 C  
HETATM    2  C   UNL     1      -9.292  11.605  65.018  1.00  0.00    -0.037 C  
ENDROOT
BRANCH   2   3
HETATM    3  C   UNL     1      -9.027  10.120  65.478  1.00  0.00    -0.172 C  
HETATM    4  H   UNL     1      -9.097   9.087  67.166  1.00  0.00     0.000 HD 
HETATM    5  O   UNL     1      -9.256   9.982  66.889  1.00  0.00    -0.144 OA 
BRANCH   3   6
HETATM    6  C   UNL     1      -7.693   9.476  65.119  1.00  0.00    -0.112 A  
HETATM    7  C   UNL     1      -6.622  10.276  64.681  1.00  0.00    -0.092 A  
HETATM    8  C   UNL     1      -5.472   9.689  64.141  1.00  0.00    -0.070 A  
HETATM    9  C   UNL     1      -5.365   8.303  64.052  1.00  0.00    -0.045 A  
HETATM   10  C   UNL     1      -6.388   7.497  64.545  1.00  0.00    -0.041 A  
HETATM   11  C   UNL     1      -7.538   8.080  65.084  1.00  0.00    -0.098 A  
ENDBRANCH   3   6
ENDBRANCH   2   3
BRANCH   2  12
HETATM   12  N   UNL     1     -10.751  11.931  64.870  1.00  0.00    -0.289 NA 
HETATM   13  C   UNL     1     -11.638  10.836  65.254  1.00  0.00     1.183 C  
HETATM   14  C   UNL     1     -11.112  12.395  63.525  1.00  0.00    -0.458 C  
ENDBRANCH   2  12
TORSDOF 3
ENDMDL
MODEL      240
REMARK 921   NORMALIZED FREE ENERGY PREDICTED BY IDOCK:    4.99 KCAL/MOL
REMARK 922        TOTAL FREE ENERGY PREDICTED BY IDOCK:    5.61 KCAL/MOL
REMARK 923 INTER-LIGAND FREE ENERGY PREDICTED BY IDOCK:    4.60 KCAL/MOL
REMARK 924 INTRA-LIGAND FREE ENERGY PREDICTED BY IDOCK:    1.01 KCAL/MOL
REMARK 927      BINDING AFFINITY PREDICTED BY RF-SCORE:    0.00 PKD
ROOT
HETATM    1  C   UNL     1      -8.183  12.836  69.829  1.00  0.00     2.053 C  
HETATM    2  C   UNL     1      -6.877  13.593  70.140  1.00  0.00     0.367 C  
ENDROOT
BRANCH   2   3
HETATM    3  C   UNL     1      -7.182  15.122  70.372  1.00  0.00     0.398 C  
HETATM    4  H   UNL     1      -8.062  16.236  71.752  1.00  0.00     0.000 HD 
HETATM    5  O   UNL     1      -7.879  15.314  71.612  1.00  0.00     3.056 OA 
BRANCH   3   6
HETATM    6  C   UNL     1      -7.895  15.895  69.268  1.00  0.00    -0.226 A  
HETATM    7  C   UNL     1      -8.584  15.201  68.257  1.00  0.00    -0.164 A  
HETATM    8  C   UNL     1      -9.053  15.878  67.126  1.00  0.00    -0.226 A  
HETATM    9  C   UNL     1      -8.863  17.253  66.997  1.00  0.00    -0.243 A  
HETATM   10  C   UNL     1      -8.244  17.963  68.022  1.00  0.00    -0.257 A  
HETATM   11  C   UNL     1      -7.773  17.291  69.153  1.00  0.00    -0.079 A  
ENDBRANCH   3   6
ENDBRANCH   2   3
BRANCH   2  12
HETATM   12  N   UNL     1      -6.186  12.940  71.303  1.00  0.00     0.248 NA 
HETATM   13  C   UNL     1      -5.530  13.887  72.202  1.00  0.00    -0.181 C  
HETATM   14  C   UNL     1      -5.222  11.907  70.906  1.00  0.00    -0.141 C  
ENDBRANCH   2  12
TORSDOF 3
ENDMDL
