MODEL        1
REMARK 921   NORMALIZED FREE ENERGY PREDICTED BY IDOCK:   -7.07 KCAL/MOL
REMARK 922        TOTAL FREE ENERGY PREDICTED BY IDOCK:  -11.12 KCAL/MOL
REMARK 923 INTER-LIGAND FREE ENERGY PREDICTED BY IDOCK:   -9.96 KCAL/MOL
REMARK 924 INTRA-LIGAND FREE ENERGY PREDICTED BY IDOCK:   -1.16 KCAL/MOL
REMARK 927      BINDING AFFINITY PREDICTED BY RF-SCORE:    0.00 PKD
ROOT
HETATM    1  C   UNL     1     -10.677   9.929  69.633  1.00  0.00    -0.277 C  
HETATM    2  C   UNL     1     -10.811  11.263  68.890  1.00  0.00    -0.208 C  
ENDROOT
BRANCH   2   3
HETATM    3  N   UNL     1      -9.580  12.066  68.965  1.00  0.00    -0.401 NA 
HETATM    4  H   UNL     1      -8.973  11.712  69.705  1.00  0.00     0.000 HD 
BRANCH   3   5
HETATM    5  C   UNL     1      -8.829  12.178  67.705  1.00  0.00    -0.172 C  
BRANCH   5   6
HETATM    6  C   UNL     1      -9.644  11.812  66.457  1.00  0.00    -0.225 C  
BRANCH   6   7
HETATM    7  C   UNL     1     -10.235  13.021  65.774  1.00  0.00    -0.297 A  
HETATM    8  C   UNL     1     -11.251  15.269  64.475  1.00  0.00    -0.280 A  
HETATM    9  C   UNL     1     -11.716  14.000  64.140  1.00  0.00    -0.315 A  
HETATM   10  O   UNL     1     -11.730  16.367  63.819  1.00  0.00    -1.553 OA 
HETATM   11  C   UNL     1     -10.296  15.437  65.466  1.00  0.00    -0.412 A  
HETATM   12  H   UNL     1     -13.000  14.680  62.715  1.00  0.00     0.000 HD 
HETATM   13  C   UNL     1     -11.218  12.872  64.785  1.00  0.00    -0.336 A  
HETATM   14  O   UNL     1     -12.660  13.910  63.155  1.00  0.00    -0.775 OA 
HETATM   15  C   UNL     1      -9.790  14.310  66.119  1.00  0.00    -0.335 A  
HETATM   16  H   UNL     1     -11.413  17.234  64.047  1.00  0.00     0.000 HD 
ENDBRANCH   6   7
ENDBRANCH   5   6
ENDBRANCH   3   5
ENDBRANCH   2   3
BRANCH   2  17
HETATM   17  C   UNL     1     -11.994  12.056  69.480  1.00  0.00    -0.346 C  
BRANCH  17  18
HETATM   18  C   UNL     1     -11.821  13.577  69.380  1.00  0.00    -0.389 C  
BRANCH  18  19
HETATM   19  C   UNL     1     -12.098  14.236  70.712  1.00  0.00    -0.418 A  
HETATM   20  C   UNL     1     -11.537  15.482  71.020  1.00  0.00    -0.424 A  
HETATM   21  C   UNL     1     -12.962  13.629  71.635  1.00  0.00    -0.448 A  
HETATM   22  C   UNL     1     -13.266  14.259  72.843  1.00  0.00    -0.593 A  
HETATM   23  H   UNL     1     -12.606  17.006  74.480  1.00  0.00     0.000 HD 
HETATM   24  C   UNL     1     -11.838  16.112  72.230  1.00  0.00    -0.631 A  
HETATM   25  C   UNL     1     -12.704  15.500  73.127  1.00  0.00    -0.478 A  
HETATM   26  O   UNL     1     -12.989  16.159  74.287  1.00  0.00    -0.646 OA 
ENDBRANCH  18  19
ENDBRANCH  17  18
ENDBRANCH   2  17
TORSDOF 7
ENDMDL
MODEL        2
REMARK 921   NORMALIZED FREE ENERGY PREDICTED BY IDOCK:   -7.01 KCAL/MOL
REMARK 922        TOTAL FREE ENERGY PREDICTED BY IDOCK:  -11.04 KCAL/MOL
REMARK 923 INTER-LIGAND FREE ENERGY PREDICTED BY IDOCK:  -10.24 KCAL/MOL
REMARK 924 INTRA-LIGAND FREE ENERGY PREDICTED BY IDOCK:   -0.80 KCAL/MOL
REMARK 927      BINDING AFFINITY PREDICTED BY RF-SCORE:    0.00 PKD
ROOT
HETATM    1  C   UNL     1     -14.225  15.315  71.787  1.00  0.00    -0.669 C  
HETATM    2  C   UNL     1     -12.982  14.615  71.225  1.00  0.00    -0.339 C  
ENDROOT
BRANCH   2   3
HETATM    3  N   UNL     1     -12.828  14.831  69.778  1.00  0.00    -0.572 NA 
HETATM    4  H   UNL     1     -13.667  15.270  69.397  1.00  0.00     0.000 HD 
BRANCH   3   5
HETATM    5  C   UNL     1     -11.634  15.595  69.384  1.00  0.00    -0.370 C  
BRANCH   5   6
HETATM    6  C   UNL     1     -10.643  14.803  68.520  1.00  0.00    -0.248 C  
BRANCH   6   7
HETATM    7  C   UNL     1     -11.124  14.623  67.101  1.00  0.00    -0.328 A  
HETATM    8  C   UNL     1     -12.091  14.287  64.508  1.00  0.00    -0.480 A  
HETATM    9  C   UNL     1     -11.520  15.499  64.888  1.00  0.00    -0.279 A  
HETATM   10  O   UNL     1     -12.589  14.132  63.246  1.00  0.00    -1.080 OA 
HETATM   11  C   UNL     1     -12.171  13.229  65.400  1.00  0.00    -0.501 A  
HETATM   12  H   UNL     1     -11.807  16.377  63.075  1.00  0.00     0.000 HD 
HETATM   13  C   UNL     1     -11.030  15.676  66.179  1.00  0.00    -0.206 A  
HETATM   14  O   UNL     1     -11.473  16.498  63.955  1.00  0.00    -1.137 OA 
HETATM   15  C   UNL     1     -11.682  13.398  66.698  1.00  0.00    -0.428 A  
HETATM   16  H   UNL     1     -12.979  13.306  62.986  1.00  0.00     0.000 HD 
ENDBRANCH   6   7
ENDBRANCH   5   6
ENDBRANCH   3   5
ENDBRANCH   2   3
BRANCH   2  17
HETATM   17  C   UNL     1     -13.072  13.105  71.526  1.00  0.00    -0.404 C  
BRANCH  17  18
HETATM   18  C   UNL     1     -12.395  12.229  70.464  1.00  0.00    -0.349 C  
BRANCH  18  19
HETATM   19  C   UNL     1     -12.215  10.817  70.970  1.00  0.00    -0.485 A  
HETATM   20  C   UNL     1     -11.061  10.088  70.654  1.00  0.00    -0.408 A  
HETATM   21  C   UNL     1     -13.181  10.238  71.807  1.00  0.00    -0.534 A  
HETATM   22  C   UNL     1     -12.994   8.954  72.324  1.00  0.00    -0.479 A  
HETATM   23  H   UNL     1     -10.816   6.521  72.284  1.00  0.00     0.000 HD 
HETATM   24  C   UNL     1     -10.875   8.803  71.169  1.00  0.00    -0.335 A  
HETATM   25  C   UNL     1     -11.837   8.250  72.004  1.00  0.00    -0.347 A  
HETATM   26  O   UNL     1     -11.606   7.002  72.503  1.00  0.00    -0.264 OA 
ENDBRANCH  18  19
ENDBRANCH  17  18
ENDBRANCH   2  17
TORSDOF 7
ENDMDL
MODEL        3
REMARK 921   NORMALIZED FREE ENERGY PREDICTED BY IDOCK:   -6.98 KCAL/MOL
REMARK 922        TOTAL FREE ENERGY PREDICTED BY IDOCK:  -11.00 KCAL/MOL
REMARK 923 INTER-LIGAND FREE ENERGY PREDICTED BY IDOCK:  -10.01 KCAL/MOL
REMARK 924 INTRA-LIGAND FREE ENERGY PREDICTED BY IDOCK:   -0.99 KCAL/MOL
REMARK 927      BINDING AFFINITY PREDICTED BY RF-SCORE:    0.00 PKD
ROOT
HETATM    1  C   UNL     1     -10.886   8.986  70.078  1.00  0.00    -0.247 C  
HETATM    2  C   UNL     1     -10.970  10.324  69.334  1.00  0.00    -0.247 C  
ENDROOT
BRANCH   2   3
HETATM    3  N   UNL     1      -9.647  10.942  69.153  1.00  0.00    -0.370 NA 
HETATM    4  H   UNL     1      -8.944  10.431  69.687  1.00  0.00     0.000 HD 
BRANCH   3   5
HETATM    5  C   UNL     1      -9.212  11.091  67.756  1.00  0.00    -0.155 C  
BRANCH   5   6
HETATM    6  C   UNL     1     -10.125  10.391  66.740  1.00  0.00    -0.267 C  
BRANCH   6   7
HETATM    7  C   UNL     1     -10.726  11.350  65.741  1.00  0.00    -0.309 A  
HETATM    8  C   UNL     1     -11.872  13.056  63.857  1.00  0.00    -0.477 A  
HETATM    9  C   UNL     1     -12.293  13.097  65.183  1.00  0.00    -0.473 A  
HETATM   10  O   UNL     1     -12.453  13.872  62.929  1.00  0.00    -1.034 OA 
HETATM   11  C   UNL     1     -10.870  12.185  63.457  1.00  0.00    -0.518 A  
HETATM   12  H   UNL     1     -13.672  14.559  64.859  1.00  0.00     0.000 HD 
HETATM   13  C   UNL     1     -11.725  12.253  66.133  1.00  0.00    -0.440 A  
HETATM   14  O   UNL     1     -13.284  13.983  65.507  1.00  0.00    -0.710 OA 
HETATM   15  C   UNL     1     -10.294  11.333  64.403  1.00  0.00    -0.388 A  
HETATM   16  H   UNL     1     -12.166  13.844  62.024  1.00  0.00     0.000 HD 
ENDBRANCH   6   7
ENDBRANCH   5   6
ENDBRANCH   3   5
ENDBRANCH   2   3
BRANCH   2  17
HETATM   17  C   UNL     1     -11.897  11.279  70.111  1.00  0.00    -0.449 C  
BRANCH  17  18
HETATM   18  C   UNL     1     -11.792  12.740  69.652  1.00  0.00    -0.384 C  
BRANCH  18  19
HETATM   19  C   UNL     1     -12.218  13.679  70.757  1.00  0.00    -0.424 A  
HETATM   20  C   UNL     1     -11.674  14.968  70.845  1.00  0.00    -0.376 A  
HETATM   21  C   UNL     1     -13.202  13.289  71.677  1.00  0.00    -0.446 A  
HETATM   22  C   UNL     1     -13.640  14.172  72.666  1.00  0.00    -0.618 A  
HETATM   23  H   UNL     1     -13.131  17.224  73.713  1.00  0.00     0.000 HD 
HETATM   24  C   UNL     1     -12.110  15.851  71.835  1.00  0.00    -0.578 A  
HETATM   25  C   UNL     1     -13.092  15.450  72.731  1.00  0.00    -0.466 A  
HETATM   26  O   UNL     1     -13.504  16.351  73.669  1.00  0.00    -0.631 OA 
ENDBRANCH  18  19
ENDBRANCH  17  18
ENDBRANCH   2  17
TORSDOF 7
ENDMDL
MODEL        4
REMARK 921   NORMALIZED FREE ENERGY PREDICTED BY IDOCK:   -6.83 KCAL/MOL
REMARK 922        TOTAL FREE ENERGY PREDICTED BY IDOCK:  -10.79 KCAL/MOL
REMARK 923 INTER-LIGAND FREE ENERGY PREDICTED BY IDOCK:   -9.97 KCAL/MOL
REMARK 924 INTRA-LIGAND FREE ENERGY PREDICTED BY IDOCK:   -0.82 KCAL/MOL
REMARK 927      BINDING AFFINITY PREDICTED BY RF-SCORE:    0.00 PKD
ROOT
HETATM    1  C   UNL     1     -13.350  15.192  72.484  1.00  0.00    -0.540 C  
HETATM    2  C   UNL     1     -12.542  14.399  71.452  1.00  0.00    -0.354 C  
ENDROOT
BRANCH   2   3
HETATM    3  N   UNL     1     -12.798  14.855  70.076  1.00  0.00    -0.601 NA 
HETATM    4  H   UNL     1     -13.653  15.410  70.043  1.00  0.00     0.000 HD 
BRANCH   3   5
HETATM    5  C   UNL     1     -11.692  15.594  69.448  1.00  0.00    -0.383 C  
BRANCH   5   6
HETATM    6  C   UNL     1     -10.761  14.721  68.595  1.00  0.00    -0.253 C  
BRANCH   6   7
HETATM    7  C   UNL     1     -11.214  14.617  67.160  1.00  0.00    -0.349 A  
HETATM    8  C   UNL     1     -11.971  14.413  64.484  1.00  0.00    -0.472 A  
HETATM    9  C   UNL     1     -12.372  13.443  65.399  1.00  0.00    -0.477 A  
HETATM   10  O   UNL     1     -12.319  14.297  63.169  1.00  0.00    -1.096 OA 
HETATM   11  C   UNL     1     -11.209  15.498  64.889  1.00  0.00    -0.396 A  
HETATM   12  H   UNL     1     -13.375  12.336  64.016  1.00  0.00     0.000 HD 
HETATM   13  C   UNL     1     -12.004  13.538  66.738  1.00  0.00    -0.453 A  
HETATM   14  O   UNL     1     -13.124  12.400  64.930  1.00  0.00    -0.765 OA 
HETATM   15  C   UNL     1     -10.834  15.602  66.230  1.00  0.00    -0.262 A  
HETATM   16  H   UNL     1     -12.045  14.958  62.544  1.00  0.00     0.000 HD 
ENDBRANCH   6   7
ENDBRANCH   5   6
ENDBRANCH   3   5
ENDBRANCH   2   3
BRANCH   2  17
HETATM   17  C   UNL     1     -12.884  12.901  71.582  1.00  0.00    -0.368 C  
BRANCH  17  18
HETATM   18  C   UNL     1     -12.192  12.023  70.532  1.00  0.00    -0.414 C  
BRANCH  18  19
HETATM   19  C   UNL     1     -12.093  10.593  71.011  1.00  0.00    -0.473 A  
HETATM   20  C   UNL     1     -10.934   9.840  70.776  1.00  0.00    -0.406 A  
HETATM   21  C   UNL     1     -13.143  10.019  71.743  1.00  0.00    -0.562 A  
HETATM   22  C   UNL     1     -13.036   8.717  72.237  1.00  0.00    -0.462 A  
HETATM   23  H   UNL     1     -10.925   6.227  72.318  1.00  0.00     0.000 HD 
HETATM   24  C   UNL     1     -10.827   8.538  71.269  1.00  0.00    -0.312 A  
HETATM   25  C   UNL     1     -11.874   7.990  71.999  1.00  0.00    -0.326 A  
HETATM   26  O   UNL     1     -11.719   6.723  72.480  1.00  0.00    -0.245 OA 
ENDBRANCH  18  19
ENDBRANCH  17  18
ENDBRANCH   2  17
TORSDOF 7
ENDMDL
MODEL        5
REMARK 921   NORMALIZED FREE ENERGY PREDICTED BY IDOCK:   -6.82 KCAL/MOL
REMARK 922        TOTAL FREE ENERGY PREDICTED BY IDOCK:  -10.78 KCAL/MOL
REMARK 923 INTER-LIGAND FREE ENERGY PREDICTED BY IDOCK:   -9.58 KCAL/MOL
REMARK 924 INTRA-LIGAND FREE ENERGY PREDICTED BY IDOCK:   -1.20 KCAL/MOL
REMARK 927      BINDING AFFINITY PREDICTED BY RF-SCORE:    0.00 PKD
ROOT
HETATM    1  C   UNL     1      -9.905  10.690  69.000  1.00  0.00    -0.218 C  
HETATM    2  C   UNL     1     -11.433  10.583  68.950  1.00  0.00    -0.226 C  
ENDROOT
BRANCH   2   3
HETATM    3  N   UNL     1     -11.964  10.851  67.604  1.00  0.00    -0.510 NA 
HETATM    4  H   UNL     1     -12.674  11.582  67.645  1.00  0.00     0.000 HD 
BRANCH   3   5
HETATM    5  C   UNL     1     -10.953  11.185  66.588  1.00  0.00    -0.228 C  
BRANCH   5   6
HETATM    6  C   UNL     1     -11.454  12.143  65.499  1.00  0.00    -0.394 C  
BRANCH   6   7
HETATM    7  C   UNL     1     -10.933  13.548  65.677  1.00  0.00    -0.296 A  
HETATM    8  C   UNL     1      -9.896  16.118  65.980  1.00  0.00    -0.347 A  
HETATM    9  C   UNL     1     -10.851  15.862  64.999  1.00  0.00    -0.426 A  
HETATM   10  O   UNL     1      -9.369  17.371  66.109  1.00  0.00    -0.414 OA 
HETATM   11  C   UNL     1      -9.462  15.111  66.828  1.00  0.00    -0.260 A  
HETATM   12  H   UNL     1     -10.875  17.776  64.307  1.00  0.00     0.000 HD 
HETATM   13  C   UNL     1     -11.378  14.584  64.843  1.00  0.00    -0.394 A  
HETATM   14  O   UNL     1     -11.235  16.904  64.200  1.00  0.00    -1.176 OA 
HETATM   15  C   UNL     1      -9.985  13.825  66.678  1.00  0.00    -0.279 A  
HETATM   16  H   UNL     1      -8.717  17.546  66.778  1.00  0.00     0.000 HD 
ENDBRANCH   6   7
ENDBRANCH   5   6
ENDBRANCH   3   5
ENDBRANCH   2   3
BRANCH   2  17
HETATM   17  C   UNL     1     -12.044  11.569  69.964  1.00  0.00    -0.408 C  
BRANCH  17  18
HETATM   18  C   UNL     1     -11.894  13.040  69.553  1.00  0.00    -0.385 C  
BRANCH  18  19
HETATM   19  C   UNL     1     -12.239  13.955  70.705  1.00  0.00    -0.441 A  
HETATM   20  C   UNL     1     -13.204  13.580  71.649  1.00  0.00    -0.449 A  
HETATM   21  C   UNL     1     -11.557  15.170  70.871  1.00  0.00    -0.380 A  
HETATM   22  C   UNL     1     -11.831  15.994  71.965  1.00  0.00    -0.623 A  
HETATM   23  H   UNL     1     -13.726  16.094  74.623  1.00  0.00     0.000 HD 
HETATM   24  C   UNL     1     -13.480  14.405  72.742  1.00  0.00    -0.582 A  
HETATM   25  C   UNL     1     -12.788  15.599  72.895  1.00  0.00    -0.471 A  
HETATM   26  O   UNL     1     -13.073  16.364  73.987  1.00  0.00    -0.673 OA 
ENDBRANCH  18  19
ENDBRANCH  17  18
ENDBRANCH   2  17
TORSDOF 7
ENDMDL
MODEL        6
REMARK 921   NORMALIZED FREE ENERGY PREDICTED BY IDOCK:   -6.80 KCAL/MOL
REMARK 922        TOTAL FREE ENERGY PREDICTED BY IDOCK:  -10.74 KCAL/MOL
REMARK 923 INTER-LIGAND FREE ENERGY PREDICTED BY IDOCK:   -9.53 KCAL/MOL
REMARK 924 INTRA-LIGAND FREE ENERGY PREDICTED BY IDOCK:   -1.21 KCAL/MOL
REMARK 927      BINDING AFFINITY PREDICTED BY RF-SCORE:    0.00 PKD
ROOT
HETATM    1  C   UNL     1     -11.783  13.200  65.546  1.00  0.00    -0.393 C  
HETATM    2  C   UNL     1     -11.458  12.846  67.002  1.00  0.00    -0.339 C  
ENDROOT
BRANCH   2   3
HETATM    3  N   UNL     1     -11.930  11.500  67.364  1.00  0.00    -0.597 NA 
HETATM    4  H   UNL     1     -12.394  11.063  66.568  1.00  0.00     0.000 HD 
BRANCH   3   5
HETATM    5  C   UNL     1     -10.899  10.601  67.904  1.00  0.00    -0.277 C  
BRANCH   5   6
HETATM    6  C   UNL     1     -10.402  10.988  69.304  1.00  0.00    -0.181 C  
BRANCH   6   7
HETATM    7  C   UNL     1     -11.288  10.456  70.403  1.00  0.00    -0.417 A  
HETATM    8  C   UNL     1     -12.988   9.464  72.377  1.00  0.00    -0.351 A  
HETATM    9  C   UNL     1     -11.884   8.721  71.969  1.00  0.00    -0.372 A  
HETATM   10  O   UNL     1     -13.836   8.965  73.325  1.00  0.00    -1.163 OA 
HETATM   11  C   UNL     1     -13.249  10.709  71.826  1.00  0.00    -0.526 A  
HETATM   12  H   UNL     1     -12.273   7.169  73.228  1.00  0.00     0.000 HD 
HETATM   13  C   UNL     1     -11.027   9.208  70.988  1.00  0.00    -0.375 A  
HETATM   14  O   UNL     1     -11.688   7.501  72.558  1.00  0.00    -0.300 OA 
HETATM   15  C   UNL     1     -12.394  11.207  70.839  1.00  0.00    -0.500 A  
HETATM   16  H   UNL     1     -14.590   9.472  73.603  1.00  0.00     0.000 HD 
ENDBRANCH   6   7
ENDBRANCH   5   6
ENDBRANCH   3   5
ENDBRANCH   2   3
BRANCH   2  17
HETATM   17  C   UNL     1     -12.094  13.896  67.934  1.00  0.00    -0.318 C  
BRANCH  17  18
HETATM   18  C   UNL     1     -11.080  14.595  68.848  1.00  0.00    -0.268 C  
BRANCH  18  19
HETATM   19  C   UNL     1     -11.725  14.995  70.155  1.00  0.00    -0.340 A  
HETATM   20  C   UNL     1     -11.190  16.036  70.926  1.00  0.00    -0.365 A  
HETATM   21  C   UNL     1     -12.899  14.360  70.588  1.00  0.00    -0.390 A  
HETATM   22  C   UNL     1     -13.531  14.762  71.766  1.00  0.00    -0.470 A  
HETATM   23  H   UNL     1     -13.212  16.952  74.167  1.00  0.00     0.000 HD 
HETATM   24  C   UNL     1     -11.820  16.437  72.105  1.00  0.00    -0.499 A  
HETATM   25  C   UNL     1     -12.987  15.803  72.511  1.00  0.00    -0.470 A  
HETATM   26  O   UNL     1     -13.583  16.241  73.658  1.00  0.00    -0.618 OA 
ENDBRANCH  18  19
ENDBRANCH  17  18
ENDBRANCH   2  17
TORSDOF 7
ENDMDL
MODEL        7
REMARK 921   NORMALIZED FREE ENERGY PREDICTED BY IDOCK:   -6.77 KCAL/MOL
REMARK 922        TOTAL FREE ENERGY PREDICTED BY IDOCK:  -10.70 KCAL/MOL
REMARK 923 INTER-LIGAND FREE ENERGY PREDICTED BY IDOCK:   -9.00 KCAL/MOL
REMARK 924 INTRA-LIGAND FREE ENERGY PREDICTED BY IDOCK:   -1.70 KCAL/MOL
REMARK 927      BINDING AFFINITY PREDICTED BY RF-SCORE:    0.00 PKD
ROOT
HETATM    1  C   UNL     1     -10.352  17.920  68.454  1.00  0.00    -0.380 C  
HETATM    2  C   UNL     1     -10.475  16.731  69.414  1.00  0.00    -0.312 C  
ENDROOT
BRANCH   2   3
HETATM    3  N   UNL     1      -9.275  15.880  69.401  1.00  0.00    -0.255 NA 
HETATM    4  H   UNL     1      -9.505  14.942  69.730  1.00  0.00     0.000 HD 
BRANCH   3   5
HETATM    5  C   UNL     1      -8.576  15.805  68.108  1.00  0.00    -0.164 C  
BRANCH   5   6
HETATM    6  C   UNL     1      -8.626  14.420  67.450  1.00  0.00    -0.213 C  
BRANCH   6   7
HETATM    7  C   UNL     1      -9.642  14.341  66.338  1.00  0.00    -0.317 A  
HETATM    8  C   UNL     1     -11.579  14.172  64.339  1.00  0.00    -0.362 A  
HETATM    9  C   UNL     1     -11.049  15.410  64.694  1.00  0.00    -0.347 A  
HETATM   10  O   UNL     1     -12.548  14.093  63.380  1.00  0.00    -1.070 OA 
HETATM   11  C   UNL     1     -11.143  13.010  64.956  1.00  0.00    -0.319 A  
HETATM   12  H   UNL     1     -12.187  16.449  63.365  1.00  0.00     0.000 HD 
HETATM   13  C   UNL     1     -10.079  15.505  65.687  1.00  0.00    -0.406 A  
HETATM   14  O   UNL     1     -11.525  16.514  64.042  1.00  0.00    -1.137 OA 
HETATM   15  C   UNL     1     -10.170  13.095  65.955  1.00  0.00    -0.294 A  
HETATM   16  H   UNL     1     -12.910  13.249  63.137  1.00  0.00     0.000 HD 
ENDBRANCH   6   7
ENDBRANCH   5   6
ENDBRANCH   3   5
ENDBRANCH   2   3
BRANCH   2  17
HETATM   17  C   UNL     1     -11.716  15.899  69.034  1.00  0.00    -0.377 C  
BRANCH  17  18
HETATM   18  C   UNL     1     -12.483  15.356  70.247  1.00  0.00    -0.413 C  
BRANCH  18  19
HETATM   19  C   UNL     1     -12.313  13.859  70.361  1.00  0.00    -0.433 A  
HETATM   20  C   UNL     1     -12.961  13.144  71.377  1.00  0.00    -0.386 A  
HETATM   21  C   UNL     1     -11.543  13.161  69.419  1.00  0.00    -0.360 A  
HETATM   22  C   UNL     1     -11.428  11.771  69.486  1.00  0.00    -0.363 A  
HETATM   23  H   UNL     1     -12.465   9.247  71.280  1.00  0.00     0.000 HD 
HETATM   24  C   UNL     1     -12.844  11.754  71.446  1.00  0.00    -0.440 A  
HETATM   25  C   UNL     1     -12.086  11.079  70.498  1.00  0.00    -0.377 A  
HETATM   26  O   UNL     1     -12.016   9.720  70.589  1.00  0.00    -0.277 OA 
ENDBRANCH  18  19
ENDBRANCH  17  18
ENDBRANCH   2  17
TORSDOF 7
ENDMDL
MODEL        8
REMARK 921   NORMALIZED FREE ENERGY PREDICTED BY IDOCK:   -6.75 KCAL/MOL
REMARK 922        TOTAL FREE ENERGY PREDICTED BY IDOCK:  -10.68 KCAL/MOL
REMARK 923 INTER-LIGAND FREE ENERGY PREDICTED BY IDOCK:   -9.28 KCAL/MOL
REMARK 924 INTRA-LIGAND FREE ENERGY PREDICTED BY IDOCK:   -1.40 KCAL/MOL
REMARK 927      BINDING AFFINITY PREDICTED BY RF-SCORE:    0.00 PKD
ROOT
HETATM    1  C   UNL     1      -9.307   9.405  70.513  1.00  0.00    -0.319 C  
HETATM    2  C   UNL     1      -9.501  10.196  69.214  1.00  0.00    -0.218 C  
ENDROOT
BRANCH   2   3
HETATM    3  N   UNL     1      -8.646  11.392  69.159  1.00  0.00    -0.376 NA 
HETATM    4  H   UNL     1      -7.714  11.174  69.512  1.00  0.00     0.000 HD 
BRANCH   3   5
HETATM    5  C   UNL     1      -8.550  12.031  67.837  1.00  0.00    -0.165 C  
BRANCH   5   6
HETATM    6  C   UNL     1      -9.076  13.471  67.799  1.00  0.00    -0.207 C  
BRANCH   6   7
HETATM    7  C   UNL     1      -9.970  13.732  66.611  1.00  0.00    -0.279 A  
HETATM    8  C   UNL     1     -11.687  14.201  64.465  1.00  0.00    -0.413 A  
HETATM    9  C   UNL     1     -10.927  15.242  64.991  1.00  0.00    -0.437 A  
HETATM   10  O   UNL     1     -12.549  14.438  63.433  1.00  0.00    -1.054 OA 
HETATM   11  C   UNL     1     -11.591  12.919  64.985  1.00  0.00    -0.367 A  
HETATM   12  H   UNL     1     -11.661  16.633  63.699  1.00  0.00     0.000 HD 
HETATM   13  C   UNL     1     -10.063  15.018  66.059  1.00  0.00    -0.322 A  
HETATM   14  O   UNL     1     -11.071  16.481  64.428  1.00  0.00    -0.894 OA 
HETATM   15  C   UNL     1     -10.727  12.685  66.057  1.00  0.00    -0.295 A  
HETATM   16  H   UNL     1     -13.068  13.728  63.074  1.00  0.00     0.000 HD 
ENDBRANCH   6   7
ENDBRANCH   5   6
ENDBRANCH   3   5
ENDBRANCH   2   3
BRANCH   2  17
HETATM   17  C   UNL     1     -10.983  10.602  69.084  1.00  0.00    -0.296 C  
BRANCH  17  18
HETATM   18  C   UNL     1     -11.756  10.523  70.407  1.00  0.00    -0.434 C  
BRANCH  18  19
HETATM   19  C   UNL     1     -12.335  11.872  70.769  1.00  0.00    -0.416 A  
HETATM   20  C   UNL     1     -13.180  12.010  71.879  1.00  0.00    -0.469 A  
HETATM   21  C   UNL     1     -11.990  13.011  70.028  1.00  0.00    -0.383 A  
HETATM   22  C   UNL     1     -12.476  14.269  70.391  1.00  0.00    -0.426 A  
HETATM   23  H   UNL     1     -14.357  15.676  72.659  1.00  0.00     0.000 HD 
HETATM   24  C   UNL     1     -13.668  13.267  72.241  1.00  0.00    -0.686 A  
HETATM   25  C   UNL     1     -13.308  14.385  71.500  1.00  0.00    -0.355 A  
HETATM   26  O   UNL     1     -13.790  15.597  71.901  1.00  0.00    -0.471 OA 
ENDBRANCH  18  19
ENDBRANCH  17  18
ENDBRANCH   2  17
TORSDOF 7
ENDMDL
MODEL        9
REMARK 921   NORMALIZED FREE ENERGY PREDICTED BY IDOCK:   -6.69 KCAL/MOL
REMARK 922        TOTAL FREE ENERGY PREDICTED BY IDOCK:  -10.59 KCAL/MOL
REMARK 923 INTER-LIGAND FREE ENERGY PREDICTED BY IDOCK:   -9.43 KCAL/MOL
REMARK 924 INTRA-LIGAND FREE ENERGY PREDICTED BY IDOCK:   -1.16 KCAL/MOL
REMARK 927      BINDING AFFINITY PREDICTED BY RF-SCORE:    0.00 PKD
ROOT
HETATM    1  C   UNL     1      -9.191   8.433  69.198  1.00  0.00    -0.150 C  
HETATM    2  C   UNL     1     -10.663   8.817  69.383  1.00  0.00    -0.169 C  
ENDROOT
BRANCH   2   3
HETATM    3  N   UNL     1     -11.260   9.342  68.145  1.00  0.00    -0.497 NA 
HETATM    4  H   UNL     1     -11.836  10.158  68.351  1.00  0.00     0.000 HD 
BRANCH   3   5
HETATM    5  C   UNL     1     -10.302   9.656  67.073  1.00  0.00    -0.248 C  
BRANCH   5   6
HETATM    6  C   UNL     1      -9.886  11.132  67.020  1.00  0.00    -0.212 C  
BRANCH   6   7
HETATM    7  C   UNL     1     -10.608  11.901  65.941  1.00  0.00    -0.306 A  
HETATM    8  C   UNL     1     -11.965  13.248  63.912  1.00  0.00    -0.483 A  
HETATM    9  C   UNL     1     -12.433  13.305  65.222  1.00  0.00    -0.489 A  
HETATM   10  O   UNL     1     -12.646  13.885  62.914  1.00  0.00    -0.966 OA 
HETATM   11  C   UNL     1     -10.815  12.540  63.599  1.00  0.00    -0.486 A  
HETATM   12  H   UNL     1     -14.032  14.478  64.761  1.00  0.00     0.000 HD 
HETATM   13  C   UNL     1     -11.761  12.640  66.243  1.00  0.00    -0.460 A  
HETATM   14  O   UNL     1     -13.573  14.024  65.457  1.00  0.00    -0.596 OA 
HETATM   15  C   UNL     1     -10.133  11.869  64.618  1.00  0.00    -0.301 A  
HETATM   16  H   UNL     1     -12.327  13.846  62.020  1.00  0.00     0.000 HD 
ENDBRANCH   6   7
ENDBRANCH   5   6
ENDBRANCH   3   5
ENDBRANCH   2   3
BRANCH   2  17
HETATM   17  C   UNL     1     -10.777   9.865  70.508  1.00  0.00    -0.382 C  
BRANCH  17  18
HETATM   18  C   UNL     1     -12.223  10.160  70.925  1.00  0.00    -0.455 C  
BRANCH  18  19
HETATM   19  C   UNL     1     -12.477  11.649  70.959  1.00  0.00    -0.436 A  
HETATM   20  C   UNL     1     -11.964  12.483  69.955  1.00  0.00    -0.371 A  
HETATM   21  C   UNL     1     -13.273  12.208  71.969  1.00  0.00    -0.496 A  
HETATM   22  C   UNL     1     -13.557  13.575  71.974  1.00  0.00    -0.589 A  
HETATM   23  H   UNL     1     -12.964  16.272  70.230  1.00  0.00     0.000 HD 
HETATM   24  C   UNL     1     -12.247  13.850  69.961  1.00  0.00    -0.408 A  
HETATM   25  C   UNL     1     -13.045  14.383  70.964  1.00  0.00    -0.353 A  
HETATM   26  O   UNL     1     -13.314  15.720  70.920  1.00  0.00    -0.576 OA 
ENDBRANCH  18  19
ENDBRANCH  17  18
ENDBRANCH   2  17
TORSDOF 7
ENDMDL
MODEL       10
REMARK 921   NORMALIZED FREE ENERGY PREDICTED BY IDOCK:   -6.55 KCAL/MOL
REMARK 922        TOTAL FREE ENERGY PREDICTED BY IDOCK:  -10.39 KCAL/MOL
REMARK 923 INTER-LIGAND FREE ENERGY PREDICTED BY IDOCK:   -9.18 KCAL/MOL
REMARK 924 INTRA-LIGAND FREE ENERGY PREDICTED BY IDOCK:   -1.22 KCAL/MOL
REMARK 927      BINDING AFFINITY PREDICTED BY RF-SCORE:    0.00 PKD
ROOT
HETATM    1  C   UNL     1      -9.803   8.604  66.672  1.00  0.00    -0.336 C  
HETATM    2  C   UNL     1      -9.827   9.589  67.847  1.00  0.00    -0.156 C  
ENDROOT
BRANCH   2   3
HETATM    3  N   UNL     1     -10.920   9.302  68.790  1.00  0.00    -0.443 NA 
HETATM    4  H   UNL     1     -11.083   8.297  68.844  1.00  0.00     0.000 HD 
BRANCH   3   5
HETATM    5  C   UNL     1     -10.742   9.860  70.139  1.00  0.00    -0.308 C  
BRANCH   5   6
HETATM    6  C   UNL     1     -12.057  10.221  70.844  1.00  0.00    -0.468 C  
BRANCH   6   7
HETATM    7  C   UNL     1     -12.335  11.704  70.831  1.00  0.00    -0.436 A  
HETATM    8  C   UNL     1     -12.901  14.433  70.740  1.00  0.00    -0.353 A  
HETATM    9  C   UNL     1     -13.339  13.665  71.816  1.00  0.00    -0.388 A  
HETATM   10  O   UNL     1     -13.202  15.763  70.683  1.00  0.00    -0.705 OA 
HETATM   11  C   UNL     1     -12.166  13.862  69.712  1.00  0.00    -0.388 A  
HETATM   12  H   UNL     1     -14.248  15.224  72.755  1.00  0.00     0.000 HD 
HETATM   13  C   UNL     1     -13.058  12.303  71.873  1.00  0.00    -0.469 A  
HETATM   14  O   UNL     1     -14.057  14.295  72.795  1.00  0.00    -0.575 OA 
HETATM   15  C   UNL     1     -11.880  12.495  69.761  1.00  0.00    -0.380 A  
HETATM   16  H   UNL     1     -12.904  16.288  69.949  1.00  0.00     0.000 HD 
ENDBRANCH   6   7
ENDBRANCH   5   6
ENDBRANCH   3   5
ENDBRANCH   2   3
BRANCH   2  17
HETATM   17  C   UNL     1      -9.965  11.024  67.301  1.00  0.00    -0.210 C  
BRANCH  17  18
HETATM   18  C   UNL     1     -11.124  11.193  66.310  1.00  0.00    -0.176 C  
BRANCH  18  19
HETATM   19  C   UNL     1     -11.204  12.621  65.820  1.00  0.00    -0.347 A  
HETATM   20  C   UNL     1     -10.100  13.476  65.932  1.00  0.00    -0.311 A  
HETATM   21  C   UNL     1     -12.371  13.090  65.199  1.00  0.00    -0.536 A  
HETATM   22  C   UNL     1     -12.433  14.390  64.694  1.00  0.00    -0.364 A  
HETATM   23  H   UNL     1     -10.574  17.058  64.390  1.00  0.00     0.000 HD 
HETATM   24  C   UNL     1     -10.161  14.777  65.429  1.00  0.00    -0.415 A  
HETATM   25  C   UNL     1     -11.322  15.221  64.809  1.00  0.00    -0.391 A  
HETATM   26  O   UNL     1     -11.333  16.491  64.312  1.00  0.00    -1.020 OA 
ENDBRANCH  18  19
ENDBRANCH  17  18
ENDBRANCH   2  17
TORSDOF 7
ENDMDL
MODEL       11
REMARK 921   NORMALIZED FREE ENERGY PREDICTED BY IDOCK:   -6.53 KCAL/MOL
REMARK 922        TOTAL FREE ENERGY PREDICTED BY IDOCK:  -10.37 KCAL/MOL
REMARK 923 INTER-LIGAND FREE ENERGY PREDICTED BY IDOCK:   -9.25 KCAL/MOL
REMARK 924 INTRA-LIGAND FREE ENERGY PREDICTED BY IDOCK:   -1.12 KCAL/MOL
REMARK 927      BINDING AFFINITY PREDICTED BY RF-SCORE:    0.00 PKD
ROOT
HETATM    1  C   UNL     1     -10.653   7.662  67.225  1.00  0.00    -0.388 C  
HETATM    2  C   UNL     1     -10.285   8.697  68.293  1.00  0.00    -0.198 C  
ENDROOT
BRANCH   2   3
HETATM    3  N   UNL     1     -11.212   8.669  69.437  1.00  0.00    -0.428 NA 
HETATM    4  H   UNL     1     -11.233   7.736  69.849  1.00  0.00     0.000 HD 
BRANCH   3   5
HETATM    5  C   UNL     1     -10.951   9.676  70.477  1.00  0.00    -0.313 C  
BRANCH   5   6
HETATM    6  C   UNL     1     -12.196  10.089  71.273  1.00  0.00    -0.498 C  
BRANCH   6   7
HETATM    7  C   UNL     1     -12.525  11.554  71.120  1.00  0.00    -0.442 A  
HETATM    8  C   UNL     1     -13.086  14.276  70.906  1.00  0.00    -0.304 A  
HETATM    9  C   UNL     1     -12.291  13.650  69.949  1.00  0.00    -0.249 A  
HETATM   10  O   UNL     1     -13.337  15.616  70.815  1.00  0.00    -0.727 OA 
HETATM   11  C   UNL     1     -13.622  13.558  71.963  1.00  0.00    -0.589 A  
HETATM   12  H   UNL     1     -11.990  15.348  68.867  1.00  0.00     0.000 HD 
HETATM   13  C   UNL     1     -12.009  12.291  70.044  1.00  0.00    -0.379 A  
HETATM   14  O   UNL     1     -11.797  14.420  68.932  1.00  0.00    -0.299 OA 
HETATM   15  C   UNL     1     -13.343  12.193  72.067  1.00  0.00    -0.470 A  
HETATM   16  H   UNL     1     -13.879  16.043  71.468  1.00  0.00     0.000 HD 
ENDBRANCH   6   7
ENDBRANCH   5   6
ENDBRANCH   3   5
ENDBRANCH   2   3
BRANCH   2  17
HETATM   17  C   UNL     1     -10.276  10.102  67.657  1.00  0.00    -0.246 C  
BRANCH  17  18
HETATM   18  C   UNL     1      -9.955  10.091  66.157  1.00  0.00    -0.322 C  
BRANCH  18  19
HETATM   19  C   UNL     1     -10.647  11.235  65.453  1.00  0.00    -0.312 A  
HETATM   20  C   UNL     1     -10.495  11.420  64.072  1.00  0.00    -0.435 A  
HETATM   21  C   UNL     1     -11.493  12.097  66.168  1.00  0.00    -0.429 A  
HETATM   22  C   UNL     1     -12.179  13.122  65.514  1.00  0.00    -0.513 A  
HETATM   23  H   UNL     1     -12.577  14.368  62.522  1.00  0.00     0.000 HD 
HETATM   24  C   UNL     1     -11.179  12.446  63.418  1.00  0.00    -0.492 A  
HETATM   25  C   UNL     1     -12.020  13.283  64.141  1.00  0.00    -0.447 A  
HETATM   26  O   UNL     1     -12.686  14.259  63.459  1.00  0.00    -0.767 OA 
ENDBRANCH  18  19
ENDBRANCH  17  18
ENDBRANCH   2  17
TORSDOF 7
ENDMDL
MODEL       12
REMARK 921   NORMALIZED FREE ENERGY PREDICTED BY IDOCK:   -6.53 KCAL/MOL
REMARK 922        TOTAL FREE ENERGY PREDICTED BY IDOCK:  -10.36 KCAL/MOL
REMARK 923 INTER-LIGAND FREE ENERGY PREDICTED BY IDOCK:   -8.49 KCAL/MOL
REMARK 924 INTRA-LIGAND FREE ENERGY PREDICTED BY IDOCK:   -1.88 KCAL/MOL
REMARK 927      BINDING AFFINITY PREDICTED BY RF-SCORE:    0.00 PKD
ROOT
HETATM    1  C   UNL     1     -13.620  13.964  72.127  1.00  0.00    -0.599 C  
HETATM    2  C   UNL     1     -12.987  13.933  70.732  1.00  0.00    -0.196 C  
ENDROOT
BRANCH   2   3
HETATM    3  N   UNL     1     -11.944  12.901  70.617  1.00  0.00    -0.524 NA 
HETATM    4  H   UNL     1     -11.859  12.388  71.495  1.00  0.00     0.000 HD 
BRANCH   3   5
HETATM    5  C   UNL     1     -12.114  11.963  69.497  1.00  0.00    -0.226 C  
BRANCH   5   6
HETATM    6  C   UNL     1     -10.956  11.976  68.489  1.00  0.00    -0.280 C  
BRANCH   6   7
HETATM    7  C   UNL     1     -11.382  12.450  67.121  1.00  0.00    -0.390 A  
HETATM    8  C   UNL     1     -12.120  13.393  64.604  1.00  0.00    -0.410 A  
HETATM    9  C   UNL     1     -11.342  12.244  64.718  1.00  0.00    -0.323 A  
HETATM   10  O   UNL     1     -12.457  13.870  63.369  1.00  0.00    -1.068 OA 
HETATM   11  C   UNL     1     -12.552  14.073  65.732  1.00  0.00    -0.512 A  
HETATM   12  H   UNL     1     -11.205  11.953  62.708  1.00  0.00     0.000 HD 
HETATM   13  C   UNL     1     -10.972  11.762  65.970  1.00  0.00    -0.355 A  
HETATM   14  O   UNL     1     -10.952  11.624  63.562  1.00  0.00    -0.397 OA 
HETATM   15  C   UNL     1     -12.185  13.597  66.993  1.00  0.00    -0.373 A  
HETATM   16  H   UNL     1     -12.988  14.654  63.291  1.00  0.00     0.000 HD 
ENDBRANCH   6   7
ENDBRANCH   5   6
ENDBRANCH   3   5
ENDBRANCH   2   3
BRANCH   2  17
HETATM   17  C   UNL     1     -12.393  15.320  70.413  1.00  0.00    -0.422 C  
BRANCH  17  18
HETATM   18  C   UNL     1     -10.864  15.369  70.523  1.00  0.00    -0.327 C  
BRANCH  18  19
HETATM   19  C   UNL     1     -10.252  15.882  69.239  1.00  0.00    -0.250 A  
HETATM   20  C   UNL     1     -10.651  17.113  68.701  1.00  0.00    -0.352 A  
HETATM   21  C   UNL     1      -9.239  15.153  68.599  1.00  0.00    -0.196 A  
HETATM   22  C   UNL     1      -8.630  15.648  67.444  1.00  0.00    -0.192 A  
HETATM   23  H   UNL     1      -8.732  18.244  65.465  1.00  0.00     0.000 HD 
HETATM   24  C   UNL     1     -10.044  17.607  67.545  1.00  0.00    -0.337 A  
HETATM   25  C   UNL     1      -9.036  16.876  66.930  1.00  0.00    -0.224 A  
HETATM   26  O   UNL     1      -8.455  17.405  65.815  1.00  0.00    -0.532 OA 
ENDBRANCH  18  19
ENDBRANCH  17  18
ENDBRANCH   2  17
TORSDOF 7
ENDMDL
MODEL       13
REMARK 921   NORMALIZED FREE ENERGY PREDICTED BY IDOCK:   -6.44 KCAL/MOL
REMARK 922        TOTAL FREE ENERGY PREDICTED BY IDOCK:  -10.23 KCAL/MOL
REMARK 923 INTER-LIGAND FREE ENERGY PREDICTED BY IDOCK:   -7.68 KCAL/MOL
REMARK 924 INTRA-LIGAND FREE ENERGY PREDICTED BY IDOCK:   -2.55 KCAL/MOL
REMARK 927      BINDING AFFINITY PREDICTED BY RF-SCORE:    0.00 PKD
ROOT
HETATM    1  C   UNL     1     -13.884  13.974  72.177  1.00  0.00    -0.627 C  
HETATM    2  C   UNL     1     -13.080  14.023  70.873  1.00  0.00    -0.228 C  
ENDROOT
BRANCH   2   3
HETATM    3  N   UNL     1     -11.940  13.093  70.888  1.00  0.00    -0.457 NA 
HETATM    4  H   UNL     1     -11.927  12.567  71.762  1.00  0.00     0.000 HD 
BRANCH   3   5
HETATM    5  C   UNL     1     -11.869  12.174  69.742  1.00  0.00    -0.327 C  
BRANCH   5   6
HETATM    6  C   UNL     1     -10.589  12.314  68.907  1.00  0.00    -0.170 C  
BRANCH   6   7
HETATM    7  C   UNL     1     -10.854  12.854  67.523  1.00  0.00    -0.256 A  
HETATM    8  C   UNL     1     -11.326  13.776  64.935  1.00  0.00    -0.347 A  
HETATM    9  C   UNL     1     -12.376  13.680  65.843  1.00  0.00    -0.471 A  
HETATM   10  O   UNL     1     -11.563  14.202  63.659  1.00  0.00    -0.557 OA 
HETATM   11  C   UNL     1     -10.034  13.435  65.304  1.00  0.00    -0.195 A  
HETATM   12  H   UNL     1     -13.778  14.346  64.526  1.00  0.00     0.000 HD 
HETATM   13  C   UNL     1     -12.151  13.225  67.139  1.00  0.00    -0.352 A  
HETATM   14  O   UNL     1     -13.624  14.035  65.411  1.00  0.00    -0.593 OA 
HETATM   15  C   UNL     1      -9.798  12.977  66.603  1.00  0.00    -0.252 A  
HETATM   16  H   UNL     1     -10.846  14.267  63.038  1.00  0.00     0.000 HD 
ENDBRANCH   6   7
ENDBRANCH   5   6
ENDBRANCH   3   5
ENDBRANCH   2   3
BRANCH   2  17
HETATM   17  C   UNL     1     -12.583  15.464  70.637  1.00  0.00    -0.491 C  
BRANCH  17  18
HETATM   18  C   UNL     1     -11.064  15.618  70.788  1.00  0.00    -0.382 C  
BRANCH  18  19
HETATM   19  C   UNL     1     -10.429  15.976  69.465  1.00  0.00    -0.286 A  
HETATM   20  C   UNL     1      -9.066  15.737  69.240  1.00  0.00    -0.263 A  
HETATM   21  C   UNL     1     -11.209  16.505  68.426  1.00  0.00    -0.280 A  
HETATM   22  C   UNL     1     -10.640  16.786  67.182  1.00  0.00    -0.256 A  
HETATM   23  H   UNL     1      -7.771  16.603  65.634  1.00  0.00     0.000 HD 
HETATM   24  C   UNL     1      -8.496  16.019  67.997  1.00  0.00    -0.164 A  
HETATM   25  C   UNL     1      -9.287  16.534  66.978  1.00  0.00    -0.230 A  
HETATM   26  O   UNL     1      -8.695  16.775  65.773  1.00  0.00    -0.496 OA 
ENDBRANCH  18  19
ENDBRANCH  17  18
ENDBRANCH   2  17
TORSDOF 7
ENDMDL
MODEL       14
REMARK 921   NORMALIZED FREE ENERGY PREDICTED BY IDOCK:   -6.40 KCAL/MOL
REMARK 922        TOTAL FREE ENERGY PREDICTED BY IDOCK:  -10.18 KCAL/MOL
REMARK 923 INTER-LIGAND FREE ENERGY PREDICTED BY IDOCK:   -9.23 KCAL/MOL
REMARK 924 INTRA-LIGAND FREE ENERGY PREDICTED BY IDOCK:   -0.95 KCAL/MOL
REMARK 927      BINDING AFFINITY PREDICTED BY RF-SCORE:    0.00 PKD
ROOT
HETATM    1  C   UNL     1     -12.208  15.739  71.795  1.00  0.00    -0.525 C  
HETATM    2  C   UNL     1     -11.785  15.320  70.383  1.00  0.00    -0.310 C  
ENDROOT
BRANCH   2   3
HETATM    3  N   UNL     1     -11.286  13.936  70.339  1.00  0.00    -0.495 NA 
HETATM    4  H   UNL     1     -11.270  13.539  71.278  1.00  0.00     0.000 HD 
BRANCH   3   5
HETATM    5  C   UNL     1     -12.009  13.041  69.423  1.00  0.00    -0.281 C  
BRANCH   5   6
HETATM    6  C   UNL     1     -11.114  12.360  68.379  1.00  0.00    -0.288 C  
BRANCH   6   7
HETATM    7  C   UNL     1     -11.517  12.691  66.963  1.00  0.00    -0.406 A  
HETATM    8  C   UNL     1     -12.210  13.371  64.349  1.00  0.00    -0.389 A  
HETATM    9  C   UNL     1     -11.481  12.211  64.599  1.00  0.00    -0.328 A  
HETATM   10  O   UNL     1     -12.525  13.717  63.066  1.00  0.00    -1.068 OA 
HETATM   11  C   UNL     1     -12.616  14.192  65.390  1.00  0.00    -0.485 A  
HETATM   12  H   UNL     1     -11.353  11.687  62.636  1.00  0.00     0.000 HD 
HETATM   13  C   UNL     1     -11.134  11.860  65.900  1.00  0.00    -0.365 A  
HETATM   14  O   UNL     1     -11.116  11.448  63.524  1.00  0.00    -0.399 OA 
HETATM   15  C   UNL     1     -12.271  13.848  66.700  1.00  0.00    -0.465 A  
HETATM   16  H   UNL     1     -13.022  14.509  62.896  1.00  0.00     0.000 HD 
ENDBRANCH   6   7
ENDBRANCH   5   6
ENDBRANCH   3   5
ENDBRANCH   2   3
BRANCH   2  17
HETATM   17  C   UNL     1     -10.700  16.288  69.870  1.00  0.00    -0.322 C  
BRANCH  17  18
HETATM   18  C   UNL     1     -10.919  16.740  68.421  1.00  0.00    -0.325 C  
BRANCH  18  19
HETATM   19  C   UNL     1     -10.014  17.901  68.080  1.00  0.00    -0.333 A  
HETATM   20  C   UNL     1     -10.500  18.993  67.347  1.00  0.00    -0.539 A  
HETATM   21  C   UNL     1      -8.688  17.923  68.538  1.00  0.00    -0.297 A  
HETATM   22  C   UNL     1      -7.863  19.018  68.275  1.00  0.00    -0.350 A  
HETATM   23  H   UNL     1      -7.948  21.929  66.796  1.00  0.00     0.000 HD 
HETATM   24  C   UNL     1      -9.675  20.088  67.082  1.00  0.00    -0.545 A  
HETATM   25  C   UNL     1      -8.368  20.095  67.552  1.00  0.00    -0.332 A  
HETATM   26  O   UNL     1      -7.603  21.193  67.289  1.00  0.00    -0.383 OA 
ENDBRANCH  18  19
ENDBRANCH  17  18
ENDBRANCH   2  17
TORSDOF 7
ENDMDL
MODEL       15
REMARK 921   NORMALIZED FREE ENERGY PREDICTED BY IDOCK:   -6.27 KCAL/MOL
REMARK 922        TOTAL FREE ENERGY PREDICTED BY IDOCK:  -10.00 KCAL/MOL
REMARK 923 INTER-LIGAND FREE ENERGY PREDICTED BY IDOCK:   -9.28 KCAL/MOL
REMARK 924 INTRA-LIGAND FREE ENERGY PREDICTED BY IDOCK:   -0.72 KCAL/MOL
REMARK 927      BINDING AFFINITY PREDICTED BY RF-SCORE:    0.00 PKD
ROOT
HETATM    1  C   UNL     1     -12.199  12.649  70.200  1.00  0.00    -0.310 C  
HETATM    2  C   UNL     1     -11.476  11.427  69.622  1.00  0.00    -0.309 C  
ENDROOT
BRANCH   2   3
HETATM    3  N   UNL     1     -12.124  10.926  68.400  1.00  0.00    -0.818 NA 
HETATM    4  H   UNL     1     -12.951  11.483  68.186  1.00  0.00     0.000 HD 
BRANCH   3   5
HETATM    5  C   UNL     1     -11.250  10.844  67.219  1.00  0.00    -0.233 C  
BRANCH   5   6
HETATM    6  C   UNL     1     -10.160  11.922  67.172  1.00  0.00    -0.222 C  
BRANCH   6   7
HETATM    7  C   UNL     1     -10.548  13.105  66.320  1.00  0.00    -0.292 A  
HETATM    8  C   UNL     1     -11.187  15.293  64.715  1.00  0.00    -0.396 A  
HETATM    9  C   UNL     1     -11.750  14.047  64.452  1.00  0.00    -0.397 A  
HETATM   10  O   UNL     1     -11.479  16.358  63.911  1.00  0.00    -1.569 OA 
HETATM   11  C   UNL     1     -10.320  15.470  65.782  1.00  0.00    -0.384 A  
HETATM   12  H   UNL     1     -12.809  14.696  62.839  1.00  0.00     0.000 HD 
HETATM   13  C   UNL     1     -11.441  12.949  65.249  1.00  0.00    -0.348 A  
HETATM   14  O   UNL     1     -12.599  13.947  63.383  1.00  0.00    -0.853 OA 
HETATM   15  C   UNL     1     -10.004  14.373  66.588  1.00  0.00    -0.278 A  
HETATM   16  H   UNL     1     -11.095  17.209  64.090  1.00  0.00     0.000 HD 
ENDBRANCH   6   7
ENDBRANCH   5   6
ENDBRANCH   3   5
ENDBRANCH   2   3
BRANCH   2  17
HETATM   17  C   UNL     1     -11.429  10.315  70.688  1.00  0.00    -0.435 C  
BRANCH  17  18
HETATM   18  C   UNL     1     -10.628   9.082  70.250  1.00  0.00    -0.250 C  
BRANCH  18  19
HETATM   19  C   UNL     1     -10.685   8.003  71.307  1.00  0.00    -0.265 A  
HETATM   20  C   UNL     1     -10.162   8.232  72.587  1.00  0.00    -0.368 A  
HETATM   21  C   UNL     1     -11.310   6.778  71.034  1.00  0.00    -0.356 A  
HETATM   22  C   UNL     1     -11.416   5.799  72.024  1.00  0.00    -0.260 A  
HETATM   23  H   UNL     1     -10.640   5.299  75.157  1.00  0.00     0.000 HD 
HETATM   24  C   UNL     1     -10.265   7.252  73.577  1.00  0.00    -0.404 A  
HETATM   25  C   UNL     1     -10.896   6.049  73.290  1.00  0.00    -0.252 A  
HETATM   26  O   UNL     1     -10.994   5.128  74.292  1.00  0.00    -0.283 OA 
ENDBRANCH  18  19
ENDBRANCH  17  18
ENDBRANCH   2  17
TORSDOF 7
ENDMDL
MODEL       16
REMARK 921   NORMALIZED FREE ENERGY PREDICTED BY IDOCK:   -6.27 KCAL/MOL
REMARK 922        TOTAL FREE ENERGY PREDICTED BY IDOCK:  -10.00 KCAL/MOL
REMARK 923 INTER-LIGAND FREE ENERGY PREDICTED BY IDOCK:   -9.09 KCAL/MOL
REMARK 924 INTRA-LIGAND FREE ENERGY PREDICTED BY IDOCK:   -0.90 KCAL/MOL
REMARK 927      BINDING AFFINITY PREDICTED BY RF-SCORE:    0.00 PKD
ROOT
HETATM    1  C   UNL     1     -10.467   9.193  66.913  1.00  0.00    -0.287 C  
HETATM    2  C   UNL     1     -10.683  10.267  67.984  1.00  0.00    -0.255 C  
ENDROOT
BRANCH   2   3
HETATM    3  N   UNL     1     -11.463   9.764  69.126  1.00  0.00    -0.465 NA 
HETATM    4  H   UNL     1     -11.183   8.809  69.350  1.00  0.00     0.000 HD 
BRANCH   3   5
HETATM    5  C   UNL     1     -11.413  10.603  70.334  1.00  0.00    -0.334 C  
BRANCH   5   6
HETATM    6  C   UNL     1     -12.779  11.143  70.776  1.00  0.00    -0.388 C  
BRANCH   6   7
HETATM    7  C   UNL     1     -12.731  12.602  71.160  1.00  0.00    -0.347 A  
HETATM    8  C   UNL     1     -12.591  15.277  71.934  1.00  0.00    -0.353 A  
HETATM    9  C   UNL     1     -12.009  14.865  70.738  1.00  0.00    -0.314 A  
HETATM   10  O   UNL     1     -12.498  16.582  72.325  1.00  0.00    -0.449 OA 
HETATM   11  C   UNL     1     -13.260  14.374  72.746  1.00  0.00    -0.611 A  
HETATM   12  H   UNL     1     -11.321  16.719  70.257  1.00  0.00     0.000 HD 
HETATM   13  C   UNL     1     -12.077  13.533  70.340  1.00  0.00    -0.415 A  
HETATM   14  O   UNL     1     -11.367  15.810  69.986  1.00  0.00    -0.293 OA 
HETATM   15  C   UNL     1     -13.333  13.034  72.355  1.00  0.00    -0.563 A  
HETATM   16  H   UNL     1     -12.894  16.863  73.142  1.00  0.00     0.000 HD 
ENDBRANCH   6   7
ENDBRANCH   5   6
ENDBRANCH   3   5
ENDBRANCH   2   3
BRANCH   2  17
HETATM   17  C   UNL     1     -11.396  11.479  67.351  1.00  0.00    -0.367 C  
BRANCH  17  18
HETATM   18  C   UNL     1     -11.212  11.571  65.831  1.00  0.00    -0.239 C  
BRANCH  18  19
HETATM   19  C   UNL     1     -11.203  13.013  65.380  1.00  0.00    -0.317 A  
HETATM   20  C   UNL     1     -12.273  13.534  64.638  1.00  0.00    -0.450 A  
HETATM   21  C   UNL     1     -10.147  13.861  65.742  1.00  0.00    -0.336 A  
HETATM   22  C   UNL     1     -10.160  15.209  65.376  1.00  0.00    -0.384 A  
HETATM   23  H   UNL     1     -12.032  17.362  63.787  1.00  0.00     0.000 HD 
HETATM   24  C   UNL     1     -12.286  14.881  64.270  1.00  0.00    -0.365 A  
HETATM   25  C   UNL     1     -11.235  15.707  64.647  1.00  0.00    -0.369 A  
HETATM   26  O   UNL     1     -11.298  17.021  64.285  1.00  0.00    -1.191 OA 
ENDBRANCH  18  19
ENDBRANCH  17  18
ENDBRANCH   2  17
TORSDOF 7
ENDMDL
MODEL       17
REMARK 921   NORMALIZED FREE ENERGY PREDICTED BY IDOCK:   -6.27 KCAL/MOL
REMARK 922        TOTAL FREE ENERGY PREDICTED BY IDOCK:   -9.99 KCAL/MOL
REMARK 923 INTER-LIGAND FREE ENERGY PREDICTED BY IDOCK:   -8.83 KCAL/MOL
REMARK 924 INTRA-LIGAND FREE ENERGY PREDICTED BY IDOCK:   -1.16 KCAL/MOL
REMARK 927      BINDING AFFINITY PREDICTED BY RF-SCORE:    0.00 PKD
ROOT
HETATM    1  C   UNL     1     -11.554  11.645  67.544  1.00  0.00    -0.345 C  
HETATM    2  C   UNL     1     -12.110  13.019  67.152  1.00  0.00    -0.264 C  
ENDROOT
BRANCH   2   3
HETATM    3  N   UNL     1     -11.350  13.632  66.050  1.00  0.00    -0.308 NA 
HETATM    4  H   UNL     1     -11.874  14.411  65.653  1.00  0.00     0.000 HD 
BRANCH   3   5
HETATM    5  C   UNL     1      -9.987  14.063  66.396  1.00  0.00    -0.294 C  
BRANCH   5   6
HETATM    6  C   UNL     1      -9.554  15.370  65.719  1.00  0.00    -0.368 C  
BRANCH   6   7
HETATM    7  C   UNL     1      -9.825  16.584  66.573  1.00  0.00    -0.292 A  
HETATM    8  C   UNL     1     -10.248  18.822  68.181  1.00  0.00    -0.381 A  
HETATM    9  C   UNL     1     -10.221  18.954  66.796  1.00  0.00    -0.394 A  
HETATM   10  O   UNL     1     -10.427  19.923  68.969  1.00  0.00    -0.604 OA 
HETATM   11  C   UNL     1     -10.084  17.583  68.780  1.00  0.00    -0.363 A  
HETATM   12  H   UNL     1     -10.532  20.965  66.828  1.00  0.00     0.000 HD 
HETATM   13  C   UNL     1     -10.015  17.842  65.984  1.00  0.00    -0.217 A  
HETATM   14  O   UNL     1     -10.391  20.207  66.274  1.00  0.00    -0.444 OA 
HETATM   15  C   UNL     1      -9.876  16.461  67.973  1.00  0.00    -0.238 A  
HETATM   16  H   UNL     1     -10.445  19.834  69.915  1.00  0.00     0.000 HD 
ENDBRANCH   6   7
ENDBRANCH   5   6
ENDBRANCH   3   5
ENDBRANCH   2   3
BRANCH   2  17
HETATM   17  C   UNL     1     -12.089  13.945  68.385  1.00  0.00    -0.327 C  
BRANCH  17  18
HETATM   18  C   UNL     1     -11.928  13.192  69.712  1.00  0.00    -0.382 C  
BRANCH  18  19
HETATM   19  C   UNL     1     -12.307  14.076  70.878  1.00  0.00    -0.443 A  
HETATM   20  C   UNL     1     -13.223  13.631  71.841  1.00  0.00    -0.497 A  
HETATM   21  C   UNL     1     -11.706  15.333  71.037  1.00  0.00    -0.394 A  
HETATM   22  C   UNL     1     -12.010  16.131  72.142  1.00  0.00    -0.623 A  
HETATM   23  H   UNL     1     -13.846  16.088  74.842  1.00  0.00     0.000 HD 
HETATM   24  C   UNL     1     -13.529  14.429  72.945  1.00  0.00    -0.516 A  
HETATM   25  C   UNL     1     -12.916  15.667  73.090  1.00  0.00    -0.535 A  
HETATM   26  O   UNL     1     -13.227  16.405  74.194  1.00  0.00    -0.599 OA 
ENDBRANCH  18  19
ENDBRANCH  17  18
ENDBRANCH   2  17
TORSDOF 7
ENDMDL
MODEL       18
REMARK 921   NORMALIZED FREE ENERGY PREDICTED BY IDOCK:   -6.25 KCAL/MOL
REMARK 922        TOTAL FREE ENERGY PREDICTED BY IDOCK:   -9.98 KCAL/MOL
REMARK 923 INTER-LIGAND FREE ENERGY PREDICTED BY IDOCK:   -8.40 KCAL/MOL
REMARK 924 INTRA-LIGAND FREE ENERGY PREDICTED BY IDOCK:   -1.57 KCAL/MOL
REMARK 927      BINDING AFFINITY PREDICTED BY RF-SCORE:    0.00 PKD
ROOT
HETATM    1  C   UNL     1      -8.735  15.624  69.214  1.00  0.00    -0.267 C  
HETATM    2  C   UNL     1      -9.614  16.692  68.553  1.00  0.00    -0.241 C  
ENDROOT
BRANCH   2   3
HETATM    3  N   UNL     1     -10.907  16.850  69.238  1.00  0.00    -0.325 NA 
HETATM    4  H   UNL     1     -11.672  16.635  68.598  1.00  0.00     0.000 HD 
BRANCH   3   5
HETATM    5  C   UNL     1     -11.054  16.077  70.480  1.00  0.00    -0.353 C  
BRANCH   5   6
HETATM    6  C   UNL     1     -12.431  15.422  70.650  1.00  0.00    -0.478 C  
BRANCH   6   7
HETATM    7  C   UNL     1     -12.396  13.929  70.435  1.00  0.00    -0.433 A  
HETATM    8  C   UNL     1     -12.246  11.172  70.045  1.00  0.00    -0.326 A  
HETATM    9  C   UNL     1     -12.858  11.684  71.187  1.00  0.00    -0.294 A  
HETATM   10  O   UNL     1     -12.149   9.822  69.869  1.00  0.00    -0.461 OA 
HETATM   11  C   UNL     1     -11.721  12.019  69.081  1.00  0.00    -0.389 A  
HETATM   12  H   UNL     1     -13.298   9.852  71.957  1.00  0.00     0.000 HD 
HETATM   13  C   UNL     1     -12.942  13.058  71.389  1.00  0.00    -0.373 A  
HETATM   14  O   UNL     1     -13.355  10.789  72.095  1.00  0.00    -0.442 OA 
HETATM   15  C   UNL     1     -11.800  13.400  69.276  1.00  0.00    -0.385 A  
HETATM   16  H   UNL     1     -11.731   9.472  69.090  1.00  0.00     0.000 HD 
ENDBRANCH   6   7
ENDBRANCH   5   6
ENDBRANCH   3   5
ENDBRANCH   2   3
BRANCH   2  17
HETATM   17  C   UNL     1      -9.842  16.318  67.075  1.00  0.00    -0.247 C  
BRANCH  17  18
HETATM   18  C   UNL     1      -9.268  14.946  66.696  1.00  0.00    -0.302 C  
BRANCH  18  19
HETATM   19  C   UNL     1     -10.222  14.198  65.794  1.00  0.00    -0.347 A  
HETATM   20  C   UNL     1     -10.282  12.798  65.825  1.00  0.00    -0.302 A  
HETATM   21  C   UNL     1     -11.095  14.900  64.951  1.00  0.00    -0.424 A  
HETATM   22  C   UNL     1     -12.018  14.217  64.156  1.00  0.00    -0.421 A  
HETATM   23  H   UNL     1     -12.999  11.172  63.499  1.00  0.00     0.000 HD 
HETATM   24  C   UNL     1     -11.203  12.114  65.029  1.00  0.00    -0.372 A  
HETATM   25  C   UNL     1     -12.067  12.827  64.208  1.00  0.00    -0.425 A  
HETATM   26  O   UNL     1     -12.965  12.121  63.463  1.00  0.00    -0.794 OA 
ENDBRANCH  18  19
ENDBRANCH  17  18
ENDBRANCH   2  17
TORSDOF 7
ENDMDL
MODEL       19
REMARK 921   NORMALIZED FREE ENERGY PREDICTED BY IDOCK:   -6.25 KCAL/MOL
REMARK 922        TOTAL FREE ENERGY PREDICTED BY IDOCK:   -9.97 KCAL/MOL
REMARK 923 INTER-LIGAND FREE ENERGY PREDICTED BY IDOCK:   -8.67 KCAL/MOL
REMARK 924 INTRA-LIGAND FREE ENERGY PREDICTED BY IDOCK:   -1.30 KCAL/MOL
REMARK 927      BINDING AFFINITY PREDICTED BY RF-SCORE:    0.00 PKD
ROOT
HETATM    1  C   UNL     1     -12.122  13.236  65.277  1.00  0.00    -0.456 C  
HETATM    2  C   UNL     1     -11.684  12.994  66.725  1.00  0.00    -0.382 C  
ENDROOT
BRANCH   2   3
HETATM    3  N   UNL     1     -12.141  11.690  67.233  1.00  0.00    -0.436 NA 
HETATM    4  H   UNL     1     -12.731  11.230  66.540  1.00  0.00     0.000 HD 
BRANCH   3   5
HETATM    5  C   UNL     1     -11.071  10.780  67.670  1.00  0.00    -0.319 C  
BRANCH   5   6
HETATM    6  C   UNL     1     -10.423  11.173  69.005  1.00  0.00    -0.233 C  
BRANCH   6   7
HETATM    7  C   UNL     1     -10.790  10.234  70.128  1.00  0.00    -0.362 A  
HETATM    8  C   UNL     1     -11.417   8.542  72.253  1.00  0.00    -0.375 A  
HETATM    9  C   UNL     1     -12.392   9.380  71.717  1.00  0.00    -0.394 A  
HETATM   10  O   UNL     1     -11.718   7.734  73.313  1.00  0.00    -0.659 OA 
HETATM   11  C   UNL     1     -10.133   8.522  71.732  1.00  0.00    -0.351 A  
HETATM   12  H   UNL     1     -13.843   8.769  73.006  1.00  0.00     0.000 HD 
HETATM   13  C   UNL     1     -12.090  10.224  70.653  1.00  0.00    -0.433 A  
HETATM   14  O   UNL     1     -13.638   9.345  72.280  1.00  0.00    -0.447 OA 
HETATM   15  C   UNL     1      -9.821   9.367  70.664  1.00  0.00    -0.340 A  
HETATM   16  H   UNL     1     -11.054   7.163  73.679  1.00  0.00     0.000 HD 
ENDBRANCH   6   7
ENDBRANCH   5   6
ENDBRANCH   3   5
ENDBRANCH   2   3
BRANCH   2  17
HETATM   17  C   UNL     1     -12.230  14.127  67.617  1.00  0.00    -0.231 C  
BRANCH  17  18
HETATM   18  C   UNL     1     -11.155  14.790  68.488  1.00  0.00    -0.275 C  
BRANCH  18  19
HETATM   19  C   UNL     1     -11.655  14.981  69.901  1.00  0.00    -0.328 A  
HETATM   20  C   UNL     1     -12.366  13.962  70.550  1.00  0.00    -0.439 A  
HETATM   21  C   UNL     1     -11.369  16.164  70.599  1.00  0.00    -0.394 A  
HETATM   22  C   UNL     1     -11.779  16.324  71.924  1.00  0.00    -0.518 A  
HETATM   23  H   UNL     1     -13.356  14.701  74.279  1.00  0.00     0.000 HD 
HETATM   24  C   UNL     1     -12.779  14.122  71.874  1.00  0.00    -0.406 A  
HETATM   25  C   UNL     1     -12.477  15.297  72.551  1.00  0.00    -0.363 A  
HETATM   26  O   UNL     1     -12.880  15.403  73.850  1.00  0.00    -0.530 OA 
ENDBRANCH  18  19
ENDBRANCH  17  18
ENDBRANCH   2  17
TORSDOF 7
ENDMDL
MODEL       20
REMARK 921   NORMALIZED FREE ENERGY PREDICTED BY IDOCK:   -6.24 KCAL/MOL
REMARK 922        TOTAL FREE ENERGY PREDICTED BY IDOCK:   -9.96 KCAL/MOL
REMARK 923 INTER-LIGAND FREE ENERGY PREDICTED BY IDOCK:   -8.75 KCAL/MOL
REMARK 924 INTRA-LIGAND FREE ENERGY PREDICTED BY IDOCK:   -1.21 KCAL/MOL
REMARK 927      BINDING AFFINITY PREDICTED BY RF-SCORE:    0.00 PKD
ROOT
HETATM    1  C   UNL     1     -12.117  12.612  63.789  1.00  0.00    -0.604 C  
HETATM    2  C   UNL     1     -11.569  13.000  65.167  1.00  0.00    -0.324 C  
ENDROOT
BRANCH   2   3
HETATM    3  N   UNL     1     -12.201  12.233  66.252  1.00  0.00    -0.557 NA 
HETATM    4  H   UNL     1     -12.800  11.504  65.865  1.00  0.00     0.000 HD 
BRANCH   3   5
HETATM    5  C   UNL     1     -11.269  11.655  67.233  1.00  0.00    -0.304 C  
BRANCH   5   6
HETATM    6  C   UNL     1     -10.724  12.666  68.250  1.00  0.00    -0.248 C  
BRANCH   6   7
HETATM    7  C   UNL     1     -11.671  12.901  69.401  1.00  0.00    -0.382 A  
HETATM    8  C   UNL     1     -13.357  13.321  71.581  1.00  0.00    -0.322 A  
HETATM    9  C   UNL     1     -13.034  14.378  70.735  1.00  0.00    -0.326 A  
HETATM   10  O   UNL     1     -14.161  13.533  72.665  1.00  0.00    -0.751 OA 
HETATM   11  C   UNL     1     -12.865  12.047  71.345  1.00  0.00    -0.391 A  
HETATM   12  H   UNL     1     -14.129  15.744  71.774  1.00  0.00     0.000 HD 
HETATM   13  C   UNL     1     -12.197  14.179  69.642  1.00  0.00    -0.376 A  
HETATM   14  O   UNL     1     -13.557  15.608  71.028  1.00  0.00    -0.588 OA 
HETATM   15  C   UNL     1     -12.023  11.837  70.250  1.00  0.00    -0.429 A  
HETATM   16  H   UNL     1     -14.382  12.812  73.242  1.00  0.00     0.000 HD 
ENDBRANCH   6   7
ENDBRANCH   5   6
ENDBRANCH   3   5
ENDBRANCH   2   3
BRANCH   2  17
HETATM   17  C   UNL     1     -11.786  14.510  65.392  1.00  0.00    -0.344 C  
BRANCH  17  18
HETATM   18  C   UNL     1     -10.548  15.359  65.076  1.00  0.00    -0.445 C  
BRANCH  18  19
HETATM   19  C   UNL     1     -10.442  16.526  66.031  1.00  0.00    -0.320 A  
HETATM   20  C   UNL     1     -10.661  17.836  65.583  1.00  0.00    -0.123 A  
HETATM   21  C   UNL     1     -10.173  16.305  67.390  1.00  0.00    -0.275 A  
HETATM   22  C   UNL     1     -10.129  17.373  68.288  1.00  0.00    -0.339 A  
HETATM   23  H   UNL     1     -10.499  20.617  68.353  1.00  0.00     0.000 HD 
HETATM   24  C   UNL     1     -10.615  18.905  66.480  1.00  0.00    -0.462 A  
HETATM   25  C   UNL     1     -10.357  18.665  67.824  1.00  0.00    -0.410 A  
HETATM   26  O   UNL     1     -10.343  19.735  68.670  1.00  0.00    -0.435 OA 
ENDBRANCH  18  19
ENDBRANCH  17  18
ENDBRANCH   2  17
TORSDOF 7
ENDMDL
MODEL       21
REMARK 921   NORMALIZED FREE ENERGY PREDICTED BY IDOCK:   -6.23 KCAL/MOL
REMARK 922        TOTAL FREE ENERGY PREDICTED BY IDOCK:   -9.94 KCAL/MOL
REMARK 923 INTER-LIGAND FREE ENERGY PREDICTED BY IDOCK:   -8.68 KCAL/MOL
REMARK 924 INTRA-LIGAND FREE ENERGY PREDICTED BY IDOCK:   -1.26 KCAL/MOL
REMARK 927      BINDING AFFINITY PREDICTED BY RF-SCORE:    0.00 PKD
ROOT
HETATM    1  C   UNL     1      -9.453  15.586  69.677  1.00  0.00    -0.244 C  
HETATM    2  C   UNL     1     -10.776  16.359  69.640  1.00  0.00    -0.337 C  
ENDROOT
BRANCH   2   3
HETATM    3  N   UNL     1     -11.580  16.142  70.853  1.00  0.00    -0.513 NA 
HETATM    4  H   UNL     1     -11.762  17.031  71.318  1.00  0.00     0.000 HD 
BRANCH   3   5
HETATM    5  C   UNL     1     -12.841  15.412  70.645  1.00  0.00    -0.430 C  
BRANCH   5   6
HETATM    6  C   UNL     1     -13.167  14.400  71.751  1.00  0.00    -0.435 C  
BRANCH   6   7
HETATM    7  C   UNL     1     -12.827  12.982  71.360  1.00  0.00    -0.385 A  
HETATM    8  C   UNL     1     -12.279  10.354  70.610  1.00  0.00    -0.347 A  
HETATM    9  C   UNL     1     -11.675  11.412  69.936  1.00  0.00    -0.346 A  
HETATM   10  O   UNL     1     -12.032   9.067  70.224  1.00  0.00    -0.469 OA 
HETATM   11  C   UNL     1     -13.143  10.587  71.669  1.00  0.00    -0.551 A  
HETATM   12  H   UNL     1     -10.653  10.210  68.651  1.00  0.00     0.000 HD 
HETATM   13  C   UNL     1     -11.938  12.728  70.306  1.00  0.00    -0.358 A  
HETATM   14  O   UNL     1     -10.832  11.108  68.903  1.00  0.00    -0.191 OA 
HETATM   15  C   UNL     1     -13.414  11.904  72.046  1.00  0.00    -0.336 A  
HETATM   16  H   UNL     1     -12.444   8.345  70.683  1.00  0.00     0.000 HD 
ENDBRANCH   6   7
ENDBRANCH   5   6
ENDBRANCH   3   5
ENDBRANCH   2   3
BRANCH   2  17
HETATM   17  C   UNL     1     -11.577  15.932  68.394  1.00  0.00    -0.317 C  
BRANCH  17  18
HETATM   18  C   UNL     1     -10.705  15.723  67.149  1.00  0.00    -0.312 C  
BRANCH  18  19
HETATM   19  C   UNL     1     -11.341  14.720  66.213  1.00  0.00    -0.334 A  
HETATM   20  C   UNL     1     -11.529  15.029  64.859  1.00  0.00    -0.399 A  
HETATM   21  C   UNL     1     -11.703  13.448  66.680  1.00  0.00    -0.428 A  
HETATM   22  C   UNL     1     -12.239  12.498  65.809  1.00  0.00    -0.361 A  
HETATM   23  H   UNL     1     -13.028  12.139  62.660  1.00  0.00     0.000 HD 
HETATM   24  C   UNL     1     -12.066  14.080  63.988  1.00  0.00    -0.413 A  
HETATM   25  C   UNL     1     -12.410  12.822  64.467  1.00  0.00    -0.445 A  
HETATM   26  O   UNL     1     -12.912  11.917  63.577  1.00  0.00    -0.724 OA 
ENDBRANCH  18  19
ENDBRANCH  17  18
ENDBRANCH   2  17
TORSDOF 7
ENDMDL
MODEL       22
REMARK 921   NORMALIZED FREE ENERGY PREDICTED BY IDOCK:   -6.23 KCAL/MOL
REMARK 922        TOTAL FREE ENERGY PREDICTED BY IDOCK:   -9.94 KCAL/MOL
REMARK 923 INTER-LIGAND FREE ENERGY PREDICTED BY IDOCK:   -8.83 KCAL/MOL
REMARK 924 INTRA-LIGAND FREE ENERGY PREDICTED BY IDOCK:   -1.11 KCAL/MOL
REMARK 927      BINDING AFFINITY PREDICTED BY RF-SCORE:    0.00 PKD
ROOT
HETATM    1  C   UNL     1      -8.959  10.895  66.166  1.00  0.00    -0.196 C  
HETATM    2  C   UNL     1      -9.975  10.322  67.160  1.00  0.00    -0.197 C  
ENDROOT
BRANCH   2   3
HETATM    3  N   UNL     1     -10.120   8.863  67.028  1.00  0.00    -0.236 NA 
HETATM    4  H   UNL     1      -9.383   8.490  66.429  1.00  0.00     0.000 HD 
BRANCH   3   5
HETATM    5  C   UNL     1     -10.162   8.123  68.299  1.00  0.00    -0.206 C  
BRANCH   5   6
HETATM    6  C   UNL     1      -9.905   8.992  69.537  1.00  0.00    -0.181 C  
BRANCH   6   7
HETATM    7  C   UNL     1     -11.083   9.023  70.480  1.00  0.00    -0.297 A  
HETATM    8  C   UNL     1     -13.208   9.059  72.284  1.00  0.00    -0.460 A  
HETATM    9  C   UNL     1     -12.755  10.247  71.716  1.00  0.00    -0.433 A  
HETATM   10  O   UNL     1     -14.231   9.081  73.189  1.00  0.00    -1.142 OA 
HETATM   11  C   UNL     1     -12.627   7.846  71.951  1.00  0.00    -0.348 A  
HETATM   12  H   UNL     1     -14.099  11.411  72.707  1.00  0.00     0.000 HD 
HETATM   13  C   UNL     1     -11.698  10.240  70.811  1.00  0.00    -0.453 A  
HETATM   14  O   UNL     1     -13.377  11.407  72.090  1.00  0.00    -0.469 OA 
HETATM   15  C   UNL     1     -11.565   7.829  71.044  1.00  0.00    -0.301 A  
HETATM   16  H   UNL     1     -14.540   8.271  73.577  1.00  0.00     0.000 HD 
ENDBRANCH   6   7
ENDBRANCH   5   6
ENDBRANCH   3   5
ENDBRANCH   2   3
BRANCH   2  17
HETATM   17  C   UNL     1     -11.339  11.008  66.943  1.00  0.00    -0.112 C  
BRANCH  17  18
HETATM   18  C   UNL     1     -11.476  12.343  67.686  1.00  0.00    -0.399 C  
BRANCH  18  19
HETATM   19  C   UNL     1     -11.525  13.496  66.711  1.00  0.00    -0.374 A  
HETATM   20  C   UNL     1     -10.794  14.667  66.953  1.00  0.00    -0.305 A  
HETATM   21  C   UNL     1     -12.265  13.387  65.524  1.00  0.00    -0.499 A  
HETATM   22  C   UNL     1     -12.270  14.427  64.592  1.00  0.00    -0.479 A  
HETATM   23  H   UNL     1     -10.986  17.394  64.132  1.00  0.00     0.000 HD 
HETATM   24  C   UNL     1     -10.799  15.707  66.023  1.00  0.00    -0.276 A  
HETATM   25  C   UNL     1     -11.530  15.577  64.849  1.00  0.00    -0.279 A  
HETATM   26  O   UNL     1     -11.491  16.608  63.957  1.00  0.00    -1.192 OA 
ENDBRANCH  18  19
ENDBRANCH  17  18
ENDBRANCH   2  17
TORSDOF 7
ENDMDL
MODEL       23
REMARK 921   NORMALIZED FREE ENERGY PREDICTED BY IDOCK:   -6.18 KCAL/MOL
REMARK 922        TOTAL FREE ENERGY PREDICTED BY IDOCK:   -9.87 KCAL/MOL
REMARK 923 INTER-LIGAND FREE ENERGY PREDICTED BY IDOCK:   -8.93 KCAL/MOL
REMARK 924 INTRA-LIGAND FREE ENERGY PREDICTED BY IDOCK:   -0.94 KCAL/MOL
REMARK 927      BINDING AFFINITY PREDICTED BY RF-SCORE:    0.00 PKD
ROOT
HETATM    1  C   UNL     1     -10.344  15.298  69.681  1.00  0.00    -0.271 C  
HETATM    2  C   UNL     1     -11.620  15.269  68.832  1.00  0.00    -0.347 C  
ENDROOT
BRANCH   2   3
HETATM    3  N   UNL     1     -12.615  14.320  69.357  1.00  0.00    -0.495 NA 
HETATM    4  H   UNL     1     -13.146  13.908  68.591  1.00  0.00     0.000 HD 
BRANCH   3   5
HETATM    5  C   UNL     1     -12.073  13.262  70.224  1.00  0.00    -0.335 C  
BRANCH   5   6
HETATM    6  C   UNL     1     -11.802  11.937  69.499  1.00  0.00    -0.395 C  
BRANCH   6   7
HETATM    7  C   UNL     1     -11.899  10.743  70.416  1.00  0.00    -0.450 A  
HETATM    8  C   UNL     1     -12.024   8.574  72.163  1.00  0.00    -0.383 A  
HETATM    9  C   UNL     1     -13.143   9.379  71.969  1.00  0.00    -0.433 A  
HETATM   10  O   UNL     1     -12.078   7.528  73.040  1.00  0.00    -0.524 OA 
HETATM   11  C   UNL     1     -10.843   8.824  71.482  1.00  0.00    -0.374 A  
HETATM   12  H   UNL     1     -14.309   8.333  73.269  1.00  0.00     0.000 HD 
HETATM   13  C   UNL     1     -13.093  10.462  71.096  1.00  0.00    -0.474 A  
HETATM   14  O   UNL     1     -14.275   9.072  72.673  1.00  0.00    -0.574 OA 
HETATM   15  C   UNL     1     -10.782   9.909  70.604  1.00  0.00    -0.372 A  
HETATM   16  H   UNL     1     -11.314   6.978  73.173  1.00  0.00     0.000 HD 
ENDBRANCH   6   7
ENDBRANCH   5   6
ENDBRANCH   3   5
ENDBRANCH   2   3
BRANCH   2  17
HETATM   17  C   UNL     1     -11.255  14.900  67.380  1.00  0.00    -0.343 C  
BRANCH  17  18
HETATM   18  C   UNL     1     -12.331  14.066  66.673  1.00  0.00    -0.408 C  
BRANCH  18  19
HETATM   19  C   UNL     1     -11.700  13.075  65.722  1.00  0.00    -0.427 A  
HETATM   20  C   UNL     1     -12.243  12.867  64.446  1.00  0.00    -0.484 A  
HETATM   21  C   UNL     1     -10.533  12.389  66.087  1.00  0.00    -0.274 A  
HETATM   22  C   UNL     1      -9.914  11.515  65.192  1.00  0.00    -0.304 A  
HETATM   23  H   UNL     1     -10.257  10.371  62.152  1.00  0.00     0.000 HD 
HETATM   24  C   UNL     1     -11.625  11.991  63.551  1.00  0.00    -0.553 A  
HETATM   25  C   UNL     1     -10.464  11.329  63.928  1.00  0.00    -0.391 A  
HETATM   26  O   UNL     1      -9.881  10.498  63.016  1.00  0.00    -0.315 OA 
ENDBRANCH  18  19
ENDBRANCH  17  18
ENDBRANCH   2  17
TORSDOF 7
ENDMDL
MODEL       24
REMARK 921   NORMALIZED FREE ENERGY PREDICTED BY IDOCK:   -6.15 KCAL/MOL
REMARK 922        TOTAL FREE ENERGY PREDICTED BY IDOCK:   -9.83 KCAL/MOL
REMARK 923 INTER-LIGAND FREE ENERGY PREDICTED BY IDOCK:   -8.09 KCAL/MOL
REMARK 924 INTRA-LIGAND FREE ENERGY PREDICTED BY IDOCK:   -1.74 KCAL/MOL
REMARK 927      BINDING AFFINITY PREDICTED BY RF-SCORE:    0.00 PKD
ROOT
HETATM    1  C   UNL     1     -10.957  10.564  69.952  1.00  0.00    -0.359 C  
HETATM    2  C   UNL     1     -11.996  11.409  69.207  1.00  0.00    -0.332 C  
ENDROOT
BRANCH   2   3
HETATM    3  N   UNL     1     -11.795  11.379  67.750  1.00  0.00    -0.630 NA 
HETATM    4  H   UNL     1     -12.122  12.250  67.332  1.00  0.00     0.000 HD 
BRANCH   3   5
HETATM    5  C   UNL     1     -10.418  11.095  67.315  1.00  0.00    -0.226 C  
BRANCH   5   6
HETATM    6  C   UNL     1     -10.211  11.180  65.797  1.00  0.00    -0.310 C  
BRANCH   6   7
HETATM    7  C   UNL     1     -10.641  12.509  65.226  1.00  0.00    -0.319 A  
HETATM    8  C   UNL     1     -11.505  14.961  64.217  1.00  0.00    -0.128 A  
HETATM    9  C   UNL     1     -10.382  14.901  65.038  1.00  0.00    -0.370 A  
HETATM   10  O   UNL     1     -11.943  16.165  63.747  1.00  0.00    -1.394 OA 
HETATM   11  C   UNL     1     -12.197  13.809  63.875  1.00  0.00    -0.402 A  
HETATM   12  H   UNL     1     -10.049  16.908  64.988  1.00  0.00     0.000 HD 
HETATM   13  C   UNL     1      -9.940  13.682  65.544  1.00  0.00    -0.244 A  
HETATM   14  O   UNL     1      -9.747  16.076  65.333  1.00  0.00    -0.427 OA 
HETATM   15  C   UNL     1     -11.760  12.581  64.378  1.00  0.00    -0.432 A  
HETATM   16  H   UNL     1     -12.710  16.207  63.187  1.00  0.00     0.000 HD 
ENDBRANCH   6   7
ENDBRANCH   5   6
ENDBRANCH   3   5
ENDBRANCH   2   3
BRANCH   2  17
HETATM   17  C   UNL     1     -11.931  12.862  69.719  1.00  0.00    -0.365 C  
BRANCH  17  18
HETATM   18  C   UNL     1     -12.159  13.907  68.620  1.00  0.00    -0.337 C  
BRANCH  18  19
HETATM   19  C   UNL     1     -11.120  15.002  68.700  1.00  0.00    -0.272 A  
HETATM   20  C   UNL     1      -9.807  14.712  69.095  1.00  0.00    -0.130 A  
HETATM   21  C   UNL     1     -11.447  16.315  68.331  1.00  0.00    -0.243 A  
HETATM   22  C   UNL     1     -10.478  17.320  68.349  1.00  0.00    -0.381 A  
HETATM   23  H   UNL     1      -7.309  17.743  69.014  1.00  0.00     0.000 HD 
HETATM   24  C   UNL     1      -8.838  15.717  69.115  1.00  0.00    -0.251 A  
HETATM   25  C   UNL     1      -9.179  17.009  68.736  1.00  0.00    -0.252 A  
HETATM   26  O   UNL     1      -8.197  17.956  68.750  1.00  0.00    -0.291 OA 
ENDBRANCH  18  19
ENDBRANCH  17  18
ENDBRANCH   2  17
TORSDOF 7
ENDMDL
MODEL       25
REMARK 921   NORMALIZED FREE ENERGY PREDICTED BY IDOCK:   -6.13 KCAL/MOL
REMARK 922        TOTAL FREE ENERGY PREDICTED BY IDOCK:   -9.81 KCAL/MOL
REMARK 923 INTER-LIGAND FREE ENERGY PREDICTED BY IDOCK:   -8.96 KCAL/MOL
REMARK 924 INTRA-LIGAND FREE ENERGY PREDICTED BY IDOCK:   -0.84 KCAL/MOL
REMARK 927      BINDING AFFINITY PREDICTED BY RF-SCORE:    0.00 PKD
ROOT
HETATM    1  C   UNL     1      -9.987  12.201  66.367  1.00  0.00    -0.243 C  
HETATM    2  C   UNL     1     -11.337  11.916  67.034  1.00  0.00    -0.329 C  
ENDROOT
BRANCH   2   3
HETATM    3  N   UNL     1     -11.975  13.140  67.544  1.00  0.00    -0.347 NA 
HETATM    4  H   UNL     1     -12.750  12.901  68.162  1.00  0.00     0.000 HD 
BRANCH   3   5
HETATM    5  C   UNL     1     -11.067  14.085  68.212  1.00  0.00    -0.254 C  
BRANCH   5   6
HETATM    6  C   UNL     1     -11.761  15.342  68.753  1.00  0.00    -0.374 C  
BRANCH   6   7
HETATM    7  C   UNL     1     -12.066  15.248  70.228  1.00  0.00    -0.388 A  
HETATM    8  C   UNL     1     -12.677  15.144  72.947  1.00  0.00    -0.421 A  
HETATM    9  C   UNL     1     -13.179  14.176  72.082  1.00  0.00    -0.420 A  
HETATM   10  O   UNL     1     -12.999  15.108  74.273  1.00  0.00    -0.554 OA 
HETATM   11  C   UNL     1     -11.856  16.158  72.478  1.00  0.00    -0.630 A  
HETATM   12  H   UNL     1     -14.186  13.176  73.541  1.00  0.00     0.000 HD 
HETATM   13  C   UNL     1     -12.877  14.216  70.724  1.00  0.00    -0.378 A  
HETATM   14  O   UNL     1     -13.980  13.203  72.614  1.00  0.00    -0.708 OA 
HETATM   15  C   UNL     1     -11.548  16.207  71.116  1.00  0.00    -0.453 A  
HETATM   16  H   UNL     1     -12.657  15.769  74.864  1.00  0.00     0.000 HD 
ENDBRANCH   6   7
ENDBRANCH   5   6
ENDBRANCH   3   5
ENDBRANCH   2   3
BRANCH   2  17
HETATM   17  C   UNL     1     -11.132  10.910  68.184  1.00  0.00    -0.337 C  
BRANCH  17  18
HETATM   18  C   UNL     1     -12.158  11.057  69.315  1.00  0.00    -0.363 C  
BRANCH  18  19
HETATM   19  C   UNL     1     -11.836  10.118  70.455  1.00  0.00    -0.373 A  
HETATM   20  C   UNL     1     -12.851   9.648  71.299  1.00  0.00    -0.438 A  
HETATM   21  C   UNL     1     -10.523   9.666  70.649  1.00  0.00    -0.379 A  
HETATM   22  C   UNL     1     -10.229   8.755  71.665  1.00  0.00    -0.394 A  
HETATM   23  H   UNL     1     -11.712   7.075  74.041  1.00  0.00     0.000 HD 
HETATM   24  C   UNL     1     -12.558   8.738  72.317  1.00  0.00    -0.460 A  
HETATM   25  C   UNL     1     -11.253   8.295  72.487  1.00  0.00    -0.376 A  
HETATM   26  O   UNL     1     -11.013   7.390  73.480  1.00  0.00    -0.344 OA 
ENDBRANCH  18  19
ENDBRANCH  17  18
ENDBRANCH   2  17
TORSDOF 7
ENDMDL
MODEL       26
REMARK 921   NORMALIZED FREE ENERGY PREDICTED BY IDOCK:   -6.12 KCAL/MOL
REMARK 922        TOTAL FREE ENERGY PREDICTED BY IDOCK:   -9.79 KCAL/MOL
REMARK 923 INTER-LIGAND FREE ENERGY PREDICTED BY IDOCK:   -8.32 KCAL/MOL
REMARK 924 INTRA-LIGAND FREE ENERGY PREDICTED BY IDOCK:   -1.47 KCAL/MOL
REMARK 927      BINDING AFFINITY PREDICTED BY RF-SCORE:    0.00 PKD
ROOT
HETATM    1  C   UNL     1      -9.912  19.346  66.686  1.00  0.00    -0.484 C  
HETATM    2  C   UNL     1     -10.205  17.922  67.169  1.00  0.00    -0.353 C  
ENDROOT
BRANCH   2   3
HETATM    3  N   UNL     1      -9.752  17.700  68.552  1.00  0.00    -0.313 NA 
HETATM    4  H   UNL     1     -10.064  18.464  69.151  1.00  0.00     0.000 HD 
BRANCH   3   5
HETATM    5  C   UNL     1     -10.139  16.407  69.136  1.00  0.00    -0.278 C  
BRANCH   5   6
HETATM    6  C   UNL     1     -11.574  15.976  68.806  1.00  0.00    -0.352 C  
BRANCH   6   7
HETATM    7  C   UNL     1     -12.183  15.109  69.880  1.00  0.00    -0.353 A  
HETATM    8  C   UNL     1     -13.230  13.486  71.891  1.00  0.00    -0.422 A  
HETATM    9  C   UNL     1     -13.374  14.869  71.965  1.00  0.00    -0.367 A  
HETATM   10  O   UNL     1     -13.718  12.693  72.890  1.00  0.00    -0.650 OA 
HETATM   11  C   UNL     1     -12.584  12.896  70.815  1.00  0.00    -0.314 A  
HETATM   12  H   UNL     1     -14.375  14.822  73.736  1.00  0.00     0.000 HD 
HETATM   13  C   UNL     1     -12.859  15.688  70.965  1.00  0.00    -0.521 A  
HETATM   14  O   UNL     1     -14.024  15.381  73.054  1.00  0.00    -0.399 OA 
HETATM   15  C   UNL     1     -12.063  13.710  69.807  1.00  0.00    -0.396 A  
HETATM   16  H   UNL     1     -13.620  11.750  72.840  1.00  0.00     0.000 HD 
ENDBRANCH   6   7
ENDBRANCH   5   6
ENDBRANCH   3   5
ENDBRANCH   2   3
BRANCH   2  17
HETATM   17  C   UNL     1      -9.523  16.914  66.222  1.00  0.00    -0.298 C  
BRANCH  17  18
HETATM   18  C   UNL     1     -10.495  16.236  65.249  1.00  0.00    -0.324 C  
BRANCH  18  19
HETATM   19  C   UNL     1     -10.799  14.824  65.694  1.00  0.00    -0.344 A  
HETATM   20  C   UNL     1      -9.802  14.030  66.278  1.00  0.00    -0.318 A  
HETATM   21  C   UNL     1     -12.098  14.309  65.573  1.00  0.00    -0.397 A  
HETATM   22  C   UNL     1     -12.399  13.025  66.034  1.00  0.00    -0.387 A  
HETATM   23  H   UNL     1     -10.966  10.482  67.498  1.00  0.00     0.000 HD 
HETATM   24  C   UNL     1     -10.102  12.746  66.737  1.00  0.00    -0.239 A  
HETATM   25  C   UNL     1     -11.396  12.257  66.618  1.00  0.00    -0.343 A  
HETATM   26  O   UNL     1     -11.651  11.006  67.099  1.00  0.00    -0.469 OA 
ENDBRANCH  18  19
ENDBRANCH  17  18
ENDBRANCH   2  17
TORSDOF 7
ENDMDL
MODEL       27
REMARK 921   NORMALIZED FREE ENERGY PREDICTED BY IDOCK:   -6.12 KCAL/MOL
REMARK 922        TOTAL FREE ENERGY PREDICTED BY IDOCK:   -9.78 KCAL/MOL
REMARK 923 INTER-LIGAND FREE ENERGY PREDICTED BY IDOCK:   -8.63 KCAL/MOL
REMARK 924 INTRA-LIGAND FREE ENERGY PREDICTED BY IDOCK:   -1.15 KCAL/MOL
REMARK 927      BINDING AFFINITY PREDICTED BY RF-SCORE:    0.00 PKD
ROOT
HETATM    1  C   UNL     1     -12.492  14.016  64.617  1.00  0.00    -0.366 C  
HETATM    2  C   UNL     1     -11.262  13.402  65.296  1.00  0.00    -0.289 C  
ENDROOT
BRANCH   2   3
HETATM    3  N   UNL     1     -11.607  12.697  66.540  1.00  0.00    -0.360 NA 
HETATM    4  H   UNL     1     -10.836  12.094  66.828  1.00  0.00     0.000 HD 
BRANCH   3   5
HETATM    5  C   UNL     1     -12.016  13.563  67.656  1.00  0.00    -0.336 C  
BRANCH   5   6
HETATM    6  C   UNL     1     -11.115  13.455  68.894  1.00  0.00    -0.307 C  
BRANCH   6   7
HETATM    7  C   UNL     1     -11.723  14.103  70.113  1.00  0.00    -0.350 A  
HETATM    8  C   UNL     1     -12.888  15.353  72.316  1.00  0.00    -0.380 A  
HETATM    9  C   UNL     1     -13.236  14.045  71.992  1.00  0.00    -0.412 A  
HETATM   10  O   UNL     1     -13.479  15.974  73.379  1.00  0.00    -0.687 OA 
HETATM   11  C   UNL     1     -11.950  16.045  71.566  1.00  0.00    -0.539 A  
HETATM   12  H   UNL     1     -14.561  13.856  73.525  1.00  0.00     0.000 HD 
HETATM   13  C   UNL     1     -12.657  13.410  70.897  1.00  0.00    -0.406 A  
HETATM   14  O   UNL     1     -14.166  13.422  72.778  1.00  0.00    -0.693 OA 
HETATM   15  C   UNL     1     -11.364  15.416  70.464  1.00  0.00    -0.351 A  
HETATM   16  H   UNL     1     -13.243  16.867  73.601  1.00  0.00     0.000 HD 
ENDBRANCH   6   7
ENDBRANCH   5   6
ENDBRANCH   3   5
ENDBRANCH   2   3
BRANCH   2  17
HETATM   17  C   UNL     1     -10.236  14.516  65.588  1.00  0.00    -0.379 C  
BRANCH  17  18
HETATM   18  C   UNL     1     -10.627  15.877  64.999  1.00  0.00    -0.372 C  
BRANCH  18  19
HETATM   19  C   UNL     1     -10.529  16.962  66.047  1.00  0.00    -0.297 A  
HETATM   20  C   UNL     1     -10.140  16.653  67.358  1.00  0.00    -0.274 A  
HETATM   21  C   UNL     1     -10.777  18.299  65.706  1.00  0.00    -0.129 A  
HETATM   22  C   UNL     1     -10.633  19.313  66.656  1.00  0.00    -0.530 A  
HETATM   23  H   UNL     1      -9.797  19.722  69.786  1.00  0.00     0.000 HD 
HETATM   24  C   UNL     1      -9.998  17.666  68.309  1.00  0.00    -0.339 A  
HETATM   25  C   UNL     1     -10.238  18.986  67.949  1.00  0.00    -0.401 A  
HETATM   26  O   UNL     1     -10.067  19.946  68.903  1.00  0.00    -0.435 OA 
ENDBRANCH  18  19
ENDBRANCH  17  18
ENDBRANCH   2  17
TORSDOF 7
ENDMDL
MODEL       28
REMARK 921   NORMALIZED FREE ENERGY PREDICTED BY IDOCK:   -6.12 KCAL/MOL
REMARK 922        TOTAL FREE ENERGY PREDICTED BY IDOCK:   -9.78 KCAL/MOL
REMARK 923 INTER-LIGAND FREE ENERGY PREDICTED BY IDOCK:   -8.98 KCAL/MOL
REMARK 924 INTRA-LIGAND FREE ENERGY PREDICTED BY IDOCK:   -0.80 KCAL/MOL
REMARK 927      BINDING AFFINITY PREDICTED BY RF-SCORE:    0.00 PKD
ROOT
HETATM    1  C   UNL     1     -13.256   9.850  71.291  1.00  0.00    -0.465 C  
HETATM    2  C   UNL     1     -12.089  10.549  70.584  1.00  0.00    -0.356 C  
ENDROOT
BRANCH   2   3
HETATM    3  N   UNL     1     -12.323  10.694  69.138  1.00  0.00    -0.755 NA 
HETATM    4  H   UNL     1     -13.308  10.540  68.924  1.00  0.00     0.000 HD 
BRANCH   3   5
HETATM    5  C   UNL     1     -11.872  11.968  68.558  1.00  0.00    -0.311 C  
BRANCH   5   6
HETATM    6  C   UNL     1     -11.091  11.816  67.246  1.00  0.00    -0.342 C  
BRANCH   6   7
HETATM    7  C   UNL     1     -11.274  12.994  66.320  1.00  0.00    -0.332 A  
HETATM    8  C   UNL     1     -11.530  15.171  64.597  1.00  0.00    -0.362 A  
HETATM    9  C   UNL     1     -12.048  13.930  64.235  1.00  0.00    -0.440 A  
HETATM   10  O   UNL     1     -11.631  16.229  63.740  1.00  0.00    -1.539 OA 
HETATM   11  C   UNL     1     -10.899  15.348  65.819  1.00  0.00    -0.349 A  
HETATM   12  H   UNL     1     -12.739  14.573  62.432  1.00  0.00     0.000 HD 
HETATM   13  C   UNL     1     -11.929  12.838  65.090  1.00  0.00    -0.466 A  
HETATM   14  O   UNL     1     -12.659  13.828  63.015  1.00  0.00    -0.721 OA 
HETATM   15  C   UNL     1     -10.775  14.257  66.683  1.00  0.00    -0.290 A  
HETATM   16  H   UNL     1     -11.277  17.076  63.986  1.00  0.00     0.000 HD 
ENDBRANCH   6   7
ENDBRANCH   5   6
ENDBRANCH   3   5
ENDBRANCH   2   3
BRANCH   2  17
HETATM   17  C   UNL     1     -10.794   9.749  70.831  1.00  0.00    -0.399 C  
BRANCH  17  18
HETATM   18  C   UNL     1     -11.016   8.233  70.902  1.00  0.00    -0.275 C  
BRANCH  18  19
HETATM   19  C   UNL     1     -10.656   7.578  69.588  1.00  0.00    -0.243 A  
HETATM   20  C   UNL     1      -9.836   8.238  68.663  1.00  0.00    -0.186 A  
HETATM   21  C   UNL     1     -11.099   6.278  69.301  1.00  0.00    -0.461 A  
HETATM   22  C   UNL     1     -10.723   5.646  68.115  1.00  0.00    -0.231 A  
HETATM   23  H   UNL     1      -8.934   6.186  65.437  1.00  0.00     0.000 HD 
HETATM   24  C   UNL     1      -9.462   7.607  67.475  1.00  0.00    -0.168 A  
HETATM   25  C   UNL     1      -9.902   6.316  67.214  1.00  0.00    -0.137 A  
HETATM   26  O   UNL     1      -9.496   5.728  66.052  1.00  0.00    -0.154 OA 
ENDBRANCH  18  19
ENDBRANCH  17  18
ENDBRANCH   2  17
TORSDOF 7
ENDMDL
MODEL       29
REMARK 921   NORMALIZED FREE ENERGY PREDICTED BY IDOCK:   -6.11 KCAL/MOL
REMARK 922        TOTAL FREE ENERGY PREDICTED BY IDOCK:   -9.78 KCAL/MOL
REMARK 923 INTER-LIGAND FREE ENERGY PREDICTED BY IDOCK:   -8.71 KCAL/MOL
REMARK 924 INTRA-LIGAND FREE ENERGY PREDICTED BY IDOCK:   -1.06 KCAL/MOL
REMARK 927      BINDING AFFINITY PREDICTED BY RF-SCORE:    0.00 PKD
ROOT
HETATM    1  C   UNL     1     -10.876   7.177  71.031  1.00  0.00    -0.262 C  
HETATM    2  C   UNL     1     -11.216   8.537  70.410  1.00  0.00    -0.211 C  
ENDROOT
BRANCH   2   3
HETATM    3  N   UNL     1     -10.178   8.996  69.473  1.00  0.00    -0.197 NA 
HETATM    4  H   UNL     1      -9.520   8.241  69.281  1.00  0.00     0.000 HD 
BRANCH   3   5
HETATM    5  C   UNL     1     -10.681   9.562  68.213  1.00  0.00    -0.194 C  
BRANCH   5   6
HETATM    6  C   UNL     1      -9.873  10.762  67.700  1.00  0.00    -0.193 C  
BRANCH   6   7
HETATM    7  C   UNL     1     -10.438  11.342  66.426  1.00  0.00    -0.306 A  
HETATM    8  C   UNL     1     -11.462  12.490  64.102  1.00  0.00    -0.385 A  
HETATM    9  C   UNL     1     -10.317  11.701  64.044  1.00  0.00    -0.357 A  
HETATM   10  O   UNL     1     -11.947  13.075  62.967  1.00  0.00    -0.827 OA 
HETATM   11  C   UNL     1     -12.118  12.703  65.304  1.00  0.00    -0.519 A  
HETATM   12  H   UNL     1     -10.076  11.930  62.036  1.00  0.00     0.000 HD 
HETATM   13  C   UNL     1      -9.800  11.119  65.197  1.00  0.00    -0.307 A  
HETATM   14  O   UNL     1      -9.723  11.533  62.823  1.00  0.00    -0.340 OA 
HETATM   15  C   UNL     1     -11.606  12.123  66.468  1.00  0.00    -0.425 A  
HETATM   16  H   UNL     1     -12.728  13.615  63.006  1.00  0.00     0.000 HD 
ENDBRANCH   6   7
ENDBRANCH   5   6
ENDBRANCH   3   5
ENDBRANCH   2   3
BRANCH   2  17
HETATM   17  C   UNL     1     -11.407   9.574  71.535  1.00  0.00    -0.456 C  
BRANCH  17  18
HETATM   18  C   UNL     1     -12.830  10.145  71.604  1.00  0.00    -0.559 C  
BRANCH  18  19
HETATM   19  C   UNL     1     -12.813  11.646  71.425  1.00  0.00    -0.461 A  
HETATM   20  C   UNL     1     -12.123  12.228  70.354  1.00  0.00    -0.385 A  
HETATM   21  C   UNL     1     -13.533  12.470  72.303  1.00  0.00    -0.490 A  
HETATM   22  C   UNL     1     -13.568  13.852  72.110  1.00  0.00    -0.599 A  
HETATM   23  H   UNL     1     -12.437  16.134  70.065  1.00  0.00     0.000 HD 
HETATM   24  C   UNL     1     -12.156  13.611  70.162  1.00  0.00    -0.431 A  
HETATM   25  C   UNL     1     -12.882  14.410  71.035  1.00  0.00    -0.353 A  
HETATM   26  O   UNL     1     -12.905  15.753  70.799  1.00  0.00    -0.457 OA 
ENDBRANCH  18  19
ENDBRANCH  17  18
ENDBRANCH   2  17
TORSDOF 7
ENDMDL
MODEL       30
REMARK 921   NORMALIZED FREE ENERGY PREDICTED BY IDOCK:   -6.10 KCAL/MOL
REMARK 922        TOTAL FREE ENERGY PREDICTED BY IDOCK:   -9.76 KCAL/MOL
REMARK 923 INTER-LIGAND FREE ENERGY PREDICTED BY IDOCK:   -8.59 KCAL/MOL
REMARK 924 INTRA-LIGAND FREE ENERGY PREDICTED BY IDOCK:   -1.18 KCAL/MOL
REMARK 927      BINDING AFFINITY PREDICTED BY RF-SCORE:    0.00 PKD
ROOT
HETATM    1  C   UNL     1     -10.740  19.381  67.395  1.00  0.00    -0.594 C  
HETATM    2  C   UNL     1      -9.970  18.524  68.406  1.00  0.00    -0.380 C  
ENDROOT
BRANCH   2   3
HETATM    3  N   UNL     1      -8.905  17.734  67.768  1.00  0.00    -0.245 NA 
HETATM    4  H   UNL     1      -8.534  17.048  68.426  1.00  0.00     0.000 HD 
BRANCH   3   5
HETATM    5  C   UNL     1      -9.286  17.074  66.510  1.00  0.00    -0.271 C  
BRANCH   5   6
HETATM    6  C   UNL     1      -8.945  15.579  66.460  1.00  0.00    -0.348 C  
BRANCH   6   7
HETATM    7  C   UNL     1     -10.115  14.729  66.030  1.00  0.00    -0.327 A  
HETATM    8  C   UNL     1     -12.237  13.140  65.166  1.00  0.00    -0.450 A  
HETATM    9  C   UNL     1     -11.490  12.762  66.279  1.00  0.00    -0.354 A  
HETATM   10  O   UNL     1     -13.258  12.346  64.727  1.00  0.00    -0.784 OA 
HETATM   11  C   UNL     1     -11.952  14.313  64.485  1.00  0.00    -0.478 A  
HETATM   12  H   UNL     1     -12.551  11.056  66.602  1.00  0.00     0.000 HD 
HETATM   13  C   UNL     1     -10.432  13.551  66.722  1.00  0.00    -0.273 A  
HETATM   14  O   UNL     1     -11.829  11.593  66.904  1.00  0.00    -0.577 OA 
HETATM   15  C   UNL     1     -10.891  15.110  64.921  1.00  0.00    -0.437 A  
HETATM   16  H   UNL     1     -13.767  12.603  63.967  1.00  0.00     0.000 HD 
ENDBRANCH   6   7
ENDBRANCH   5   6
ENDBRANCH   3   5
ENDBRANCH   2   3
BRANCH   2  17
HETATM   17  C   UNL     1     -10.957  17.589  69.133  1.00  0.00     0.433 C  
BRANCH  17  18
HETATM   18  C   UNL     1     -10.288  16.351  69.743  1.00  0.00    -0.197 C  
BRANCH  18  19
HETATM   19  C   UNL     1     -11.286  15.541  70.539  1.00  0.00    -0.372 A  
HETATM   20  C   UNL     1     -11.859  16.064  71.706  1.00  0.00    -0.599 A  
HETATM   21  C   UNL     1     -11.690  14.276  70.088  1.00  0.00    -0.357 A  
HETATM   22  C   UNL     1     -12.654  13.547  70.788  1.00  0.00    -0.382 A  
HETATM   23  H   UNL     1     -14.557  13.787  73.431  1.00  0.00     0.000 HD 
HETATM   24  C   UNL     1     -12.821  15.334  72.408  1.00  0.00    -0.452 A  
HETATM   25  C   UNL     1     -13.215  14.087  71.940  1.00  0.00    -0.395 A  
HETATM   26  O   UNL     1     -14.173  13.418  72.644  1.00  0.00    -0.747 OA 
ENDBRANCH  18  19
ENDBRANCH  17  18
ENDBRANCH   2  17
TORSDOF 7
ENDMDL
MODEL       31
REMARK 921   NORMALIZED FREE ENERGY PREDICTED BY IDOCK:   -6.09 KCAL/MOL
REMARK 922        TOTAL FREE ENERGY PREDICTED BY IDOCK:   -9.74 KCAL/MOL
REMARK 923 INTER-LIGAND FREE ENERGY PREDICTED BY IDOCK:   -8.59 KCAL/MOL
REMARK 924 INTRA-LIGAND FREE ENERGY PREDICTED BY IDOCK:   -1.15 KCAL/MOL
REMARK 927      BINDING AFFINITY PREDICTED BY RF-SCORE:    0.00 PKD
ROOT
HETATM    1  C   UNL     1     -12.324  12.724  65.204  1.00  0.00    -0.555 C  
HETATM    2  C   UNL     1     -11.646  12.722  66.579  1.00  0.00    -0.376 C  
ENDROOT
BRANCH   2   3
HETATM    3  N   UNL     1     -12.033  11.554  67.387  1.00  0.00    -0.597 NA 
HETATM    4  H   UNL     1     -12.829  11.079  66.961  1.00  0.00     0.000 HD 
BRANCH   3   5
HETATM    5  C   UNL     1     -10.952  10.592  67.651  1.00  0.00    -0.314 C  
BRANCH   5   6
HETATM    6  C   UNL     1     -10.382  10.666  69.074  1.00  0.00    -0.237 C  
BRANCH   6   7
HETATM    7  C   UNL     1     -10.856   9.533  69.950  1.00  0.00    -0.272 A  
HETATM    8  C   UNL     1     -11.811   7.464  71.556  1.00  0.00    -0.297 A  
HETATM    9  C   UNL     1     -11.210   7.177  70.333  1.00  0.00    -0.287 A  
HETATM   10  O   UNL     1     -12.303   6.451  72.329  1.00  0.00    -0.510 OA 
HETATM   11  C   UNL     1     -11.928   8.771  72.001  1.00  0.00    -0.446 A  
HETATM   12  H   UNL     1     -11.457   5.165  70.510  1.00  0.00     0.000 HD 
HETATM   13  C   UNL     1     -10.726   8.202  69.526  1.00  0.00    -0.180 A  
HETATM   14  O   UNL     1     -11.127   5.864  69.959  1.00  0.00    -0.359 OA 
HETATM   15  C   UNL     1     -11.445   9.807  71.197  1.00  0.00    -0.472 A  
HETATM   16  H   UNL     1     -12.714   6.646  73.164  1.00  0.00     0.000 HD 
ENDBRANCH   6   7
ENDBRANCH   5   6
ENDBRANCH   3   5
ENDBRANCH   2   3
BRANCH   2  17
HETATM   17  C   UNL     1     -12.008  14.022  67.324  1.00  0.00    -0.448 C  
BRANCH  17  18
HETATM   18  C   UNL     1     -10.911  14.500  68.285  1.00  0.00    -0.258 C  
BRANCH  18  19
HETATM   19  C   UNL     1     -11.449  14.624  69.692  1.00  0.00    -0.329 A  
HETATM   20  C   UNL     1     -11.204  15.777  70.450  1.00  0.00    -0.383 A  
HETATM   21  C   UNL     1     -12.245  13.605  70.236  1.00  0.00    -0.423 A  
HETATM   22  C   UNL     1     -12.792  13.738  71.514  1.00  0.00    -0.445 A  
HETATM   23  H   UNL     1     -12.902  15.863  73.992  1.00  0.00     0.000 HD 
HETATM   24  C   UNL     1     -11.748  15.909  71.729  1.00  0.00    -0.575 A  
HETATM   25  C   UNL     1     -12.542  14.894  72.247  1.00  0.00    -0.334 A  
HETATM   26  O   UNL     1     -13.072  15.073  73.491  1.00  0.00    -0.490 OA 
ENDBRANCH  18  19
ENDBRANCH  17  18
ENDBRANCH   2  17
TORSDOF 7
ENDMDL
MODEL       32
REMARK 921   NORMALIZED FREE ENERGY PREDICTED BY IDOCK:   -6.08 KCAL/MOL
REMARK 922        TOTAL FREE ENERGY PREDICTED BY IDOCK:   -9.73 KCAL/MOL
REMARK 923 INTER-LIGAND FREE ENERGY PREDICTED BY IDOCK:   -8.25 KCAL/MOL
REMARK 924 INTRA-LIGAND FREE ENERGY PREDICTED BY IDOCK:   -1.48 KCAL/MOL
REMARK 927      BINDING AFFINITY PREDICTED BY RF-SCORE:    0.00 PKD
ROOT
HETATM    1  C   UNL     1     -10.365  18.916  67.777  1.00  0.00    -0.490 C  
HETATM    2  C   UNL     1     -10.105  17.444  67.435  1.00  0.00    -0.321 C  
ENDROOT
BRANCH   2   3
HETATM    3  N   UNL     1     -10.309  17.162  66.005  1.00  0.00    -0.422 NA 
HETATM    4  H   UNL     1     -10.118  17.997  65.451  1.00  0.00     0.000 HD 
BRANCH   3   5
HETATM    5  C   UNL     1      -9.545  16.020  65.480  1.00  0.00    -0.075 C  
BRANCH   5   6
HETATM    6  C   UNL     1     -10.390  14.763  65.231  1.00  0.00    -0.425 C  
BRANCH   6   7
HETATM    7  C   UNL     1     -10.257  13.745  66.336  1.00  0.00    -0.292 A  
HETATM    8  C   UNL     1     -10.010  11.926  68.435  1.00  0.00    -0.203 A  
HETATM    9  C   UNL     1     -11.180  11.967  67.681  1.00  0.00    -0.282 A  
HETATM   10  O   UNL     1      -9.901  11.054  69.480  1.00  0.00    -0.432 OA 
HETATM   11  C   UNL     1      -8.949  12.770  68.145  1.00  0.00    -0.199 A  
HETATM   12  H   UNL     1     -12.095  10.490  68.740  1.00  0.00     0.000 HD 
HETATM   13  C   UNL     1     -11.312  12.868  66.629  1.00  0.00    -0.361 A  
HETATM   14  O   UNL     1     -12.185  11.104  68.022  1.00  0.00    -0.584 OA 
HETATM   15  C   UNL     1      -9.072  13.678  67.091  1.00  0.00    -0.241 A  
HETATM   16  H   UNL     1      -9.103  11.025  69.995  1.00  0.00     0.000 HD 
ENDBRANCH   6   7
ENDBRANCH   5   6
ENDBRANCH   3   5
ENDBRANCH   2   3
BRANCH   2  17
HETATM   17  C   UNL     1     -11.034  16.555  68.286  1.00  0.00    -0.346 C  
BRANCH  17  18
HETATM   18  C   UNL     1     -10.544  16.363  69.727  1.00  0.00    -0.288 C  
BRANCH  18  19
HETATM   19  C   UNL     1     -11.542  15.558  70.528  1.00  0.00    -0.371 A  
HETATM   20  C   UNL     1     -11.899  14.263  70.127  1.00  0.00    -0.379 A  
HETATM   21  C   UNL     1     -12.084  16.080  71.712  1.00  0.00    -0.570 A  
HETATM   22  C   UNL     1     -12.963  15.319  72.486  1.00  0.00    -0.488 A  
HETATM   23  H   UNL     1     -14.365  12.371  72.529  1.00  0.00     0.000 HD 
HETATM   24  C   UNL     1     -12.779  13.503  70.900  1.00  0.00    -0.366 A  
HETATM   25  C   UNL     1     -13.298  14.033  72.074  1.00  0.00    -0.427 A  
HETATM   26  O   UNL     1     -14.137  13.249  72.810  1.00  0.00    -0.691 OA 
ENDBRANCH  18  19
ENDBRANCH  17  18
ENDBRANCH   2  17
TORSDOF 7
ENDMDL
MODEL       33
REMARK 921   NORMALIZED FREE ENERGY PREDICTED BY IDOCK:   -6.05 KCAL/MOL
REMARK 922        TOTAL FREE ENERGY PREDICTED BY IDOCK:   -9.69 KCAL/MOL
REMARK 923 INTER-LIGAND FREE ENERGY PREDICTED BY IDOCK:   -7.27 KCAL/MOL
REMARK 924 INTRA-LIGAND FREE ENERGY PREDICTED BY IDOCK:   -2.42 KCAL/MOL
REMARK 927      BINDING AFFINITY PREDICTED BY RF-SCORE:    0.00 PKD
ROOT
HETATM    1  C   UNL     1      -8.003  10.157  67.361  1.00  0.00    -0.110 C  
HETATM    2  C   UNL     1      -8.084  11.281  68.400  1.00  0.00    -0.143 C  
ENDROOT
BRANCH   2   3
HETATM    3  N   UNL     1      -9.337  11.236  69.171  1.00  0.00    -0.407 NA 
HETATM    4  H   UNL     1      -9.428  12.076  69.743  1.00  0.00     0.000 HD 
BRANCH   3   5
HETATM    5  C   UNL     1     -10.555  11.033  68.372  1.00  0.00    -0.193 C  
BRANCH   5   6
HETATM    6  C   UNL     1     -11.460  12.270  68.287  1.00  0.00    -0.367 C  
BRANCH   6   7
HETATM    7  C   UNL     1     -11.737  12.690  66.864  1.00  0.00    -0.453 A  
HETATM    8  C   UNL     1     -12.194  13.531  64.245  1.00  0.00    -0.396 A  
HETATM    9  C   UNL     1     -11.557  12.317  64.487  1.00  0.00    -0.353 A  
HETATM   10  O   UNL     1     -12.392  13.954  62.962  1.00  0.00    -1.101 OA 
HETATM   11  C   UNL     1     -12.625  14.328  65.294  1.00  0.00    -0.405 A  
HETATM   12  H   UNL     1     -11.316  11.875  62.515  1.00  0.00     0.000 HD 
HETATM   13  C   UNL     1     -11.328  11.886  65.791  1.00  0.00    -0.354 A  
HETATM   14  O   UNL     1     -11.160  11.581  63.404  1.00  0.00    -0.391 OA 
HETATM   15  C   UNL     1     -12.399  13.904  66.606  1.00  0.00    -0.411 A  
HETATM   16  H   UNL     1     -12.826  14.783  62.797  1.00  0.00     0.000 HD 
ENDBRANCH   6   7
ENDBRANCH   5   6
ENDBRANCH   3   5
ENDBRANCH   2   3
BRANCH   2  17
HETATM   17  C   UNL     1      -7.953  12.642  67.687  1.00  0.00    -0.169 C  
BRANCH  17  18
HETATM   18  C   UNL     1      -8.244  13.841  68.599  1.00  0.00    -0.077 C  
BRANCH  18  19
HETATM   19  C   UNL     1      -8.909  14.954  67.823  1.00  0.00    -0.173 A  
HETATM   20  C   UNL     1      -8.828  14.995  66.425  1.00  0.00    -0.238 A  
HETATM   21  C   UNL     1      -9.659  15.932  68.493  1.00  0.00    -0.205 A  
HETATM   22  C   UNL     1     -10.323  16.931  67.777  1.00  0.00    -0.327 A  
HETATM   23  H   UNL     1     -10.825  17.907  64.702  1.00  0.00     0.000 HD 
HETATM   24  C   UNL     1      -9.490  15.995  65.709  1.00  0.00    -0.283 A  
HETATM   25  C   UNL     1     -10.236  16.949  66.389  1.00  0.00    -0.321 A  
HETATM   26  O   UNL     1     -10.884  17.895  65.650  1.00  0.00    -0.397 OA 
ENDBRANCH  18  19
ENDBRANCH  17  18
ENDBRANCH   2  17
TORSDOF 7
ENDMDL
MODEL       34
REMARK 921   NORMALIZED FREE ENERGY PREDICTED BY IDOCK:   -6.05 KCAL/MOL
REMARK 922        TOTAL FREE ENERGY PREDICTED BY IDOCK:   -9.68 KCAL/MOL
REMARK 923 INTER-LIGAND FREE ENERGY PREDICTED BY IDOCK:   -8.13 KCAL/MOL
REMARK 924 INTRA-LIGAND FREE ENERGY PREDICTED BY IDOCK:   -1.56 KCAL/MOL
REMARK 927      BINDING AFFINITY PREDICTED BY RF-SCORE:    0.00 PKD
ROOT
HETATM    1  C   UNL     1      -9.535   8.950  70.972  1.00  0.00    -0.318 C  
HETATM    2  C   UNL     1     -11.001   8.836  70.540  1.00  0.00    -0.239 C  
ENDROOT
BRANCH   2   3
HETATM    3  N   UNL     1     -11.219   9.342  69.176  1.00  0.00    -0.442 NA 
HETATM    4  H   UNL     1     -11.711  10.235  69.207  1.00  0.00     0.000 HD 
BRANCH   3   5
HETATM    5  C   UNL     1     -10.006   9.460  68.352  1.00  0.00    -0.170 C  
BRANCH   5   6
HETATM    6  C   UNL     1     -10.262   9.990  66.935  1.00  0.00    -0.299 C  
BRANCH   6   7
HETATM    7  C   UNL     1     -10.479  11.483  66.903  1.00  0.00    -0.270 A  
HETATM    8  C   UNL     1     -10.814  14.248  66.794  1.00  0.00    -0.298 A  
HETATM    9  C   UNL     1     -11.753  13.408  66.201  1.00  0.00    -0.368 A  
HETATM   10  O   UNL     1     -10.964  15.604  66.716  1.00  0.00    -0.310 OA 
HETATM   11  C   UNL     1      -9.715  13.728  67.459  1.00  0.00    -0.230 A  
HETATM   12  H   UNL     1     -12.919  14.934  65.528  1.00  0.00     0.000 HD 
HETATM   13  C   UNL     1     -11.598  12.026  66.254  1.00  0.00    -0.378 A  
HETATM   14  O   UNL     1     -12.813  13.991  65.564  1.00  0.00    -0.615 OA 
HETATM   15  C   UNL     1      -9.550  12.341  67.516  1.00  0.00    -0.184 A  
HETATM   16  H   UNL     1     -10.323  16.177  67.120  1.00  0.00     0.000 HD 
ENDBRANCH   6   7
ENDBRANCH   5   6
ENDBRANCH   3   5
ENDBRANCH   2   3
BRANCH   2  17
HETATM   17  C   UNL     1     -11.885   9.610  71.538  1.00  0.00    -0.483 C  
BRANCH  17  18
HETATM   18  C   UNL     1     -13.031  10.380  70.868  1.00  0.00    -0.475 C  
BRANCH  18  19
HETATM   19  C   UNL     1     -12.892  11.865  71.113  1.00  0.00    -0.346 A  
HETATM   20  C   UNL     1     -12.152  12.666  70.232  1.00  0.00    -0.372 A  
HETATM   21  C   UNL     1     -13.545  12.467  72.198  1.00  0.00    -0.458 A  
HETATM   22  C   UNL     1     -13.466  13.847  72.397  1.00  0.00    -0.661 A  
HETATM   23  H   UNL     1     -12.146  16.510  71.045  1.00  0.00     0.000 HD 
HETATM   24  C   UNL     1     -12.071  14.046  70.432  1.00  0.00    -0.426 A  
HETATM   25  C   UNL     1     -12.733  14.625  71.507  1.00  0.00    -0.338 A  
HETATM   26  O   UNL     1     -12.646  15.979  71.653  1.00  0.00    -0.448 OA 
ENDBRANCH  18  19
ENDBRANCH  17  18
ENDBRANCH   2  17
TORSDOF 7
ENDMDL
MODEL       35
REMARK 921   NORMALIZED FREE ENERGY PREDICTED BY IDOCK:   -6.04 KCAL/MOL
REMARK 922        TOTAL FREE ENERGY PREDICTED BY IDOCK:   -9.68 KCAL/MOL
REMARK 923 INTER-LIGAND FREE ENERGY PREDICTED BY IDOCK:   -8.37 KCAL/MOL
REMARK 924 INTRA-LIGAND FREE ENERGY PREDICTED BY IDOCK:   -1.31 KCAL/MOL
REMARK 927      BINDING AFFINITY PREDICTED BY RF-SCORE:    0.00 PKD
ROOT
HETATM    1  C   UNL     1      -8.925   8.305  66.941  1.00  0.00    -0.169 C  
HETATM    2  C   UNL     1      -9.500   9.709  67.162  1.00  0.00    -0.148 C  
ENDROOT
BRANCH   2   3
HETATM    3  N   UNL     1      -8.545  10.600  67.840  1.00  0.00    -0.123 NA 
HETATM    4  H   UNL     1      -7.657  10.120  67.984  1.00  0.00     0.000 HD 
BRANCH   3   5
HETATM    5  C   UNL     1      -8.320  11.894  67.176  1.00  0.00    -0.174 C  
BRANCH   5   6
HETATM    6  C   UNL     1      -9.260  13.011  67.648  1.00  0.00    -0.200 C  
BRANCH   6   7
HETATM    7  C   UNL     1     -10.190  13.486  66.559  1.00  0.00    -0.283 A  
HETATM    8  C   UNL     1     -11.845  14.356  64.491  1.00  0.00    -0.449 A  
HETATM    9  C   UNL     1     -12.095  13.139  65.120  1.00  0.00    -0.421 A  
HETATM   10  O   UNL     1     -12.640  14.767  63.459  1.00  0.00    -0.990 OA 
HETATM   11  C   UNL     1     -10.788  15.158  64.891  1.00  0.00    -0.437 A  
HETATM   12  H   UNL     1     -13.714  12.702  63.967  1.00  0.00     0.000 HD 
HETATM   13  C   UNL     1     -11.277  12.698  66.156  1.00  0.00    -0.350 A  
HETATM   14  O   UNL     1     -13.157  12.400  64.674  1.00  0.00    -0.825 OA 
HETATM   15  C   UNL     1      -9.961  14.723  65.930  1.00  0.00    -0.351 A  
HETATM   16  H   UNL     1     -12.469  15.598  63.029  1.00  0.00     0.000 HD 
ENDBRANCH   6   7
ENDBRANCH   5   6
ENDBRANCH   3   5
ENDBRANCH   2   3
BRANCH   2  17
HETATM   17  C   UNL     1     -10.798   9.600  67.988  1.00  0.00    -0.250 C  
BRANCH  17  18
HETATM   18  C   UNL     1     -10.555   9.542  69.502  1.00  0.00    -0.238 C  
BRANCH  18  19
HETATM   19  C   UNL     1     -11.484  10.487  70.229  1.00  0.00    -0.416 A  
HETATM   20  C   UNL     1     -12.247  10.041  71.317  1.00  0.00    -0.498 A  
HETATM   21  C   UNL     1     -11.555  11.837  69.854  1.00  0.00    -0.351 A  
HETATM   22  C   UNL     1     -12.369  12.727  70.557  1.00  0.00    -0.355 A  
HETATM   23  H   UNL     1     -14.412  12.789  73.104  1.00  0.00     0.000 HD 
HETATM   24  C   UNL     1     -13.063  10.930  72.019  1.00  0.00    -0.462 A  
HETATM   25  C   UNL     1     -13.112  12.265  71.639  1.00  0.00    -0.306 A  
HETATM   26  O   UNL     1     -13.905  13.105  72.365  1.00  0.00    -0.577 OA 
ENDBRANCH  18  19
ENDBRANCH  17  18
ENDBRANCH   2  17
TORSDOF 7
ENDMDL
MODEL       36
REMARK 921   NORMALIZED FREE ENERGY PREDICTED BY IDOCK:   -6.04 KCAL/MOL
REMARK 922        TOTAL FREE ENERGY PREDICTED BY IDOCK:   -9.67 KCAL/MOL
REMARK 923 INTER-LIGAND FREE ENERGY PREDICTED BY IDOCK:   -8.70 KCAL/MOL
REMARK 924 INTRA-LIGAND FREE ENERGY PREDICTED BY IDOCK:   -0.97 KCAL/MOL
REMARK 927      BINDING AFFINITY PREDICTED BY RF-SCORE:    0.00 PKD
ROOT
HETATM    1  C   UNL     1     -10.566  14.624  65.049  1.00  0.00    -0.461 C  
HETATM    2  C   UNL     1     -11.970  14.094  65.364  1.00  0.00    -0.381 C  
ENDROOT
BRANCH   2   3
HETATM    3  N   UNL     1     -12.441  14.523  66.690  1.00  0.00    -0.444 NA 
HETATM    4  H   UNL     1     -13.050  13.811  67.094  1.00  0.00     0.000 HD 
BRANCH   3   5
HETATM    5  C   UNL     1     -11.380  14.882  67.644  1.00  0.00    -0.337 C  
BRANCH   5   6
HETATM    6  C   UNL     1     -11.198  13.873  68.786  1.00  0.00    -0.302 C  
BRANCH   6   7
HETATM    7  C   UNL     1     -11.738  14.380  70.101  1.00  0.00    -0.361 A  
HETATM    8  C   UNL     1     -12.777  15.377  72.488  1.00  0.00    -0.389 A  
HETATM    9  C   UNL     1     -13.164  14.121  72.030  1.00  0.00    -0.402 A  
HETATM   10  O   UNL     1     -13.308  15.876  73.643  1.00  0.00    -0.710 OA 
HETATM   11  C   UNL     1     -11.862  16.141  71.780  1.00  0.00    -0.581 A  
HETATM   12  H   UNL     1     -14.421  13.769  73.591  1.00  0.00     0.000 HD 
HETATM   13  C   UNL     1     -12.648  13.612  70.842  1.00  0.00    -0.421 A  
HETATM   14  O   UNL     1     -14.069  13.422  72.780  1.00  0.00    -0.715 OA 
HETATM   15  C   UNL     1     -11.339  15.639  70.586  1.00  0.00    -0.392 A  
HETATM   16  H   UNL     1     -13.045  16.734  73.956  1.00  0.00     0.000 HD 
ENDBRANCH   6   7
ENDBRANCH   5   6
ENDBRANCH   3   5
ENDBRANCH   2   3
BRANCH   2  17
HETATM   17  C   UNL     1     -11.961  12.555  65.280  1.00  0.00    -0.490 C  
BRANCH  17  18
HETATM   18  C   UNL     1     -10.552  11.956  65.185  1.00  0.00    -0.333 C  
BRANCH  18  19
HETATM   19  C   UNL     1     -10.398  10.796  66.142  1.00  0.00    -0.300 A  
HETATM   20  C   UNL     1     -10.885  10.885  67.454  1.00  0.00    -0.333 A  
HETATM   21  C   UNL     1      -9.811   9.597  65.712  1.00  0.00    -0.373 A  
HETATM   22  C   UNL     1      -9.717   8.503  66.575  1.00  0.00    -0.330 A  
HETATM   23  H   UNL     1     -10.499   7.633  69.624  1.00  0.00     0.000 HD 
HETATM   24  C   UNL     1     -10.789   9.792  68.317  1.00  0.00    -0.256 A  
HETATM   25  C   UNL     1     -10.214   8.610  67.870  1.00  0.00    -0.219 A  
HETATM   26  O   UNL     1     -10.159   7.560  68.739  1.00  0.00    -0.175 OA 
ENDBRANCH  18  19
ENDBRANCH  17  18
ENDBRANCH   2  17
TORSDOF 7
ENDMDL
MODEL       37
REMARK 921   NORMALIZED FREE ENERGY PREDICTED BY IDOCK:   -6.03 KCAL/MOL
REMARK 922        TOTAL FREE ENERGY PREDICTED BY IDOCK:   -9.65 KCAL/MOL
REMARK 923 INTER-LIGAND FREE ENERGY PREDICTED BY IDOCK:   -8.89 KCAL/MOL
REMARK 924 INTRA-LIGAND FREE ENERGY PREDICTED BY IDOCK:   -0.77 KCAL/MOL
REMARK 927      BINDING AFFINITY PREDICTED BY RF-SCORE:    0.00 PKD
ROOT
HETATM    1  C   UNL     1     -11.489  10.516  69.016  1.00  0.00    -0.304 C  
HETATM    2  C   UNL     1     -12.232  11.343  70.071  1.00  0.00    -0.301 C  
ENDROOT
BRANCH   2   3
HETATM    3  N   UNL     1     -11.582  12.639  70.322  1.00  0.00    -0.538 NA 
HETATM    4  H   UNL     1     -10.570  12.520  70.371  1.00  0.00     0.000 HD 
BRANCH   3   5
HETATM    5  C   UNL     1     -11.921  13.704  69.366  1.00  0.00    -0.342 C  
BRANCH   5   6
HETATM    6  C   UNL     1     -10.791  14.047  68.386  1.00  0.00    -0.263 C  
BRANCH   6   7
HETATM    7  C   UNL     1     -11.256  14.076  66.950  1.00  0.00    -0.323 A  
HETATM    8  C   UNL     1     -12.035  14.114  64.274  1.00  0.00    -0.435 A  
HETATM    9  C   UNL     1     -12.464  13.088  65.110  1.00  0.00    -0.496 A  
HETATM   10  O   UNL     1     -12.394  14.117  62.956  1.00  0.00    -1.070 OA 
HETATM   11  C   UNL     1     -11.234  15.137  64.758  1.00  0.00    -0.396 A  
HETATM   12  H   UNL     1     -13.512  12.131  63.651  1.00  0.00     0.000 HD 
HETATM   13  C   UNL     1     -12.084  13.061  66.449  1.00  0.00    -0.428 A  
HETATM   14  O   UNL     1     -13.254  12.113  64.565  1.00  0.00    -0.724 OA 
HETATM   15  C   UNL     1     -10.848  15.119  66.100  1.00  0.00    -0.330 A  
HETATM   16  H   UNL     1     -12.101  14.818  62.384  1.00  0.00     0.000 HD 
ENDBRANCH   6   7
ENDBRANCH   5   6
ENDBRANCH   3   5
ENDBRANCH   2   3
BRANCH   2  17
HETATM   17  C   UNL     1     -12.319  10.534  71.380  1.00  0.00    -0.477 C  
BRANCH  17  18
HETATM   18  C   UNL     1     -13.039   9.188  71.220  1.00  0.00    -0.297 C  
BRANCH  18  19
HETATM   19  C   UNL     1     -12.126   8.045  71.600  1.00  0.00    -0.339 A  
HETATM   20  C   UNL     1     -11.916   6.977  70.717  1.00  0.00    -0.392 A  
HETATM   21  C   UNL     1     -11.437   8.066  72.822  1.00  0.00    -0.420 A  
HETATM   22  C   UNL     1     -10.549   7.041  73.154  1.00  0.00    -0.350 A  
HETATM   23  H   UNL     1      -9.341   4.267  71.924  1.00  0.00     0.000 HD 
HETATM   24  C   UNL     1     -11.030   5.950  71.049  1.00  0.00    -0.335 A  
HETATM   25  C   UNL     1     -10.350   5.994  72.259  1.00  0.00    -0.192 A  
HETATM   26  O   UNL     1      -9.477   4.982  72.535  1.00  0.00    -0.140 OA 
ENDBRANCH  18  19
ENDBRANCH  17  18
ENDBRANCH   2  17
TORSDOF 7
ENDMDL
MODEL       38
REMARK 921   NORMALIZED FREE ENERGY PREDICTED BY IDOCK:   -6.02 KCAL/MOL
REMARK 922        TOTAL FREE ENERGY PREDICTED BY IDOCK:   -9.65 KCAL/MOL
REMARK 923 INTER-LIGAND FREE ENERGY PREDICTED BY IDOCK:   -8.53 KCAL/MOL
REMARK 924 INTRA-LIGAND FREE ENERGY PREDICTED BY IDOCK:   -1.12 KCAL/MOL
REMARK 927      BINDING AFFINITY PREDICTED BY RF-SCORE:    0.00 PKD
ROOT
HETATM    1  C   UNL     1     -11.415  14.864  64.719  1.00  0.00    -0.410 C  
HETATM    2  C   UNL     1     -12.600  14.095  65.313  1.00  0.00    -0.442 C  
ENDROOT
BRANCH   2   3
HETATM    3  N   UNL     1     -12.600  14.123  66.784  1.00  0.00    -0.503 NA 
HETATM    4  H   UNL     1     -12.993  13.256  67.152  1.00  0.00     0.000 HD 
BRANCH   3   5
HETATM    5  C   UNL     1     -11.293  14.390  67.403  1.00  0.00    -0.337 C  
BRANCH   5   6
HETATM    6  C   UNL     1     -11.375  14.833  68.870  1.00  0.00    -0.302 C  
BRANCH   6   7
HETATM    7  C   UNL     1     -11.924  13.756  69.773  1.00  0.00    -0.406 A  
HETATM    8  C   UNL     1     -12.860  11.751  71.469  1.00  0.00    -0.345 A  
HETATM    9  C   UNL     1     -13.195  13.081  71.709  1.00  0.00    -0.392 A  
HETATM   10  O   UNL     1     -13.296  10.773  72.316  1.00  0.00    -0.623 OA 
HETATM   11  C   UNL     1     -12.076  11.402  70.381  1.00  0.00    -0.473 A  
HETATM   12  H   UNL     1     -14.287  12.664  73.376  1.00  0.00     0.000 HD 
HETATM   13  C   UNL     1     -12.737  14.089  70.866  1.00  0.00    -0.420 A  
HETATM   14  O   UNL     1     -13.974  13.352  72.801  1.00  0.00    -0.724 OA 
HETATM   15  C   UNL     1     -11.611  12.407  69.529  1.00  0.00    -0.353 A  
HETATM   16  H   UNL     1     -13.067   9.865  72.153  1.00  0.00     0.000 HD 
ENDBRANCH   6   7
ENDBRANCH   5   6
ENDBRANCH   3   5
ENDBRANCH   2   3
BRANCH   2  17
HETATM   17  C   UNL     1     -12.560  12.636  64.813  1.00  0.00    -0.530 C  
BRANCH  17  18
HETATM   18  C   UNL     1     -11.282  12.291  64.037  1.00  0.00    -0.456 C  
BRANCH  18  19
HETATM   19  C   UNL     1     -10.506  11.203  64.743  1.00  0.00    -0.388 A  
HETATM   20  C   UNL     1      -9.657  10.352  64.022  1.00  0.00    -0.376 A  
HETATM   21  C   UNL     1     -10.588  11.066  66.136  1.00  0.00    -0.288 A  
HETATM   22  C   UNL     1      -9.830  10.099  66.800  1.00  0.00    -0.247 A  
HETATM   23  H   UNL     1      -7.640   7.758  66.176  1.00  0.00     0.000 HD 
HETATM   24  C   UNL     1      -8.901   9.383  64.685  1.00  0.00    -0.238 A  
HETATM   25  C   UNL     1      -8.988   9.269  66.067  1.00  0.00    -0.176 A  
HETATM   26  O   UNL     1      -8.216   8.324  66.677  1.00  0.00    -0.103 OA 
ENDBRANCH  18  19
ENDBRANCH  17  18
ENDBRANCH   2  17
TORSDOF 7
ENDMDL
MODEL       39
REMARK 921   NORMALIZED FREE ENERGY PREDICTED BY IDOCK:   -6.01 KCAL/MOL
REMARK 922        TOTAL FREE ENERGY PREDICTED BY IDOCK:   -9.64 KCAL/MOL
REMARK 923 INTER-LIGAND FREE ENERGY PREDICTED BY IDOCK:   -9.17 KCAL/MOL
REMARK 924 INTRA-LIGAND FREE ENERGY PREDICTED BY IDOCK:   -0.46 KCAL/MOL
REMARK 927      BINDING AFFINITY PREDICTED BY RF-SCORE:    0.00 PKD
ROOT
HETATM    1  C   UNL     1     -13.629  15.107  71.105  1.00  0.00    -0.525 C  
HETATM    2  C   UNL     1     -12.405  14.280  71.516  1.00  0.00    -0.339 C  
ENDROOT
BRANCH   2   3
HETATM    3  N   UNL     1     -11.147  14.874  71.038  1.00  0.00    -0.544 NA 
HETATM    4  H   UNL     1     -10.546  14.153  70.639  1.00  0.00     0.000 HD 
BRANCH   3   5
HETATM    5  C   UNL     1     -11.303  15.986  70.087  1.00  0.00    -0.365 C  
BRANCH   5   6
HETATM    6  C   UNL     1     -10.001  16.396  69.385  1.00  0.00    -0.214 C  
BRANCH   6   7
HETATM    7  C   UNL     1     -10.228  17.390  68.273  1.00  0.00    -0.362 A  
HETATM    8  C   UNL     1     -10.566  19.245  66.220  1.00  0.00    -0.454 A  
HETATM    9  C   UNL     1     -10.729  17.886  65.966  1.00  0.00    -0.127 A  
HETATM   10  O   UNL     1     -10.704  20.151  65.207  1.00  0.00    -0.283 OA 
HETATM   11  C   UNL     1     -10.252  19.697  67.492  1.00  0.00    -0.562 A  
HETATM   12  H   UNL     1     -11.150  18.150  63.992  1.00  0.00     0.000 HD 
HETATM   13  C   UNL     1     -10.567  16.952  66.985  1.00  0.00    -0.230 A  
HETATM   14  O   UNL     1     -11.040  17.513  64.687  1.00  0.00    -0.978 OA 
HETATM   15  C   UNL     1     -10.087  18.767  68.522  1.00  0.00    -0.444 A  
HETATM   16  H   UNL     1     -10.592  21.079  65.380  1.00  0.00     0.000 HD 
ENDBRANCH   6   7
ENDBRANCH   5   6
ENDBRANCH   3   5
ENDBRANCH   2   3
BRANCH   2  17
HETATM   17  C   UNL     1     -12.554  12.847  70.966  1.00  0.00    -0.376 C  
BRANCH  17  18
HETATM   18  C   UNL     1     -13.256  11.890  71.938  1.00  0.00    -0.467 C  
BRANCH  18  19
HETATM   19  C   UNL     1     -12.840  10.461  71.675  1.00  0.00    -0.579 A  
HETATM   20  C   UNL     1     -13.649   9.395  72.091  1.00  0.00    -0.528 A  
HETATM   21  C   UNL     1     -11.661  10.187  70.966  1.00  0.00    -0.470 A  
HETATM   22  C   UNL     1     -11.300   8.871  70.670  1.00  0.00    -0.299 A  
HETATM   23  H   UNL     1     -12.378   5.816  71.084  1.00  0.00     0.000 HD 
HETATM   24  C   UNL     1     -13.287   8.079  71.798  1.00  0.00    -0.370 A  
HETATM   25  C   UNL     1     -12.122   7.828  71.085  1.00  0.00    -0.286 A  
HETATM   26  O   UNL     1     -11.816   6.529  70.801  1.00  0.00    -0.373 OA 
ENDBRANCH  18  19
ENDBRANCH  17  18
ENDBRANCH   2  17
TORSDOF 7
ENDMDL
MODEL       40
REMARK 921   NORMALIZED FREE ENERGY PREDICTED BY IDOCK:   -6.01 KCAL/MOL
REMARK 922        TOTAL FREE ENERGY PREDICTED BY IDOCK:   -9.63 KCAL/MOL
REMARK 923 INTER-LIGAND FREE ENERGY PREDICTED BY IDOCK:   -9.12 KCAL/MOL
REMARK 924 INTRA-LIGAND FREE ENERGY PREDICTED BY IDOCK:   -0.51 KCAL/MOL
REMARK 927      BINDING AFFINITY PREDICTED BY RF-SCORE:    0.00 PKD
ROOT
HETATM    1  C   UNL     1     -10.399   9.351  66.851  1.00  0.00    -0.308 C  
HETATM    2  C   UNL     1     -10.478  10.217  68.114  1.00  0.00    -0.206 C  
ENDROOT
BRANCH   2   3
HETATM    3  N   UNL     1     -11.867  10.508  68.502  1.00  0.00    -0.745 NA 
HETATM    4  H   UNL     1     -12.392   9.640  68.607  1.00  0.00     0.000 HD 
BRANCH   3   5
HETATM    5  C   UNL     1     -12.018  11.340  69.706  1.00  0.00    -0.360 C  
BRANCH   5   6
HETATM    6  C   UNL     1     -11.861  12.844  69.451  1.00  0.00    -0.371 C  
BRANCH   6   7
HETATM    7  C   UNL     1     -12.286  13.682  70.631  1.00  0.00    -0.440 A  
HETATM    8  C   UNL     1     -13.037  15.173  72.864  1.00  0.00    -0.479 A  
HETATM    9  C   UNL     1     -12.094  15.678  71.973  1.00  0.00    -0.443 A  
HETATM   10  O   UNL     1     -13.383  15.893  73.972  1.00  0.00    -0.809 OA 
HETATM   11  C   UNL     1     -13.628  13.938  72.649  1.00  0.00    -0.626 A  
HETATM   12  H   UNL     1     -11.812  17.405  73.012  1.00  0.00     0.000 HD 
HETATM   13  C   UNL     1     -11.715  14.944  70.853  1.00  0.00    -0.374 A  
HETATM   14  O   UNL     1     -11.553  16.905  72.248  1.00  0.00    -0.222 OA 
HETATM   15  C   UNL     1     -13.254  13.193  71.527  1.00  0.00    -0.368 A  
HETATM   16  H   UNL     1     -14.026  15.549  74.581  1.00  0.00     0.000 HD 
ENDBRANCH   6   7
ENDBRANCH   5   6
ENDBRANCH   3   5
ENDBRANCH   2   3
BRANCH   2  17
HETATM   17  C   UNL     1      -9.710  11.533  67.876  1.00  0.00    -0.187 C  
BRANCH  17  18
HETATM   18  C   UNL     1      -9.348  11.771  66.404  1.00  0.00    -0.229 C  
BRANCH  18  19
HETATM   19  C   UNL     1     -10.300  12.760  65.772  1.00  0.00    -0.297 A  
HETATM   20  C   UNL     1     -10.276  14.111  66.144  1.00  0.00    -0.313 A  
HETATM   21  C   UNL     1     -11.186  12.345  64.767  1.00  0.00    -0.353 A  
HETATM   22  C   UNL     1     -12.029  13.264  64.140  1.00  0.00    -0.505 A  
HETATM   23  H   UNL     1     -12.744  16.450  64.178  1.00  0.00     0.000 HD 
HETATM   24  C   UNL     1     -11.120  15.030  65.519  1.00  0.00    -0.358 A  
HETATM   25  C   UNL     1     -11.983  14.602  64.519  1.00  0.00    -0.460 A  
HETATM   26  O   UNL     1     -12.776  15.537  63.919  1.00  0.00    -0.665 OA 
ENDBRANCH  18  19
ENDBRANCH  17  18
ENDBRANCH   2  17
TORSDOF 7
ENDMDL
MODEL       41
REMARK 921   NORMALIZED FREE ENERGY PREDICTED BY IDOCK:   -6.00 KCAL/MOL
REMARK 922        TOTAL FREE ENERGY PREDICTED BY IDOCK:   -9.61 KCAL/MOL
REMARK 923 INTER-LIGAND FREE ENERGY PREDICTED BY IDOCK:   -8.41 KCAL/MOL
REMARK 924 INTRA-LIGAND FREE ENERGY PREDICTED BY IDOCK:   -1.20 KCAL/MOL
REMARK 927      BINDING AFFINITY PREDICTED BY RF-SCORE:    0.00 PKD
ROOT
HETATM    1  C   UNL     1      -9.715  15.357  69.052  1.00  0.00    -0.239 C  
HETATM    2  C   UNL     1     -11.002  15.877  68.402  1.00  0.00    -0.331 C  
ENDROOT
BRANCH   2   3
HETATM    3  N   UNL     1     -12.202  15.502  69.166  1.00  0.00    -0.598 NA 
HETATM    4  H   UNL     1     -12.727  14.784  68.666  1.00  0.00     0.000 HD 
BRANCH   3   5
HETATM    5  C   UNL     1     -11.952  15.074  70.551  1.00  0.00    -0.308 C  
BRANCH   5   6
HETATM    6  C   UNL     1     -13.068  14.207  71.149  1.00  0.00    -0.398 C  
BRANCH   6   7
HETATM    7  C   UNL     1     -12.765  12.731  71.067  1.00  0.00    -0.331 A  
HETATM    8  C   UNL     1     -12.286   9.990  70.897  1.00  0.00    -0.341 A  
HETATM    9  C   UNL     1     -11.725  10.855  69.963  1.00  0.00    -0.345 A  
HETATM   10  O   UNL     1     -12.074   8.644  70.796  1.00  0.00    -0.457 OA 
HETATM   11  C   UNL     1     -13.073  10.474  71.931  1.00  0.00    -0.567 A  
HETATM   12  H   UNL     1     -10.802   9.373  68.917  1.00  0.00     0.000 HD 
HETATM   13  C   UNL     1     -11.954  12.226  70.041  1.00  0.00    -0.379 A  
HETATM   14  O   UNL     1     -10.958  10.308  68.971  1.00  0.00    -0.212 OA 
HETATM   15  C   UNL     1     -13.309  11.848  72.017  1.00  0.00    -0.425 A  
HETATM   16  H   UNL     1     -12.457   8.053  71.434  1.00  0.00     0.000 HD 
ENDBRANCH   6   7
ENDBRANCH   5   6
ENDBRANCH   3   5
ENDBRANCH   2   3
BRANCH   2  17
HETATM   17  C   UNL     1     -11.100  15.330  66.964  1.00  0.00    -0.305 C  
BRANCH  17  18
HETATM   18  C   UNL     1     -12.076  14.155  66.823  1.00  0.00    -0.474 C  
BRANCH  18  19
HETATM   19  C   UNL     1     -11.552  13.141  65.832  1.00  0.00    -0.391 A  
HETATM   20  C   UNL     1     -12.219  12.918  64.619  1.00  0.00    -0.494 A  
HETATM   21  C   UNL     1     -10.361  12.448  66.092  1.00  0.00    -0.271 A  
HETATM   22  C   UNL     1      -9.841  11.551  65.156  1.00  0.00    -0.294 A  
HETATM   23  H   UNL     1     -10.493  10.362  62.186  1.00  0.00     0.000 HD 
HETATM   24  C   UNL     1     -11.701  12.021  63.684  1.00  0.00    -0.587 A  
HETATM   25  C   UNL     1     -10.515  11.351  63.956  1.00  0.00    -0.378 A  
HETATM   26  O   UNL     1     -10.033  10.499  63.006  1.00  0.00    -0.285 OA 
ENDBRANCH  18  19
ENDBRANCH  17  18
ENDBRANCH   2  17
TORSDOF 7
ENDMDL
MODEL       42
REMARK 921   NORMALIZED FREE ENERGY PREDICTED BY IDOCK:   -5.99 KCAL/MOL
REMARK 922        TOTAL FREE ENERGY PREDICTED BY IDOCK:   -9.60 KCAL/MOL
REMARK 923 INTER-LIGAND FREE ENERGY PREDICTED BY IDOCK:   -7.66 KCAL/MOL
REMARK 924 INTRA-LIGAND FREE ENERGY PREDICTED BY IDOCK:   -1.94 KCAL/MOL
REMARK 927      BINDING AFFINITY PREDICTED BY RF-SCORE:    0.00 PKD
ROOT
HETATM    1  C   UNL     1     -11.441  10.606  69.802  1.00  0.00    -0.375 C  
HETATM    2  C   UNL     1     -10.919  12.001  69.440  1.00  0.00    -0.066 C  
ENDROOT
BRANCH   2   3
HETATM    3  N   UNL     1     -12.006  12.983  69.304  1.00  0.00    -0.302 NA 
HETATM    4  H   UNL     1     -12.862  12.622  69.726  1.00  0.00     0.000 HD 
BRANCH   3   5
HETATM    5  C   UNL     1     -11.708  14.323  69.833  1.00  0.00    -0.311 C  
BRANCH   5   6
HETATM    6  C   UNL     1     -11.863  15.451  68.804  1.00  0.00    -0.339 C  
BRANCH   6   7
HETATM    7  C   UNL     1     -10.613  16.283  68.660  1.00  0.00    -0.297 A  
HETATM    8  C   UNL     1      -8.273  17.764  68.340  1.00  0.00    -0.298 A  
HETATM    9  C   UNL     1      -9.483  18.261  67.865  1.00  0.00    -0.282 A  
HETATM   10  O   UNL     1      -7.122  18.478  68.159  1.00  0.00    -0.236 OA 
HETATM   11  C   UNL     1      -8.214  16.542  68.992  1.00  0.00    -0.208 A  
HETATM   12  H   UNL     1      -8.665  19.972  67.125  1.00  0.00     0.000 HD 
HETATM   13  C   UNL     1     -10.658  17.532  68.023  1.00  0.00    -0.384 A  
HETATM   14  O   UNL     1      -9.467  19.474  67.233  1.00  0.00    -0.310 OA 
HETATM   15  C   UNL     1      -9.388  15.803  69.155  1.00  0.00    -0.258 A  
HETATM   16  H   UNL     1      -6.296  18.139  68.483  1.00  0.00     0.000 HD 
ENDBRANCH   6   7
ENDBRANCH   5   6
ENDBRANCH   3   5
ENDBRANCH   2   3
BRANCH   2  17
HETATM   17  C   UNL     1     -10.117  11.917  68.126  1.00  0.00    -0.200 C  
BRANCH  17  18
HETATM   18  C   UNL     1     -10.991  11.668  66.891  1.00  0.00    -0.342 C  
BRANCH  18  19
HETATM   19  C   UNL     1     -11.133  12.930  66.072  1.00  0.00    -0.308 A  
HETATM   20  C   UNL     1     -12.353  13.250  65.460  1.00  0.00    -0.533 A  
HETATM   21  C   UNL     1     -10.057  13.822  65.956  1.00  0.00    -0.320 A  
HETATM   22  C   UNL     1     -10.198  15.017  65.248  1.00  0.00    -0.409 A  
HETATM   23  H   UNL     1     -12.442  16.690  63.566  1.00  0.00     0.000 HD 
HETATM   24  C   UNL     1     -12.494  14.443  64.750  1.00  0.00    -0.371 A  
HETATM   25  C   UNL     1     -11.420  15.319  64.655  1.00  0.00    -0.354 A  
HETATM   26  O   UNL     1     -11.608  16.484  63.970  1.00  0.00    -1.154 OA 
ENDBRANCH  18  19
ENDBRANCH  17  18
ENDBRANCH   2  17
TORSDOF 7
ENDMDL
MODEL       43
REMARK 921   NORMALIZED FREE ENERGY PREDICTED BY IDOCK:   -5.97 KCAL/MOL
REMARK 922        TOTAL FREE ENERGY PREDICTED BY IDOCK:   -9.58 KCAL/MOL
REMARK 923 INTER-LIGAND FREE ENERGY PREDICTED BY IDOCK:   -8.78 KCAL/MOL
REMARK 924 INTRA-LIGAND FREE ENERGY PREDICTED BY IDOCK:   -0.80 KCAL/MOL
REMARK 927      BINDING AFFINITY PREDICTED BY RF-SCORE:    0.00 PKD
ROOT
HETATM    1  C   UNL     1     -11.300  15.864  70.375  1.00  0.00    -0.399 C  
HETATM    2  C   UNL     1     -11.056  14.725  69.379  1.00  0.00    -0.281 C  
ENDROOT
BRANCH   2   3
HETATM    3  N   UNL     1     -11.095  15.190  67.983  1.00  0.00    -0.295 NA 
HETATM    4  H   UNL     1     -11.451  16.145  67.941  1.00  0.00     0.000 HD 
BRANCH   3   5
HETATM    5  C   UNL     1      -9.820  15.092  67.256  1.00  0.00    -0.228 C  
BRANCH   5   6
HETATM    6  C   UNL     1      -9.937  15.359  65.750  1.00  0.00    -0.393 C  
BRANCH   6   7
HETATM    7  C   UNL     1     -10.672  14.261  65.020  1.00  0.00    -0.435 A  
HETATM    8  C   UNL     1     -12.009  12.271  63.598  1.00  0.00    -0.543 A  
HETATM    9  C   UNL     1     -10.842  11.967  64.295  1.00  0.00    -0.344 A  
HETATM   10  O   UNL     1     -12.648  11.301  62.880  1.00  0.00    -0.917 OA 
HETATM   11  C   UNL     1     -12.531  13.554  63.615  1.00  0.00    -0.278 A  
HETATM   12  H   UNL     1     -10.845  10.006  63.747  1.00  0.00     0.000 HD 
HETATM   13  C   UNL     1     -10.169  12.952  65.011  1.00  0.00    -0.289 A  
HETATM   14  O   UNL     1     -10.386  10.678  64.236  1.00  0.00    -0.360 OA 
HETATM   15  C   UNL     1     -11.862  14.550  64.331  1.00  0.00    -0.419 A  
HETATM   16  H   UNL     1     -13.444  11.508  62.404  1.00  0.00     0.000 HD 
ENDBRANCH   6   7
ENDBRANCH   5   6
ENDBRANCH   3   5
ENDBRANCH   2   3
BRANCH   2  17
HETATM   17  C   UNL     1     -12.114  13.624  69.597  1.00  0.00    -0.378 C  
BRANCH  17  18
HETATM   18  C   UNL     1     -11.742  12.283  68.952  1.00  0.00    -0.380 C  
BRANCH  18  19
HETATM   19  C   UNL     1     -11.680  11.188  69.992  1.00  0.00    -0.438 A  
HETATM   20  C   UNL     1     -12.707  11.042  70.935  1.00  0.00    -0.452 A  
HETATM   21  C   UNL     1     -10.617  10.273  69.994  1.00  0.00    -0.321 A  
HETATM   22  C   UNL     1     -10.583   9.226  70.916  1.00  0.00    -0.366 A  
HETATM   23  H   UNL     1     -12.339   7.984  73.374  1.00  0.00     0.000 HD 
HETATM   24  C   UNL     1     -12.673   9.996  71.859  1.00  0.00    -0.493 A  
HETATM   25  C   UNL     1     -11.617   9.094  71.838  1.00  0.00    -0.360 A  
HETATM   26  O   UNL     1     -11.633   8.074  72.744  1.00  0.00    -0.405 OA 
ENDBRANCH  18  19
ENDBRANCH  17  18
ENDBRANCH   2  17
TORSDOF 7
ENDMDL
MODEL       44
REMARK 921   NORMALIZED FREE ENERGY PREDICTED BY IDOCK:   -5.96 KCAL/MOL
REMARK 922        TOTAL FREE ENERGY PREDICTED BY IDOCK:   -9.56 KCAL/MOL
REMARK 923 INTER-LIGAND FREE ENERGY PREDICTED BY IDOCK:   -8.43 KCAL/MOL
REMARK 924 INTRA-LIGAND FREE ENERGY PREDICTED BY IDOCK:   -1.13 KCAL/MOL
REMARK 927      BINDING AFFINITY PREDICTED BY RF-SCORE:    0.00 PKD
ROOT
HETATM    1  C   UNL     1      -9.269  10.321  67.854  1.00  0.00    -0.143 C  
HETATM    2  C   UNL     1     -10.649  10.223  68.512  1.00  0.00    -0.213 C  
ENDROOT
BRANCH   2   3
HETATM    3  N   UNL     1     -11.684  10.929  67.740  1.00  0.00    -0.661 NA 
HETATM    4  H   UNL     1     -12.008  11.749  68.253  1.00  0.00     0.000 HD 
BRANCH   3   5
HETATM    5  C   UNL     1     -11.294  11.309  66.373  1.00  0.00    -0.014 C  
BRANCH   5   6
HETATM    6  C   UNL     1     -12.152  12.426  65.766  1.00  0.00    -0.381 C  
BRANCH   6   7
HETATM    7  C   UNL     1     -11.494  13.781  65.859  1.00  0.00    -0.330 A  
HETATM    8  C   UNL     1     -10.204  16.247  66.011  1.00  0.00    -0.358 A  
HETATM    9  C   UNL     1     -11.129  16.006  65.000  1.00  0.00    -0.336 A  
HETATM   10  O   UNL     1      -9.552  17.446  66.069  1.00  0.00    -0.464 OA 
HETATM   11  C   UNL     1      -9.923  15.280  66.963  1.00  0.00    -0.235 A  
HETATM   12  H   UNL     1     -10.912  17.843  64.153  1.00  0.00     0.000 HD 
HETATM   13  C   UNL     1     -11.782  14.779  64.917  1.00  0.00    -0.390 A  
HETATM   14  O   UNL     1     -11.358  17.007  64.096  1.00  0.00    -1.164 OA 
HETATM   15  C   UNL     1     -10.573  14.045  66.888  1.00  0.00    -0.280 A  
HETATM   16  H   UNL     1      -8.920  17.611  66.759  1.00  0.00     0.000 HD 
ENDBRANCH   6   7
ENDBRANCH   5   6
ENDBRANCH   3   5
ENDBRANCH   2   3
BRANCH   2  17
HETATM   17  C   UNL     1     -10.572  10.798  69.940  1.00  0.00    -0.130 C  
BRANCH  17  18
HETATM   18  C   UNL     1     -11.899  10.711  70.706  1.00  0.00    -0.459 C  
BRANCH  18  19
HETATM   19  C   UNL     1     -12.415  12.091  71.040  1.00  0.00    -0.376 A  
HETATM   20  C   UNL     1     -11.902  13.221  70.389  1.00  0.00    -0.270 A  
HETATM   21  C   UNL     1     -13.453  12.252  71.970  1.00  0.00    -0.418 A  
HETATM   22  C   UNL     1     -13.973  13.519  72.241  1.00  0.00    -0.638 A  
HETATM   23  H   UNL     1     -13.592  16.636  71.345  1.00  0.00     0.000 HD 
HETATM   24  C   UNL     1     -12.420  14.489  70.661  1.00  0.00    -0.409 A  
HETATM   25  C   UNL     1     -13.454  14.627  71.578  1.00  0.00    -0.388 A  
HETATM   26  O   UNL     1     -13.946  15.880  71.799  1.00  0.00    -0.370 OA 
ENDBRANCH  18  19
ENDBRANCH  17  18
ENDBRANCH   2  17
TORSDOF 7
ENDMDL
MODEL       45
REMARK 921   NORMALIZED FREE ENERGY PREDICTED BY IDOCK:   -5.95 KCAL/MOL
REMARK 922        TOTAL FREE ENERGY PREDICTED BY IDOCK:   -9.55 KCAL/MOL
REMARK 923 INTER-LIGAND FREE ENERGY PREDICTED BY IDOCK:   -8.37 KCAL/MOL
REMARK 924 INTRA-LIGAND FREE ENERGY PREDICTED BY IDOCK:   -1.19 KCAL/MOL
REMARK 927      BINDING AFFINITY PREDICTED BY RF-SCORE:    0.00 PKD
ROOT
HETATM    1  C   UNL     1     -13.413  15.018  72.959  1.00  0.00    -0.520 C  
HETATM    2  C   UNL     1     -12.717  14.331  71.779  1.00  0.00    -0.347 C  
ENDROOT
BRANCH   2   3
HETATM    3  N   UNL     1     -13.002  15.000  70.500  1.00  0.00    -0.579 NA 
HETATM    4  H   UNL     1     -13.810  15.615  70.597  1.00  0.00     0.000 HD 
BRANCH   3   5
HETATM    5  C   UNL     1     -11.871  15.738  69.916  1.00  0.00    -0.344 C  
BRANCH   5   6
HETATM    6  C   UNL     1     -11.908  15.828  68.384  1.00  0.00    -0.180 C  
BRANCH   6   7
HETATM    7  C   UNL     1     -11.551  14.524  67.716  1.00  0.00    -0.390 A  
HETATM    8  C   UNL     1     -10.916  12.071  66.551  1.00  0.00    -0.295 A  
HETATM    9  C   UNL     1     -11.974  12.827  66.054  1.00  0.00    -0.432 A  
HETATM   10  O   UNL     1     -10.623  10.858  65.998  1.00  0.00    -0.246 OA 
HETATM   11  C   UNL     1     -10.154  12.530  67.615  1.00  0.00    -0.217 A  
HETATM   12  H   UNL     1     -12.461  11.475  64.612  1.00  0.00     0.000 HD 
HETATM   13  C   UNL     1     -12.297  14.054  66.625  1.00  0.00    -0.408 A  
HETATM   14  O   UNL     1     -12.681  12.313  65.001  1.00  0.00    -0.581 OA 
HETATM   15  C   UNL     1     -10.471  13.761  68.195  1.00  0.00    -0.252 A  
HETATM   16  H   UNL     1      -9.901  10.341  66.337  1.00  0.00     0.000 HD 
ENDBRANCH   6   7
ENDBRANCH   5   6
ENDBRANCH   3   5
ENDBRANCH   2   3
BRANCH   2  17
HETATM   17  C   UNL     1     -13.166  12.857  71.714  1.00  0.00    -0.479 C  
BRANCH  17  18
HETATM   18  C   UNL     1     -12.491  12.062  70.589  1.00  0.00    -0.335 C  
BRANCH  18  19
HETATM   19  C   UNL     1     -12.357  10.605  70.970  1.00  0.00    -0.507 A  
HETATM   20  C   UNL     1     -13.385   9.953  71.663  1.00  0.00    -0.481 A  
HETATM   21  C   UNL     1     -11.222   9.876  70.586  1.00  0.00    -0.416 A  
HETATM   22  C   UNL     1     -11.118   8.516  70.886  1.00  0.00    -0.295 A  
HETATM   23  H   UNL     1     -12.808   6.124  72.330  1.00  0.00     0.000 HD 
HETATM   24  C   UNL     1     -13.281   8.593  71.965  1.00  0.00    -0.422 A  
HETATM   25  C   UNL     1     -12.153   7.885  71.568  1.00  0.00    -0.306 A  
HETATM   26  O   UNL     1     -12.101   6.555  71.864  1.00  0.00    -0.334 OA 
ENDBRANCH  18  19
ENDBRANCH  17  18
ENDBRANCH   2  17
TORSDOF 7
ENDMDL
MODEL       46
REMARK 921   NORMALIZED FREE ENERGY PREDICTED BY IDOCK:   -5.90 KCAL/MOL
REMARK 922        TOTAL FREE ENERGY PREDICTED BY IDOCK:   -9.47 KCAL/MOL
REMARK 923 INTER-LIGAND FREE ENERGY PREDICTED BY IDOCK:   -8.90 KCAL/MOL
REMARK 924 INTRA-LIGAND FREE ENERGY PREDICTED BY IDOCK:   -0.57 KCAL/MOL
REMARK 927      BINDING AFFINITY PREDICTED BY RF-SCORE:    0.00 PKD
ROOT
HETATM    1  C   UNL     1     -12.247  14.152  66.075  1.00  0.00    -0.464 C  
HETATM    2  C   UNL     1     -11.476  14.414  67.373  1.00  0.00    -0.358 C  
ENDROOT
BRANCH   2   3
HETATM    3  N   UNL     1     -12.371  14.555  68.532  1.00  0.00    -0.595 NA 
HETATM    4  H   UNL     1     -13.345  14.530  68.229  1.00  0.00     0.000 HD 
BRANCH   3   5
HETATM    5  C   UNL     1     -12.152  13.581  69.613  1.00  0.00    -0.306 C  
BRANCH   5   6
HETATM    6  C   UNL     1     -11.669  12.208  69.128  1.00  0.00    -0.384 C  
BRANCH   6   7
HETATM    7  C   UNL     1     -11.830  11.132  70.174  1.00  0.00    -0.449 A  
HETATM    8  C   UNL     1     -12.197   9.120  72.069  1.00  0.00    -0.373 A  
HETATM    9  C   UNL     1     -11.127   9.055  71.180  1.00  0.00    -0.301 A  
HETATM   10  O   UNL     1     -12.392   8.120  72.978  1.00  0.00    -0.666 OA 
HETATM   11  C   UNL     1     -13.081  10.187  72.038  1.00  0.00    -0.538 A  
HETATM   12  H   UNL     1     -10.427   7.291  71.915  1.00  0.00     0.000 HD 
HETATM   13  C   UNL     1     -10.932  10.056  70.234  1.00  0.00    -0.377 A  
HETATM   14  O   UNL     1     -10.293   7.974  71.269  1.00  0.00    -0.191 OA 
HETATM   15  C   UNL     1     -12.894  11.197  71.091  1.00  0.00    -0.473 A  
HETATM   16  H   UNL     1     -13.122   8.164  73.584  1.00  0.00     0.000 HD 
ENDBRANCH   6   7
ENDBRANCH   5   6
ENDBRANCH   3   5
ENDBRANCH   2   3
BRANCH   2  17
HETATM   17  C   UNL     1     -10.623  15.688  67.208  1.00  0.00    -0.305 C  
BRANCH  17  18
HETATM   18  C   UNL     1     -10.966  16.789  68.220  1.00  0.00    -0.327 C  
BRANCH  18  19
HETATM   19  C   UNL     1     -10.094  18.004  68.006  1.00  0.00    -0.370 A  
HETATM   20  C   UNL     1      -8.896  18.156  68.718  1.00  0.00    -0.227 A  
HETATM   21  C   UNL     1     -10.448  18.969  67.052  1.00  0.00    -0.514 A  
HETATM   22  C   UNL     1      -9.618  20.065  66.809  1.00  0.00    -0.543 A  
HETATM   23  H   UNL     1      -6.768  21.325  67.788  1.00  0.00     0.000 HD 
HETATM   24  C   UNL     1      -8.066  19.253  68.477  1.00  0.00    -0.401 A  
HETATM   25  C   UNL     1      -8.430  20.193  67.521  1.00  0.00    -0.335 A  
HETATM   26  O   UNL     1      -7.580  21.238  67.302  1.00  0.00    -0.408 OA 
ENDBRANCH  18  19
ENDBRANCH  17  18
ENDBRANCH   2  17
TORSDOF 7
ENDMDL
MODEL       47
REMARK 921   NORMALIZED FREE ENERGY PREDICTED BY IDOCK:   -5.89 KCAL/MOL
REMARK 922        TOTAL FREE ENERGY PREDICTED BY IDOCK:   -9.46 KCAL/MOL
REMARK 923 INTER-LIGAND FREE ENERGY PREDICTED BY IDOCK:   -8.31 KCAL/MOL
REMARK 924 INTRA-LIGAND FREE ENERGY PREDICTED BY IDOCK:   -1.14 KCAL/MOL
REMARK 927      BINDING AFFINITY PREDICTED BY RF-SCORE:    0.00 PKD
ROOT
HETATM    1  C   UNL     1     -10.196  11.924  67.539  1.00  0.00    -0.212 C  
HETATM    2  C   UNL     1      -9.880  13.392  67.843  1.00  0.00    -0.237 C  
ENDROOT
BRANCH   2   3
HETATM    3  N   UNL     1      -8.816  13.535  68.850  1.00  0.00    -0.371 NA 
HETATM    4  H   UNL     1      -8.062  12.875  68.660  1.00  0.00     0.000 HD 
BRANCH   3   5
HETATM    5  C   UNL     1      -8.275  14.895  68.998  1.00  0.00    -0.168 C  
BRANCH   5   6
HETATM    6  C   UNL     1      -7.732  15.496  67.695  1.00  0.00    -0.178 C  
BRANCH   6   7
HETATM    7  C   UNL     1      -8.413  16.791  67.324  1.00  0.00    -0.202 A  
HETATM    8  C   UNL     1      -9.597  19.211  66.607  1.00  0.00    -0.346 A  
HETATM    9  C   UNL     1      -9.967  18.034  65.961  1.00  0.00    -0.216 A  
HETATM   10  O   UNL     1     -10.158  20.399  66.236  1.00  0.00    -0.531 OA 
HETATM   11  C   UNL     1      -8.654  19.196  67.623  1.00  0.00    -0.327 A  
HETATM   12  H   UNL     1     -11.303  18.951  64.729  1.00  0.00     0.000 HD 
HETATM   13  C   UNL     1      -9.385  16.820  66.314  1.00  0.00    -0.310 A  
HETATM   14  O   UNL     1     -10.906  18.123  64.970  1.00  0.00    -0.707 OA 
HETATM   15  C   UNL     1      -8.064  17.983  67.984  1.00  0.00    -0.259 A  
HETATM   16  H   UNL     1      -9.906  21.203  66.677  1.00  0.00     0.000 HD 
ENDBRANCH   6   7
ENDBRANCH   5   6
ENDBRANCH   3   5
ENDBRANCH   2   3
BRANCH   2  17
HETATM   17  C   UNL     1     -11.163  14.098  68.327  1.00  0.00    -0.295 C  
BRANCH  17  18
HETATM   18  C   UNL     1     -11.956  13.284  69.358  1.00  0.00    -0.356 C  
BRANCH  18  19
HETATM   19  C   UNL     1     -12.227  14.107  70.596  1.00  0.00    -0.432 A  
HETATM   20  C   UNL     1     -13.001  13.587  71.642  1.00  0.00    -0.447 A  
HETATM   21  C   UNL     1     -11.662  15.384  70.733  1.00  0.00    -0.385 A  
HETATM   22  C   UNL     1     -11.862  16.127  71.898  1.00  0.00    -0.605 A  
HETATM   23  H   UNL     1     -13.355  15.905  74.795  1.00  0.00     0.000 HD 
HETATM   24  C   UNL     1     -13.203  14.331  72.807  1.00  0.00    -0.614 A  
HETATM   25  C   UNL     1     -12.628  15.589  72.928  1.00  0.00    -0.428 A  
HETATM   26  O   UNL     1     -12.832  16.273  74.091  1.00  0.00    -0.689 OA 
ENDBRANCH  18  19
ENDBRANCH  17  18
ENDBRANCH   2  17
TORSDOF 7
ENDMDL
MODEL       48
REMARK 921   NORMALIZED FREE ENERGY PREDICTED BY IDOCK:   -5.86 KCAL/MOL
REMARK 922        TOTAL FREE ENERGY PREDICTED BY IDOCK:   -9.43 KCAL/MOL
REMARK 923 INTER-LIGAND FREE ENERGY PREDICTED BY IDOCK:   -8.77 KCAL/MOL
REMARK 924 INTRA-LIGAND FREE ENERGY PREDICTED BY IDOCK:   -0.65 KCAL/MOL
REMARK 927      BINDING AFFINITY PREDICTED BY RF-SCORE:    0.00 PKD
ROOT
HETATM    1  C   UNL     1     -12.641  13.764  65.583  1.00  0.00    -0.551 C  
HETATM    2  C   UNL     1     -11.263  13.286  66.055  1.00  0.00    -0.297 C  
ENDROOT
BRANCH   2   3
HETATM    3  N   UNL     1     -11.250  12.955  67.488  1.00  0.00    -0.275 NA 
HETATM    4  H   UNL     1     -11.962  13.495  67.980  1.00  0.00     0.000 HD 
BRANCH   3   5
HETATM    5  C   UNL     1     -11.395  11.525  67.800  1.00  0.00    -0.296 C  
BRANCH   5   6
HETATM    6  C   UNL     1     -10.577  11.064  69.014  1.00  0.00    -0.258 C  
BRANCH   6   7
HETATM    7  C   UNL     1     -11.442  10.526  70.128  1.00  0.00    -0.405 A  
HETATM    8  C   UNL     1     -13.106   9.536  72.133  1.00  0.00    -0.436 A  
HETATM    9  C   UNL     1     -12.117   8.725  71.584  1.00  0.00    -0.337 A  
HETATM   10  O   UNL     1     -13.939   9.041  73.096  1.00  0.00    -1.130 OA 
HETATM   11  C   UNL     1     -13.268  10.846  71.708  1.00  0.00    -0.513 A  
HETATM   12  H   UNL     1     -12.587   7.113  72.734  1.00  0.00     0.000 HD 
HETATM   13  C   UNL     1     -11.278   9.211  70.585  1.00  0.00    -0.322 A  
HETATM   14  O   UNL     1     -12.014   7.444  72.053  1.00  0.00    -0.288 OA 
HETATM   15  C   UNL     1     -12.430  11.342  70.706  1.00  0.00    -0.471 A  
HETATM   16  H   UNL     1     -14.615   9.594  73.471  1.00  0.00     0.000 HD 
ENDBRANCH   6   7
ENDBRANCH   5   6
ENDBRANCH   3   5
ENDBRANCH   2   3
BRANCH   2  17
HETATM   17  C   UNL     1     -10.217  14.379  65.757  1.00  0.00    -0.355 C  
BRANCH  17  18
HETATM   18  C   UNL     1     -10.828  15.678  65.214  1.00  0.00    -0.420 C  
BRANCH  18  19
HETATM   19  C   UNL     1     -10.611  16.817  66.184  1.00  0.00    -0.212 A  
HETATM   20  C   UNL     1     -10.598  18.144  65.733  1.00  0.00    -0.186 A  
HETATM   21  C   UNL     1     -10.470  16.560  67.555  1.00  0.00    -0.310 A  
HETATM   22  C   UNL     1     -10.325  17.612  68.463  1.00  0.00    -0.370 A  
HETATM   23  H   UNL     1     -10.202  20.874  68.530  1.00  0.00     0.000 HD 
HETATM   24  C   UNL     1     -10.451  19.195  66.640  1.00  0.00    -0.529 A  
HETATM   25  C   UNL     1     -10.323  18.922  67.995  1.00  0.00    -0.389 A  
HETATM   26  O   UNL     1     -10.203  19.979  68.849  1.00  0.00    -0.421 OA 
ENDBRANCH  18  19
ENDBRANCH  17  18
ENDBRANCH   2  17
TORSDOF 7
ENDMDL
MODEL       49
REMARK 921   NORMALIZED FREE ENERGY PREDICTED BY IDOCK:   -5.84 KCAL/MOL
REMARK 922        TOTAL FREE ENERGY PREDICTED BY IDOCK:   -9.39 KCAL/MOL
REMARK 923 INTER-LIGAND FREE ENERGY PREDICTED BY IDOCK:   -7.51 KCAL/MOL
REMARK 924 INTRA-LIGAND FREE ENERGY PREDICTED BY IDOCK:   -1.89 KCAL/MOL
REMARK 927      BINDING AFFINITY PREDICTED BY RF-SCORE:    0.00 PKD
ROOT
HETATM    1  C   UNL     1     -12.262  14.232  64.135  1.00  0.00    -0.410 C  
HETATM    2  C   UNL     1     -12.357  13.847  65.616  1.00  0.00    -0.482 C  
ENDROOT
BRANCH   2   3
HETATM    3  N   UNL     1     -11.453  14.648  66.457  1.00  0.00    -0.355 NA 
HETATM    4  H   UNL     1     -11.308  15.568  66.041  1.00  0.00     0.000 HD 
BRANCH   3   5
HETATM    5  C   UNL     1     -11.868  14.787  67.861  1.00  0.00    -0.297 C  
BRANCH   5   6
HETATM    6  C   UNL     1     -10.951  14.067  68.859  1.00  0.00    -0.283 C  
BRANCH   6   7
HETATM    7  C   UNL     1     -11.706  13.138  69.776  1.00  0.00    -0.350 A  
HETATM    8  C   UNL     1     -13.028  11.395  71.505  1.00  0.00    -0.399 A  
HETATM    9  C   UNL     1     -13.162  12.771  71.665  1.00  0.00    -0.317 A  
HETATM   10  O   UNL     1     -13.654  10.542  72.369  1.00  0.00    -0.577 OA 
HETATM   11  C   UNL     1     -12.256  10.871  70.480  1.00  0.00    -0.459 A  
HETATM   12  H   UNL     1     -14.386  12.617  73.284  1.00  0.00     0.000 HD 
HETATM   13  C   UNL     1     -12.510  13.650  70.805  1.00  0.00    -0.432 A  
HETATM   14  O   UNL     1     -13.941  13.217  72.697  1.00  0.00    -0.741 OA 
HETATM   15  C   UNL     1     -11.597  11.746  69.612  1.00  0.00    -0.393 A  
HETATM   16  H   UNL     1     -13.562   9.603  72.260  1.00  0.00     0.000 HD 
ENDBRANCH   6   7
ENDBRANCH   5   6
ENDBRANCH   3   5
ENDBRANCH   2   3
BRANCH   2  17
HETATM   17  C   UNL     1     -12.031  12.348  65.771  1.00  0.00    -0.437 C  
BRANCH  17  18
HETATM   18  C   UNL     1     -10.597  11.988  65.361  1.00  0.00    -0.319 C  
BRANCH  18  19
HETATM   19  C   UNL     1      -9.960  11.079  66.387  1.00  0.00    -0.264 A  
HETATM   20  C   UNL     1      -8.796  11.472  67.061  1.00  0.00    -0.173 A  
HETATM   21  C   UNL     1     -10.557   9.853  66.713  1.00  0.00    -0.214 A  
HETATM   22  C   UNL     1     -10.005   9.034  67.700  1.00  0.00    -0.252 A  
HETATM   23  H   UNL     1      -7.504   8.968  69.799  1.00  0.00     0.000 HD 
HETATM   24  C   UNL     1      -8.242  10.652  68.047  1.00  0.00    -0.113 A  
HETATM   25  C   UNL     1      -8.853   9.446  68.363  1.00  0.00    -0.128 A  
HETATM   26  O   UNL     1      -8.291   8.686  69.346  1.00  0.00    -0.111 OA 
ENDBRANCH  18  19
ENDBRANCH  17  18
ENDBRANCH   2  17
TORSDOF 7
ENDMDL
MODEL       50
REMARK 921   NORMALIZED FREE ENERGY PREDICTED BY IDOCK:   -5.84 KCAL/MOL
REMARK 922        TOTAL FREE ENERGY PREDICTED BY IDOCK:   -9.39 KCAL/MOL
REMARK 923 INTER-LIGAND FREE ENERGY PREDICTED BY IDOCK:   -8.43 KCAL/MOL
REMARK 924 INTRA-LIGAND FREE ENERGY PREDICTED BY IDOCK:   -0.95 KCAL/MOL
REMARK 927      BINDING AFFINITY PREDICTED BY RF-SCORE:    0.00 PKD
ROOT
HETATM    1  C   UNL     1     -12.702  15.433  73.341  1.00  0.00    -0.656 C  
HETATM    2  C   UNL     1     -13.840  14.922  72.452  1.00  0.00    -0.483 C  
ENDROOT
BRANCH   2   3
HETATM    3  N   UNL     1     -14.045  13.471  72.589  1.00  0.00    -0.729 NA 
HETATM    4  H   UNL     1     -15.024  13.237  72.425  1.00  0.00     0.000 HD 
BRANCH   3   5
HETATM    5  C   UNL     1     -13.176  12.636  71.746  1.00  0.00    -0.359 C  
BRANCH   5   6
HETATM    6  C   UNL     1     -13.322  11.129  71.998  1.00  0.00    -0.384 C  
BRANCH   6   7
HETATM    7  C   UNL     1     -12.394  10.304  71.141  1.00  0.00    -0.501 A  
HETATM    8  C   UNL     1     -10.616   8.831  69.578  1.00  0.00    -0.219 A  
HETATM    9  C   UNL     1     -11.144   8.279  70.741  1.00  0.00    -0.258 A  
HETATM   10  O   UNL     1      -9.724   8.120  68.827  1.00  0.00    -0.149 OA 
HETATM   11  C   UNL     1     -10.977  10.106  69.170  1.00  0.00    -0.270 A  
HETATM   12  H   UNL     1     -10.137   6.521  70.546  1.00  0.00     0.000 HD 
HETATM   13  C   UNL     1     -12.036   9.004  71.527  1.00  0.00    -0.414 A  
HETATM   14  O   UNL     1     -10.746   7.015  71.082  1.00  0.00    -0.227 OA 
HETATM   15  C   UNL     1     -11.871  10.842  69.952  1.00  0.00    -0.413 A  
HETATM   16  H   UNL     1      -9.363   8.497  68.033  1.00  0.00     0.000 HD 
ENDBRANCH   6   7
ENDBRANCH   5   6
ENDBRANCH   3   5
ENDBRANCH   2   3
BRANCH   2  17
HETATM   17  C   UNL     1     -13.533  15.274  70.982  1.00  0.00    -0.516 C  
BRANCH  17  18
HETATM   18  C   UNL     1     -12.097  15.766  70.759  1.00  0.00    -0.448 C  
BRANCH  18  19
HETATM   19  C   UNL     1     -11.635  15.449  69.355  1.00  0.00    -0.354 A  
HETATM   20  C   UNL     1     -11.847  14.178  68.805  1.00  0.00    -0.384 A  
HETATM   21  C   UNL     1     -11.035  16.443  68.568  1.00  0.00    -0.350 A  
HETATM   22  C   UNL     1     -10.657  16.173  67.251  1.00  0.00    -0.305 A  
HETATM   23  H   UNL     1     -10.702  13.740  65.072  1.00  0.00     0.000 HD 
HETATM   24  C   UNL     1     -11.468  13.907  67.489  1.00  0.00    -0.368 A  
HETATM   25  C   UNL     1     -10.883  14.906  66.722  1.00  0.00    -0.320 A  
HETATM   26  O   UNL     1     -10.548  14.605  65.434  1.00  0.00    -0.323 OA 
ENDBRANCH  18  19
ENDBRANCH  17  18
ENDBRANCH   2  17
TORSDOF 7
ENDMDL
MODEL       51
REMARK 921   NORMALIZED FREE ENERGY PREDICTED BY IDOCK:   -5.82 KCAL/MOL
REMARK 922        TOTAL FREE ENERGY PREDICTED BY IDOCK:   -9.37 KCAL/MOL
REMARK 923 INTER-LIGAND FREE ENERGY PREDICTED BY IDOCK:   -8.37 KCAL/MOL
REMARK 924 INTRA-LIGAND FREE ENERGY PREDICTED BY IDOCK:   -1.00 KCAL/MOL
REMARK 927      BINDING AFFINITY PREDICTED BY RF-SCORE:    0.00 PKD
ROOT
HETATM    1  C   UNL     1     -10.538   8.077  66.846  1.00  0.00    -0.324 C  
HETATM    2  C   UNL     1     -10.568   9.602  66.699  1.00  0.00    -0.103 C  
ENDROOT
BRANCH   2   3
HETATM    3  N   UNL     1      -9.856  10.058  65.494  1.00  0.00    -0.288 NA 
HETATM    4  H   UNL     1      -9.679   9.270  64.871  1.00  0.00     0.000 HD 
BRANCH   3   5
HETATM    5  C   UNL     1     -10.510  11.150  64.758  1.00  0.00    -0.323 C  
BRANCH   5   6
HETATM    6  C   UNL     1     -11.478  11.985  65.607  1.00  0.00    -0.372 C  
BRANCH   6   7
HETATM    7  C   UNL     1     -11.097  13.444  65.656  1.00  0.00    -0.298 A  
HETATM    8  C   UNL     1     -10.313  16.119  65.727  1.00  0.00    -0.378 A  
HETATM    9  C   UNL     1     -11.198  15.677  64.747  1.00  0.00    -0.382 A  
HETATM   10  O   UNL     1      -9.908  17.423  65.743  1.00  0.00    -0.536 OA 
HETATM   11  C   UNL     1      -9.824  15.247  66.687  1.00  0.00    -0.263 A  
HETATM   12  H   UNL     1     -11.368  17.501  63.861  1.00  0.00     0.000 HD 
HETATM   13  C   UNL     1     -11.599  14.345  64.706  1.00  0.00    -0.410 A  
HETATM   14  O   UNL     1     -11.642  16.592  63.833  1.00  0.00    -1.204 OA 
HETATM   15  C   UNL     1     -10.220  13.908  66.653  1.00  0.00    -0.276 A  
HETATM   16  H   UNL     1      -9.304  17.725  66.411  1.00  0.00     0.000 HD 
ENDBRANCH   6   7
ENDBRANCH   5   6
ENDBRANCH   3   5
ENDBRANCH   2   3
BRANCH   2  17
HETATM   17  C   UNL     1      -9.945  10.245  67.954  1.00  0.00    -0.191 C  
BRANCH  17  18
HETATM   18  C   UNL     1     -10.337   9.540  69.260  1.00  0.00    -0.219 C  
BRANCH  18  19
HETATM   19  C   UNL     1     -11.313  10.382  70.049  1.00  0.00    -0.384 A  
HETATM   20  C   UNL     1     -12.076   9.812  71.078  1.00  0.00    -0.434 A  
HETATM   21  C   UNL     1     -11.428  11.756  69.795  1.00  0.00    -0.320 A  
HETATM   22  C   UNL     1     -12.287  12.550  70.559  1.00  0.00    -0.345 A  
HETATM   23  H   UNL     1     -14.372  12.309  73.060  1.00  0.00     0.000 HD 
HETATM   24  C   UNL     1     -12.936  10.605  71.840  1.00  0.00    -0.542 A  
HETATM   25  C   UNL     1     -13.029  11.966  71.580  1.00  0.00    -0.323 A  
HETATM   26  O   UNL     1     -13.865  12.708  72.362  1.00  0.00    -0.456 OA 
ENDBRANCH  18  19
ENDBRANCH  17  18
ENDBRANCH   2  17
TORSDOF 7
ENDMDL
MODEL       52
REMARK 921   NORMALIZED FREE ENERGY PREDICTED BY IDOCK:   -5.82 KCAL/MOL
REMARK 922        TOTAL FREE ENERGY PREDICTED BY IDOCK:   -9.37 KCAL/MOL
REMARK 923 INTER-LIGAND FREE ENERGY PREDICTED BY IDOCK:   -8.19 KCAL/MOL
REMARK 924 INTRA-LIGAND FREE ENERGY PREDICTED BY IDOCK:   -1.18 KCAL/MOL
REMARK 927      BINDING AFFINITY PREDICTED BY RF-SCORE:    0.00 PKD
ROOT
HETATM    1  C   UNL     1      -7.001  15.106  68.275  1.00  0.00    -0.117 C  
HETATM    2  C   UNL     1      -8.244  14.551  68.980  1.00  0.00    -0.076 C  
ENDROOT
BRANCH   2   3
HETATM    3  N   UNL     1      -8.338  13.086  68.869  1.00  0.00    -0.344 NA 
HETATM    4  H   UNL     1      -9.158  12.747  69.372  1.00  0.00     0.000 HD 
BRANCH   3   5
HETATM    5  C   UNL     1      -8.336  12.563  67.494  1.00  0.00    -0.175 C  
BRANCH   5   6
HETATM    6  C   UNL     1      -9.546  11.680  67.160  1.00  0.00    -0.185 C  
BRANCH   6   7
HETATM    7  C   UNL     1     -10.358  12.219  66.008  1.00  0.00    -0.273 A  
HETATM    8  C   UNL     1     -11.883  13.137  63.862  1.00  0.00    -0.472 A  
HETATM    9  C   UNL     1     -12.258  13.445  65.166  1.00  0.00    -0.434 A  
HETATM   10  O   UNL     1     -12.646  13.563  62.812  1.00  0.00    -0.740 OA 
HETATM   11  C   UNL     1     -10.743  12.389  63.609  1.00  0.00    -0.497 A  
HETATM   12  H   UNL     1     -13.910  14.495  64.605  1.00  0.00     0.000 HD 
HETATM   13  C   UNL     1     -11.502  12.996  66.245  1.00  0.00    -0.379 A  
HETATM   14  O   UNL     1     -13.394  14.188  65.341  1.00  0.00    -0.705 OA 
HETATM   15  C   UNL     1      -9.978  11.933  64.685  1.00  0.00    -0.257 A  
HETATM   16  H   UNL     1     -12.390  13.353  61.921  1.00  0.00     0.000 HD 
ENDBRANCH   6   7
ENDBRANCH   5   6
ENDBRANCH   3   5
ENDBRANCH   2   3
BRANCH   2  17
HETATM   17  C   UNL     1      -9.503  15.207  68.379  1.00  0.00    -0.208 C  
BRANCH  17  18
HETATM   18  C   UNL     1     -10.219  16.156  69.348  1.00  0.00    -0.266 C  
BRANCH  18  19
HETATM   19  C   UNL     1     -11.147  15.389  70.261  1.00  0.00    -0.331 A  
HETATM   20  C   UNL     1     -11.508  15.910  71.511  1.00  0.00    -0.484 A  
HETATM   21  C   UNL     1     -11.698  14.168  69.845  1.00  0.00    -0.372 A  
HETATM   22  C   UNL     1     -12.600  13.482  70.661  1.00  0.00    -0.345 A  
HETATM   23  H   UNL     1     -14.082  13.760  73.557  1.00  0.00     0.000 HD 
HETATM   24  C   UNL     1     -12.408  15.223  72.329  1.00  0.00    -0.450 A  
HETATM   25  C   UNL     1     -12.951  14.020  71.895  1.00  0.00    -0.360 A  
HETATM   26  O   UNL     1     -13.842  13.392  72.715  1.00  0.00    -0.720 OA 
ENDBRANCH  18  19
ENDBRANCH  17  18
ENDBRANCH   2  17
TORSDOF 7
ENDMDL
MODEL       53
REMARK 921   NORMALIZED FREE ENERGY PREDICTED BY IDOCK:   -5.81 KCAL/MOL
REMARK 922        TOTAL FREE ENERGY PREDICTED BY IDOCK:   -9.35 KCAL/MOL
REMARK 923 INTER-LIGAND FREE ENERGY PREDICTED BY IDOCK:   -8.43 KCAL/MOL
REMARK 924 INTRA-LIGAND FREE ENERGY PREDICTED BY IDOCK:   -0.93 KCAL/MOL
REMARK 927      BINDING AFFINITY PREDICTED BY RF-SCORE:    0.00 PKD
ROOT
HETATM    1  C   UNL     1      -7.504   9.709  67.389  1.00  0.00    -0.091 C  
HETATM    2  C   UNL     1      -8.873   9.084  67.681  1.00  0.00    -0.124 C  
ENDROOT
BRANCH   2   3
HETATM    3  N   UNL     1      -9.855   9.382  66.626  1.00  0.00    -0.225 NA 
HETATM    4  H   UNL     1     -10.795   9.141  66.943  1.00  0.00     0.000 HD 
BRANCH   3   5
HETATM    5  C   UNL     1      -9.830  10.764  66.122  1.00  0.00    -0.221 C  
BRANCH   5   6
HETATM    6  C   UNL     1     -11.041  11.606  66.545  1.00  0.00    -0.357 C  
BRANCH   6   7
HETATM    7  C   UNL     1     -11.122  12.919  65.806  1.00  0.00    -0.312 A  
HETATM    8  C   UNL     1     -11.346  15.361  64.479  1.00  0.00    -0.313 A  
HETATM    9  C   UNL     1     -10.350  15.175  65.434  1.00  0.00    -0.388 A  
HETATM   10  O   UNL     1     -11.472  16.567  63.850  1.00  0.00    -1.608 OA 
HETATM   11  C   UNL     1     -12.225  14.338  64.161  1.00  0.00    -0.410 A  
HETATM   12  H   UNL     1      -9.601  17.057  65.242  1.00  0.00     0.000 HD 
HETATM   13  C   UNL     1     -10.227  13.958  66.099  1.00  0.00    -0.307 A  
HETATM   14  O   UNL     1      -9.517  16.228  65.696  1.00  0.00    -0.463 OA 
HETATM   15  C   UNL     1     -12.110  13.113  64.824  1.00  0.00    -0.459 A  
HETATM   16  H   UNL     1     -12.152  16.695  63.198  1.00  0.00     0.000 HD 
ENDBRANCH   6   7
ENDBRANCH   5   6
ENDBRANCH   3   5
ENDBRANCH   2   3
BRANCH   2  17
HETATM   17  C   UNL     1      -9.386   9.599  69.040  1.00  0.00    -0.159 C  
BRANCH  17  18
HETATM   18  C   UNL     1     -10.799   9.112  69.384  1.00  0.00    -0.165 C  
BRANCH  18  19
HETATM   19  C   UNL     1     -11.560  10.171  70.148  1.00  0.00    -0.350 A  
HETATM   20  C   UNL     1     -11.427  11.525  69.812  1.00  0.00    -0.362 A  
HETATM   21  C   UNL     1     -12.447   9.806  71.171  1.00  0.00    -0.443 A  
HETATM   22  C   UNL     1     -13.195  10.775  71.843  1.00  0.00    -0.524 A  
HETATM   23  H   UNL     1     -13.683  14.004  71.862  1.00  0.00     0.000 HD 
HETATM   24  C   UNL     1     -12.173  12.496  70.485  1.00  0.00    -0.382 A  
HETATM   25  C   UNL     1     -13.054  12.113  71.488  1.00  0.00    -0.257 A  
HETATM   26  O   UNL     1     -13.779  13.090  72.105  1.00  0.00    -0.506 OA 
ENDBRANCH  18  19
ENDBRANCH  17  18
ENDBRANCH   2  17
TORSDOF 7
ENDMDL
MODEL       54
REMARK 921   NORMALIZED FREE ENERGY PREDICTED BY IDOCK:   -5.80 KCAL/MOL
REMARK 922        TOTAL FREE ENERGY PREDICTED BY IDOCK:   -9.33 KCAL/MOL
REMARK 923 INTER-LIGAND FREE ENERGY PREDICTED BY IDOCK:   -8.41 KCAL/MOL
REMARK 924 INTRA-LIGAND FREE ENERGY PREDICTED BY IDOCK:   -0.92 KCAL/MOL
REMARK 927      BINDING AFFINITY PREDICTED BY RF-SCORE:    0.00 PKD
ROOT
HETATM    1  C   UNL     1      -9.831  12.117  66.655  1.00  0.00    -0.224 C  
HETATM    2  C   UNL     1     -10.523  12.973  67.721  1.00  0.00    -0.228 C  
ENDROOT
BRANCH   2   3
HETATM    3  N   UNL     1      -9.614  13.333  68.821  1.00  0.00    -0.410 NA 
HETATM    4  H   UNL     1      -8.894  12.619  68.929  1.00  0.00     0.000 HD 
BRANCH   3   5
HETATM    5  C   UNL     1      -8.995  14.663  68.709  1.00  0.00    -0.173 C  
BRANCH   5   6
HETATM    6  C   UNL     1      -9.838  15.797  69.306  1.00  0.00    -0.265 C  
BRANCH   6   7
HETATM    7  C   UNL     1     -10.097  16.910  68.320  1.00  0.00    -0.302 A  
HETATM    8  C   UNL     1     -10.493  18.984  66.500  1.00  0.00    -0.443 A  
HETATM    9  C   UNL     1     -10.657  17.662  66.096  1.00  0.00    -0.220 A  
HETATM   10  O   UNL     1     -10.660  19.999  65.600  1.00  0.00    -0.460 OA 
HETATM   11  C   UNL     1     -10.151  19.291  67.807  1.00  0.00    -0.488 A  
HETATM   12  H   UNL     1     -11.128  18.146  64.176  1.00  0.00     0.000 HD 
HETATM   13  C   UNL     1     -10.466  16.619  66.998  1.00  0.00    -0.283 A  
HETATM   14  O   UNL     1     -10.998  17.434  64.791  1.00  0.00    -0.964 OA 
HETATM   15  C   UNL     1      -9.956  18.251  68.720  1.00  0.00    -0.391 A  
HETATM   16  H   UNL     1     -10.548  20.901  65.875  1.00  0.00     0.000 HD 
ENDBRANCH   6   7
ENDBRANCH   5   6
ENDBRANCH   3   5
ENDBRANCH   2   3
BRANCH   2  17
HETATM   17  C   UNL     1     -11.742  12.208  68.274  1.00  0.00    -0.401 C  
BRANCH  17  18
HETATM   18  C   UNL     1     -11.908  12.340  69.794  1.00  0.00    -0.388 C  
BRANCH  18  19
HETATM   19  C   UNL     1     -11.930  10.979  70.449  1.00  0.00    -0.459 A  
HETATM   20  C   UNL     1     -10.845  10.102  70.309  1.00  0.00    -0.370 A  
HETATM   21  C   UNL     1     -13.016  10.597  71.250  1.00  0.00    -0.513 A  
HETATM   22  C   UNL     1     -13.018   9.363  71.904  1.00  0.00    -0.502 A  
HETATM   23  H   UNL     1     -11.134   6.724  72.294  1.00  0.00     0.000 HD 
HETATM   24  C   UNL     1     -10.847   8.868  70.961  1.00  0.00    -0.326 A  
HETATM   25  C   UNL     1     -11.927   8.511  71.757  1.00  0.00    -0.332 A  
HETATM   26  O   UNL     1     -11.879   7.306  72.394  1.00  0.00    -0.272 OA 
ENDBRANCH  18  19
ENDBRANCH  17  18
ENDBRANCH   2  17
TORSDOF 7
ENDMDL
MODEL       55
REMARK 921   NORMALIZED FREE ENERGY PREDICTED BY IDOCK:   -5.80 KCAL/MOL
REMARK 922        TOTAL FREE ENERGY PREDICTED BY IDOCK:   -9.33 KCAL/MOL
REMARK 923 INTER-LIGAND FREE ENERGY PREDICTED BY IDOCK:   -7.61 KCAL/MOL
REMARK 924 INTRA-LIGAND FREE ENERGY PREDICTED BY IDOCK:   -1.72 KCAL/MOL
REMARK 927      BINDING AFFINITY PREDICTED BY RF-SCORE:    0.00 PKD
ROOT
HETATM    1  C   UNL     1      -6.242  13.167  68.442  1.00  0.00    -0.083 C  
HETATM    2  C   UNL     1      -7.427  14.101  68.713  1.00  0.00    -0.129 C  
ENDROOT
BRANCH   2   3
HETATM    3  N   UNL     1      -8.636  13.692  67.982  1.00  0.00    -0.166 NA 
HETATM    4  H   UNL     1      -8.467  12.817  67.485  1.00  0.00     0.000 HD 
BRANCH   3   5
HETATM    5  C   UNL     1      -9.854  13.582  68.800  1.00  0.00    -0.042 C  
BRANCH   5   6
HETATM    6  C   UNL     1     -10.977  14.539  68.381  1.00  0.00    -0.255 C  
BRANCH   6   7
HETATM    7  C   UNL     1     -11.354  14.392  66.927  1.00  0.00    -0.357 A  
HETATM    8  C   UNL     1     -12.130  14.111  64.264  1.00  0.00    -0.444 A  
HETATM    9  C   UNL     1     -11.653  15.334  64.727  1.00  0.00    -0.322 A  
HETATM   10  O   UNL     1     -12.536  13.982  62.967  1.00  0.00    -1.027 OA 
HETATM   11  C   UNL     1     -12.210  13.015  65.109  1.00  0.00    -0.507 A  
HETATM   12  H   UNL     1     -11.869  16.270  62.932  1.00  0.00     0.000 HD 
HETATM   13  C   UNL     1     -11.259  15.484  66.053  1.00  0.00    -0.107 A  
HETATM   14  O   UNL     1     -11.600  16.372  63.837  1.00  0.00    -1.100 OA 
HETATM   15  C   UNL     1     -11.817  13.156  66.443  1.00  0.00    -0.455 A  
HETATM   16  H   UNL     1     -12.863  13.147  62.651  1.00  0.00     0.000 HD 
ENDBRANCH   6   7
ENDBRANCH   5   6
ENDBRANCH   3   5
ENDBRANCH   2   3
BRANCH   2  17
HETATM   17  C   UNL     1      -7.037  15.541  68.322  1.00  0.00    -0.116 C  
BRANCH  17  18
HETATM   18  C   UNL     1      -7.762  16.615  69.144  1.00  0.00    -0.186 C  
BRANCH  18  19
HETATM   19  C   UNL     1      -8.572  17.520  68.245  1.00  0.00    -0.266 A  
HETATM   20  C   UNL     1      -8.121  17.832  66.955  1.00  0.00    -0.239 A  
HETATM   21  C   UNL     1      -9.811  18.018  68.674  1.00  0.00    -0.383 A  
HETATM   22  C   UNL     1     -10.590  18.809  67.827  1.00  0.00    -0.452 A  
HETATM   23  H   UNL     1     -10.549  20.052  64.807  1.00  0.00     0.000 HD 
HETATM   24  C   UNL     1      -8.898  18.625  66.108  1.00  0.00    -0.132 A  
HETATM   25  C   UNL     1     -10.127  19.100  66.548  1.00  0.00    -0.406 A  
HETATM   26  O   UNL     1     -10.865  19.853  65.681  1.00  0.00    -0.437 OA 
ENDBRANCH  18  19
ENDBRANCH  17  18
ENDBRANCH   2  17
TORSDOF 7
ENDMDL
MODEL       56
REMARK 921   NORMALIZED FREE ENERGY PREDICTED BY IDOCK:   -5.80 KCAL/MOL
REMARK 922        TOTAL FREE ENERGY PREDICTED BY IDOCK:   -9.33 KCAL/MOL
REMARK 923 INTER-LIGAND FREE ENERGY PREDICTED BY IDOCK:   -8.44 KCAL/MOL
REMARK 924 INTRA-LIGAND FREE ENERGY PREDICTED BY IDOCK:   -0.89 KCAL/MOL
REMARK 927      BINDING AFFINITY PREDICTED BY RF-SCORE:    0.00 PKD
ROOT
HETATM    1  C   UNL     1      -9.045  18.343  67.792  1.00  0.00    -0.288 C  
HETATM    2  C   UNL     1      -9.939  17.152  67.430  1.00  0.00    -0.280 C  
ENDROOT
BRANCH   2   3
HETATM    3  N   UNL     1     -10.230  16.302  68.595  1.00  0.00    -0.241 NA 
HETATM    4  H   UNL     1      -9.989  16.792  69.457  1.00  0.00     0.000 HD 
BRANCH   3   5
HETATM    5  C   UNL     1     -11.609  15.795  68.670  1.00  0.00    -0.386 C  
BRANCH   5   6
HETATM    6  C   UNL     1     -12.154  15.672  70.099  1.00  0.00    -0.400 C  
BRANCH   6   7
HETATM    7  C   UNL     1     -12.382  14.239  70.512  1.00  0.00    -0.430 A  
HETATM    8  C   UNL     1     -12.887  11.601  71.260  1.00  0.00    -0.328 A  
HETATM    9  C   UNL     1     -12.152  11.871  70.109  1.00  0.00    -0.302 A  
HETATM   10  O   UNL     1     -13.157  10.309  71.611  1.00  0.00    -0.395 OA 
HETATM   11  C   UNL     1     -13.362  12.631  72.058  1.00  0.00    -0.555 A  
HETATM   12  H   UNL     1     -11.892   9.910  69.631  1.00  0.00     0.000 HD 
HETATM   13  C   UNL     1     -11.890  13.184  69.729  1.00  0.00    -0.386 A  
HETATM   14  O   UNL     1     -11.713  10.806  69.372  1.00  0.00    -0.277 OA 
HETATM   15  C   UNL     1     -13.105  13.952  71.684  1.00  0.00    -0.446 A  
HETATM   16  H   UNL     1     -13.659  10.124  72.396  1.00  0.00     0.000 HD 
ENDBRANCH   6   7
ENDBRANCH   5   6
ENDBRANCH   3   5
ENDBRANCH   2   3
BRANCH   2  17
HETATM   17  C   UNL     1      -9.252  16.319  66.329  1.00  0.00    -0.363 C  
BRANCH  17  18
HETATM   18  C   UNL     1      -9.174  14.822  66.654  1.00  0.00    -0.300 C  
BRANCH  18  19
HETATM   19  C   UNL     1     -10.268  14.062  65.941  1.00  0.00    -0.332 A  
HETATM   20  C   UNL     1     -10.593  12.753  66.323  1.00  0.00    -0.275 A  
HETATM   21  C   UNL     1     -11.008  14.677  64.920  1.00  0.00    -0.419 A  
HETATM   22  C   UNL     1     -12.057  14.000  64.296  1.00  0.00    -0.476 A  
HETATM   23  H   UNL     1     -13.609  11.129  64.400  1.00  0.00     0.000 HD 
HETATM   24  C   UNL     1     -11.641  12.074  65.698  1.00  0.00    -0.356 A  
HETATM   25  C   UNL     1     -12.368  12.705  64.696  1.00  0.00    -0.476 A  
HETATM   26  O   UNL     1     -13.397  12.014  64.126  1.00  0.00    -0.725 OA 
ENDBRANCH  18  19
ENDBRANCH  17  18
ENDBRANCH   2  17
TORSDOF 7
ENDMDL
MODEL       57
REMARK 921   NORMALIZED FREE ENERGY PREDICTED BY IDOCK:   -5.79 KCAL/MOL
REMARK 922        TOTAL FREE ENERGY PREDICTED BY IDOCK:   -9.32 KCAL/MOL
REMARK 923 INTER-LIGAND FREE ENERGY PREDICTED BY IDOCK:   -7.80 KCAL/MOL
REMARK 924 INTRA-LIGAND FREE ENERGY PREDICTED BY IDOCK:   -1.51 KCAL/MOL
REMARK 927      BINDING AFFINITY PREDICTED BY RF-SCORE:    0.00 PKD
ROOT
HETATM    1  C   UNL     1      -8.815  12.027  67.231  1.00  0.00    -0.183 C  
HETATM    2  C   UNL     1      -9.883  11.135  66.588  1.00  0.00    -0.199 C  
ENDROOT
BRANCH   2   3
HETATM    3  N   UNL     1     -10.571  11.807  65.474  1.00  0.00    -0.267 NA 
HETATM    4  H   UNL     1     -10.866  11.122  64.778  1.00  0.00     0.000 HD 
BRANCH   3   5
HETATM    5  C   UNL     1     -11.710  12.654  65.863  1.00  0.00    -0.420 C  
BRANCH   5   6
HETATM    6  C   UNL     1     -11.404  14.157  65.849  1.00  0.00    -0.323 C  
BRANCH   6   7
HETATM    7  C   UNL     1     -11.437  14.770  67.228  1.00  0.00    -0.378 A  
HETATM    8  C   UNL     1     -11.445  15.843  69.801  1.00  0.00    -0.342 A  
HETATM    9  C   UNL     1     -10.869  16.553  68.751  1.00  0.00    -0.342 A  
HETATM   10  O   UNL     1     -11.424  16.357  71.066  1.00  0.00    -0.542 OA 
HETATM   11  C   UNL     1     -12.037  14.608  69.583  1.00  0.00    -0.355 A  
HETATM   12  H   UNL     1     -10.309  18.123  69.919  1.00  0.00     0.000 HD 
HETATM   13  C   UNL     1     -10.863  16.028  67.462  1.00  0.00    -0.292 A  
HETATM   14  O   UNL     1     -10.305  17.766  69.039  1.00  0.00    -0.359 OA 
HETATM   15  C   UNL     1     -12.036  14.074  68.292  1.00  0.00    -0.384 A  
HETATM   16  H   UNL     1     -11.818  15.873  71.783  1.00  0.00     0.000 HD 
ENDBRANCH   6   7
ENDBRANCH   5   6
ENDBRANCH   3   5
ENDBRANCH   2   3
BRANCH   2  17
HETATM   17  C   UNL     1     -10.906  10.713  67.662  1.00  0.00    -0.346 C  
BRANCH  17  18
HETATM   18  C   UNL     1     -10.307  10.618  69.071  1.00  0.00    -0.237 C  
BRANCH  18  19
HETATM   19  C   UNL     1     -11.357  10.187  70.070  1.00  0.00    -0.351 A  
HETATM   20  C   UNL     1     -11.408   8.861  70.522  1.00  0.00    -0.268 A  
HETATM   21  C   UNL     1     -12.260  11.122  70.595  1.00  0.00    -0.492 A  
HETATM   22  C   UNL     1     -13.195  10.742  71.559  1.00  0.00    -0.434 A  
HETATM   23  H   UNL     1     -14.128   8.112  73.256  1.00  0.00     0.000 HD 
HETATM   24  C   UNL     1     -12.344   8.480  71.485  1.00  0.00    -0.354 A  
HETATM   25  C   UNL     1     -13.224   9.423  72.000  1.00  0.00    -0.449 A  
HETATM   26  O   UNL     1     -14.109   9.013  72.955  1.00  0.00    -0.487 OA 
ENDBRANCH  18  19
ENDBRANCH  17  18
ENDBRANCH   2  17
TORSDOF 7
ENDMDL
MODEL       58
REMARK 921   NORMALIZED FREE ENERGY PREDICTED BY IDOCK:   -5.78 KCAL/MOL
REMARK 922        TOTAL FREE ENERGY PREDICTED BY IDOCK:   -9.31 KCAL/MOL
REMARK 923 INTER-LIGAND FREE ENERGY PREDICTED BY IDOCK:   -8.42 KCAL/MOL
REMARK 924 INTRA-LIGAND FREE ENERGY PREDICTED BY IDOCK:   -0.89 KCAL/MOL
REMARK 927      BINDING AFFINITY PREDICTED BY RF-SCORE:    0.00 PKD
ROOT
HETATM    1  C   UNL     1     -12.305  14.863  70.238  1.00  0.00    -0.393 C  
HETATM    2  C   UNL     1     -11.713  14.037  69.091  1.00  0.00    -0.333 C  
ENDROOT
BRANCH   2   3
HETATM    3  N   UNL     1     -12.319  14.373  67.793  1.00  0.00    -0.603 NA 
HETATM    4  H   UNL     1     -12.704  15.318  67.819  1.00  0.00     0.000 HD 
BRANCH   3   5
HETATM    5  C   UNL     1     -11.431  14.220  66.630  1.00  0.00    -0.364 C  
BRANCH   5   6
HETATM    6  C   UNL     1     -12.000  13.324  65.523  1.00  0.00    -0.445 C  
BRANCH   6   7
HETATM    7  C   UNL     1     -11.127  12.127  65.238  1.00  0.00    -0.367 A  
HETATM    8  C   UNL     1      -9.579   9.864  64.729  1.00  0.00    -0.271 A  
HETATM    9  C   UNL     1      -9.921  10.724  63.689  1.00  0.00    -0.345 A  
HETATM   10  O   UNL     1      -8.845   8.741  64.475  1.00  0.00    -0.384 OA 
HETATM   11  C   UNL     1      -9.984  10.126  66.029  1.00  0.00    -0.322 A  
HETATM   12  H   UNL     1      -8.961   9.629  62.266  1.00  0.00     0.000 HD 
HETATM   13  C   UNL     1     -10.690  11.858  63.932  1.00  0.00    -0.450 A  
HETATM   14  O   UNL     1      -9.486  10.404  62.432  1.00  0.00    -0.280 OA 
HETATM   15  C   UNL     1     -10.757  11.262  66.283  1.00  0.00    -0.312 A  
HETATM   16  H   UNL     1      -8.611   8.154  65.184  1.00  0.00     0.000 HD 
ENDBRANCH   6   7
ENDBRANCH   5   6
ENDBRANCH   3   5
ENDBRANCH   2   3
BRANCH   2  17
HETATM   17  C   UNL     1     -11.910  12.538  69.392  1.00  0.00    -0.368 C  
BRANCH  17  18
HETATM   18  C   UNL     1     -12.333  12.255  70.839  1.00  0.00    -0.363 C  
BRANCH  18  19
HETATM   19  C   UNL     1     -12.348  10.769  71.112  1.00  0.00    -0.498 A  
HETATM   20  C   UNL     1     -13.384  10.192  71.858  1.00  0.00    -0.505 A  
HETATM   21  C   UNL     1     -11.350   9.942  70.576  1.00  0.00    -0.399 A  
HETATM   22  C   UNL     1     -11.389   8.560  70.777  1.00  0.00    -0.296 A  
HETATM   23  H   UNL     1     -13.230   6.283  72.222  1.00  0.00     0.000 HD 
HETATM   24  C   UNL     1     -13.423   8.811  72.061  1.00  0.00    -0.461 A  
HETATM   25  C   UNL     1     -12.431   8.007  71.514  1.00  0.00    -0.310 A  
HETATM   26  O   UNL     1     -12.518   6.661  71.719  1.00  0.00    -0.352 OA 
ENDBRANCH  18  19
ENDBRANCH  17  18
ENDBRANCH   2  17
TORSDOF 7
ENDMDL
MODEL       59
REMARK 921   NORMALIZED FREE ENERGY PREDICTED BY IDOCK:   -5.78 KCAL/MOL
REMARK 922        TOTAL FREE ENERGY PREDICTED BY IDOCK:   -9.31 KCAL/MOL
REMARK 923 INTER-LIGAND FREE ENERGY PREDICTED BY IDOCK:   -7.11 KCAL/MOL
REMARK 924 INTRA-LIGAND FREE ENERGY PREDICTED BY IDOCK:   -2.20 KCAL/MOL
REMARK 927      BINDING AFFINITY PREDICTED BY RF-SCORE:    0.00 PKD
ROOT
HETATM    1  C   UNL     1      -6.967  16.222  69.248  1.00  0.00    -0.217 C  
HETATM    2  C   UNL     1      -8.141  15.496  68.583  1.00  0.00    -0.159 C  
ENDROOT
BRANCH   2   3
HETATM    3  N   UNL     1      -9.142  15.044  69.563  1.00  0.00    -0.438 NA 
HETATM    4  H   UNL     1      -8.991  15.507  70.459  1.00  0.00     0.000 HD 
BRANCH   3   5
HETATM    5  C   UNL     1     -10.543  15.199  69.142  1.00  0.00    -0.256 C  
BRANCH   5   6
HETATM    6  C   UNL     1     -11.191  13.904  68.634  1.00  0.00    -0.298 C  
BRANCH   6   7
HETATM    7  C   UNL     1     -11.456  13.929  67.149  1.00  0.00    -0.370 A  
HETATM    8  C   UNL     1     -12.028  13.975  64.421  1.00  0.00    -0.454 A  
HETATM    9  C   UNL     1     -11.458  15.088  65.033  1.00  0.00    -0.364 A  
HETATM   10  O   UNL     1     -12.334  14.008  63.090  1.00  0.00    -1.133 OA 
HETATM   11  C   UNL     1     -12.302  12.827  65.148  1.00  0.00    -0.555 A  
HETATM   12  H   UNL     1     -11.414  16.194  63.325  1.00  0.00     0.000 HD 
HETATM   13  C   UNL     1     -11.164  15.074  66.393  1.00  0.00    -0.310 A  
HETATM   14  O   UNL     1     -11.213  16.185  64.253  1.00  0.00    -0.660 OA 
HETATM   15  C   UNL     1     -12.011  12.804  66.515  1.00  0.00    -0.428 A  
HETATM   16  H   UNL     1     -12.723  13.249  62.672  1.00  0.00     0.000 HD 
ENDBRANCH   6   7
ENDBRANCH   5   6
ENDBRANCH   3   5
ENDBRANCH   2   3
BRANCH   2  17
HETATM   17  C   UNL     1      -7.606  14.292  67.782  1.00  0.00    -0.175 C  
BRANCH  17  18
HETATM   18  C   UNL     1      -7.446  13.020  68.626  1.00  0.00    -0.093 C  
BRANCH  18  19
HETATM   19  C   UNL     1      -8.220  11.874  68.016  1.00  0.00    -0.157 A  
HETATM   20  C   UNL     1      -8.876  10.943  68.833  1.00  0.00    -0.143 A  
HETATM   21  C   UNL     1      -8.332  11.758  66.623  1.00  0.00    -0.136 A  
HETATM   22  C   UNL     1      -9.093  10.734  66.055  1.00  0.00    -0.204 A  
HETATM   23  H   UNL     1     -10.956   8.201  66.938  1.00  0.00     0.000 HD 
HETATM   24  C   UNL     1      -9.635   9.918  68.266  1.00  0.00    -0.151 A  
HETATM   25  C   UNL     1      -9.743   9.825  66.884  1.00  0.00    -0.192 A  
HETATM   26  O   UNL     1     -10.511   8.821  66.371  1.00  0.00    -0.216 OA 
ENDBRANCH  18  19
ENDBRANCH  17  18
ENDBRANCH   2  17
TORSDOF 7
ENDMDL
MODEL       60
REMARK 921   NORMALIZED FREE ENERGY PREDICTED BY IDOCK:   -5.77 KCAL/MOL
REMARK 922        TOTAL FREE ENERGY PREDICTED BY IDOCK:   -9.29 KCAL/MOL
REMARK 923 INTER-LIGAND FREE ENERGY PREDICTED BY IDOCK:   -8.12 KCAL/MOL
REMARK 924 INTRA-LIGAND FREE ENERGY PREDICTED BY IDOCK:   -1.17 KCAL/MOL
REMARK 927      BINDING AFFINITY PREDICTED BY RF-SCORE:    0.00 PKD
ROOT
HETATM    1  C   UNL     1     -10.079   9.965  65.846  1.00  0.00    -0.316 C  
HETATM    2  C   UNL     1     -10.430  11.383  66.310  1.00  0.00    -0.255 C  
ENDROOT
BRANCH   2   3
HETATM    3  N   UNL     1      -9.616  12.406  65.633  1.00  0.00    -0.411 NA 
HETATM    4  H   UNL     1      -8.751  11.994  65.285  1.00  0.00     0.000 HD 
BRANCH   3   5
HETATM    5  C   UNL     1     -10.301  13.134  64.554  1.00  0.00    -0.368 C  
BRANCH   5   6
HETATM    6  C   UNL     1     -11.579  13.857  65.000  1.00  0.00    -0.350 C  
BRANCH   6   7
HETATM    7  C   UNL     1     -11.296  15.038  65.895  1.00  0.00    -0.273 A  
HETATM    8  C   UNL     1     -10.707  17.179  67.582  1.00  0.00    -0.302 A  
HETATM    9  C   UNL     1     -10.577  17.320  66.203  1.00  0.00    -0.204 A  
HETATM   10  O   UNL     1     -10.392  18.219  68.409  1.00  0.00    -0.372 OA 
HETATM   11  C   UNL     1     -11.146  15.986  68.135  1.00  0.00    -0.344 A  
HETATM   12  H   UNL     1      -9.939  19.250  66.308  1.00  0.00     0.000 HD 
HETATM   13  C   UNL     1     -10.873  16.260  65.352  1.00  0.00    -0.284 A  
HETATM   14  O   UNL     1     -10.141  18.527  65.727  1.00  0.00    -0.537 OA 
HETATM   15  C   UNL     1     -11.445  14.915  67.288  1.00  0.00    -0.350 A  
HETATM   16  H   UNL     1     -10.480  18.123  69.350  1.00  0.00     0.000 HD 
ENDBRANCH   6   7
ENDBRANCH   5   6
ENDBRANCH   3   5
ENDBRANCH   2   3
BRANCH   2  17
HETATM   17  C   UNL     1     -10.235  11.480  67.836  1.00  0.00    -0.200 C  
BRANCH  17  18
HETATM   18  C   UNL     1     -11.148  10.536  68.629  1.00  0.00    -0.319 C  
BRANCH  18  19
HETATM   19  C   UNL     1     -11.836  11.276  69.753  1.00  0.00    -0.437 A  
HETATM   20  C   UNL     1     -11.842  12.677  69.785  1.00  0.00    -0.379 A  
HETATM   21  C   UNL     1     -12.523  10.567  70.750  1.00  0.00    -0.472 A  
HETATM   22  C   UNL     1     -13.208  11.246  71.760  1.00  0.00    -0.480 A  
HETATM   23  H   UNL     1     -13.880  14.291  72.731  1.00  0.00     0.000 HD 
HETATM   24  C   UNL     1     -12.526  13.356  70.795  1.00  0.00    -0.418 A  
HETATM   25  C   UNL     1     -13.208  12.637  71.769  1.00  0.00    -0.359 A  
HETATM   26  O   UNL     1     -13.880  13.341  72.725  1.00  0.00    -0.690 OA 
ENDBRANCH  18  19
ENDBRANCH  17  18
ENDBRANCH   2  17
TORSDOF 7
ENDMDL
MODEL       61
REMARK 921   NORMALIZED FREE ENERGY PREDICTED BY IDOCK:   -5.75 KCAL/MOL
REMARK 922        TOTAL FREE ENERGY PREDICTED BY IDOCK:   -9.26 KCAL/MOL
REMARK 923 INTER-LIGAND FREE ENERGY PREDICTED BY IDOCK:   -8.58 KCAL/MOL
REMARK 924 INTRA-LIGAND FREE ENERGY PREDICTED BY IDOCK:   -0.69 KCAL/MOL
REMARK 927      BINDING AFFINITY PREDICTED BY RF-SCORE:    0.00 PKD
ROOT
HETATM    1  C   UNL     1     -12.166  15.366  73.143  1.00  0.00    -0.567 C  
HETATM    2  C   UNL     1     -12.793  15.627  71.769  1.00  0.00    -0.458 C  
ENDROOT
BRANCH   2   3
HETATM    3  N   UNL     1     -13.583  14.480  71.292  1.00  0.00    -0.372 NA 
HETATM    4  H   UNL     1     -13.576  14.449  70.272  1.00  0.00     0.000 HD 
BRANCH   3   5
HETATM    5  C   UNL     1     -13.185  13.175  71.841  1.00  0.00    -0.431 C  
BRANCH   5   6
HETATM    6  C   UNL     1     -12.431  12.282  70.847  1.00  0.00    -0.371 C  
BRANCH   6   7
HETATM    7  C   UNL     1     -12.511  10.818  71.205  1.00  0.00    -0.519 A  
HETATM    8  C   UNL     1     -12.724   8.106  71.815  1.00  0.00    -0.330 A  
HETATM    9  C   UNL     1     -11.632   8.574  71.090  1.00  0.00    -0.281 A  
HETATM   10  O   UNL     1     -12.842   6.773  72.090  1.00  0.00    -0.540 OA 
HETATM   11  C   UNL     1     -13.708   8.977  72.259  1.00  0.00    -0.550 A  
HETATM   12  H   UNL     1     -10.780   6.736  70.895  1.00  0.00     0.000 HD 
HETATM   13  C   UNL     1     -11.513   9.926  70.784  1.00  0.00    -0.433 A  
HETATM   14  O   UNL     1     -10.699   7.658  70.686  1.00  0.00    -0.223 OA 
HETATM   15  C   UNL     1     -13.598  10.336  71.956  1.00  0.00    -0.287 A  
HETATM   16  H   UNL     1     -13.587   6.454  72.585  1.00  0.00     0.000 HD 
ENDBRANCH   6   7
ENDBRANCH   5   6
ENDBRANCH   3   5
ENDBRANCH   2   3
BRANCH   2  17
HETATM   17  C   UNL     1     -11.677  15.956  70.757  1.00  0.00    -0.433 C  
BRANCH  17  18
HETATM   18  C   UNL     1     -12.019  15.550  69.317  1.00  0.00    -0.338 C  
BRANCH  18  19
HETATM   19  C   UNL     1     -11.040  16.163  68.342  1.00  0.00    -0.359 A  
HETATM   20  C   UNL     1     -10.272  17.276  68.709  1.00  0.00    -0.353 A  
HETATM   21  C   UNL     1     -10.853  15.592  67.075  1.00  0.00    -0.314 A  
HETATM   22  C   UNL     1      -9.910  16.119  66.191  1.00  0.00    -0.358 A  
HETATM   23  H   UNL     1      -7.688  18.506  66.017  1.00  0.00     0.000 HD 
HETATM   24  C   UNL     1      -9.330  17.805  67.824  1.00  0.00    -0.257 A  
HETATM   25  C   UNL     1      -9.152  17.220  66.578  1.00  0.00    -0.265 A  
HETATM   26  O   UNL     1      -8.206  17.755  65.752  1.00  0.00    -0.538 OA 
ENDBRANCH  18  19
ENDBRANCH  17  18
ENDBRANCH   2  17
TORSDOF 7
ENDMDL
MODEL       62
REMARK 921   NORMALIZED FREE ENERGY PREDICTED BY IDOCK:   -5.75 KCAL/MOL
REMARK 922        TOTAL FREE ENERGY PREDICTED BY IDOCK:   -9.26 KCAL/MOL
REMARK 923 INTER-LIGAND FREE ENERGY PREDICTED BY IDOCK:   -8.57 KCAL/MOL
REMARK 924 INTRA-LIGAND FREE ENERGY PREDICTED BY IDOCK:   -0.69 KCAL/MOL
REMARK 927      BINDING AFFINITY PREDICTED BY RF-SCORE:    0.00 PKD
ROOT
HETATM    1  C   UNL     1     -10.675   7.587  73.303  1.00  0.00    -0.437 C  
HETATM    2  C   UNL     1     -11.724   7.821  72.210  1.00  0.00    -0.340 C  
ENDROOT
BRANCH   2   3
HETATM    3  N   UNL     1     -12.968   8.395  72.747  1.00  0.00    -0.626 NA 
HETATM    4  H   UNL     1     -12.886   8.532  73.754  1.00  0.00     0.000 HD 
BRANCH   3   5
HETATM    5  C   UNL     1     -13.410   9.641  72.101  1.00  0.00    -0.454 C  
BRANCH   5   6
HETATM    6  C   UNL     1     -12.298  10.384  71.350  1.00  0.00    -0.500 C  
BRANCH   6   7
HETATM    7  C   UNL     1     -12.603  11.850  71.161  1.00  0.00    -0.390 A  
HETATM    8  C   UNL     1     -13.121  14.575  70.881  1.00  0.00    -0.345 A  
HETATM    9  C   UNL     1     -12.334  13.914  69.942  1.00  0.00    -0.300 A  
HETATM   10  O   UNL     1     -13.352  15.915  70.758  1.00  0.00    -0.704 OA 
HETATM   11  C   UNL     1     -13.672  13.890  71.953  1.00  0.00    -0.521 A  
HETATM   12  H   UNL     1     -12.003  15.581  68.822  1.00  0.00     0.000 HD 
HETATM   13  C   UNL     1     -12.073  12.553  70.070  1.00  0.00    -0.337 A  
HETATM   14  O   UNL     1     -11.825  14.653  68.909  1.00  0.00    -0.305 OA 
HETATM   15  C   UNL     1     -13.415  12.524  72.091  1.00  0.00    -0.523 A  
HETATM   16  H   UNL     1     -13.889  16.367  71.399  1.00  0.00     0.000 HD 
ENDBRANCH   6   7
ENDBRANCH   5   6
ENDBRANCH   3   5
ENDBRANCH   2   3
BRANCH   2  17
HETATM   17  C   UNL     1     -12.023   6.485  71.501  1.00  0.00    -0.383 C  
BRANCH  17  18
HETATM   18  C   UNL     1     -10.776   5.619  71.277  1.00  0.00    -0.312 C  
BRANCH  18  19
HETATM   19  C   UNL     1     -10.518   5.425  69.801  1.00  0.00    -0.378 A  
HETATM   20  C   UNL     1      -9.776   4.326  69.346  1.00  0.00    -0.257 A  
HETATM   21  C   UNL     1     -11.062   6.316  68.865  1.00  0.00    -0.434 A  
HETATM   22  C   UNL     1     -10.874   6.111  67.496  1.00  0.00    -0.422 A  
HETATM   23  H   UNL     1      -9.449   4.009  65.443  1.00  0.00     0.000 HD 
HETATM   24  C   UNL     1      -9.586   4.121  67.978  1.00  0.00    -0.200 A  
HETATM   25  C   UNL     1     -10.141   5.010  67.065  1.00  0.00    -0.214 A  
HETATM   26  O   UNL     1      -9.950   4.761  65.738  1.00  0.00    -0.189 OA 
ENDBRANCH  18  19
ENDBRANCH  17  18
ENDBRANCH   2  17
TORSDOF 7
ENDMDL
MODEL       63
REMARK 921   NORMALIZED FREE ENERGY PREDICTED BY IDOCK:   -5.75 KCAL/MOL
REMARK 922        TOTAL FREE ENERGY PREDICTED BY IDOCK:   -9.26 KCAL/MOL
REMARK 923 INTER-LIGAND FREE ENERGY PREDICTED BY IDOCK:   -8.20 KCAL/MOL
REMARK 924 INTRA-LIGAND FREE ENERGY PREDICTED BY IDOCK:   -1.06 KCAL/MOL
REMARK 927      BINDING AFFINITY PREDICTED BY RF-SCORE:    0.00 PKD
ROOT
HETATM    1  C   UNL     1     -10.584   7.401  73.405  1.00  0.00    -0.427 C  
HETATM    2  C   UNL     1     -11.486   7.399  72.166  1.00  0.00    -0.282 C  
ENDROOT
BRANCH   2   3
HETATM    3  N   UNL     1     -12.852   7.853  72.472  1.00  0.00    -0.547 NA 
HETATM    4  H   UNL     1     -12.969   7.961  73.480  1.00  0.00     0.000 HD 
BRANCH   3   5
HETATM    5  C   UNL     1     -13.272   9.081  71.779  1.00  0.00    -0.389 C  
BRANCH   5   6
HETATM    6  C   UNL     1     -12.142   9.785  71.016  1.00  0.00    -0.434 C  
BRANCH   6   7
HETATM    7  C   UNL     1     -12.347  11.277  70.922  1.00  0.00    -0.490 A  
HETATM    8  C   UNL     1     -12.775  14.022  70.682  1.00  0.00    -0.303 A  
HETATM    9  C   UNL     1     -13.282  13.330  71.778  1.00  0.00    -0.405 A  
HETATM   10  O   UNL     1     -13.009  15.361  70.551  1.00  0.00    -0.585 OA 
HETATM   11  C   UNL     1     -12.039  13.366  69.707  1.00  0.00    -0.374 A  
HETATM   12  H   UNL     1     -14.142  14.976  72.612  1.00  0.00     0.000 HD 
HETATM   13  C   UNL     1     -13.070  11.961  71.910  1.00  0.00    -0.474 A  
HETATM   14  O   UNL     1     -13.998  14.042  72.702  1.00  0.00    -0.654 OA 
HETATM   15  C   UNL     1     -11.822  11.992  69.831  1.00  0.00    -0.405 A  
HETATM   16  H   UNL     1     -12.664  15.833  69.802  1.00  0.00     0.000 HD 
ENDBRANCH   6   7
ENDBRANCH   5   6
ENDBRANCH   3   5
ENDBRANCH   2   3
BRANCH   2  17
HETATM   17  C   UNL     1     -11.525   5.977  71.569  1.00  0.00    -0.280 C  
BRANCH  17  18
HETATM   18  C   UNL     1     -10.278   5.626  70.746  1.00  0.00    -0.291 C  
BRANCH  18  19
HETATM   19  C   UNL     1     -10.175   6.512  69.526  1.00  0.00    -0.219 A  
HETATM   20  C   UNL     1     -10.933   6.238  68.380  1.00  0.00    -0.409 A  
HETATM   21  C   UNL     1      -9.357   7.651  69.547  1.00  0.00    -0.153 A  
HETATM   22  C   UNL     1      -9.301   8.505  68.444  1.00  0.00    -0.137 A  
HETATM   23  H   UNL     1     -10.581   8.840  65.458  1.00  0.00     0.000 HD 
HETATM   24  C   UNL     1     -10.876   7.090  67.276  1.00  0.00    -0.403 A  
HETATM   25  C   UNL     1     -10.067   8.218  67.318  1.00  0.00    -0.247 A  
HETATM   26  O   UNL     1     -10.057   9.036  66.226  1.00  0.00    -0.295 OA 
ENDBRANCH  18  19
ENDBRANCH  17  18
ENDBRANCH   2  17
TORSDOF 7
ENDMDL
MODEL       64
REMARK 921   NORMALIZED FREE ENERGY PREDICTED BY IDOCK:   -5.74 KCAL/MOL
REMARK 922        TOTAL FREE ENERGY PREDICTED BY IDOCK:   -9.25 KCAL/MOL
REMARK 923 INTER-LIGAND FREE ENERGY PREDICTED BY IDOCK:   -8.38 KCAL/MOL
REMARK 924 INTRA-LIGAND FREE ENERGY PREDICTED BY IDOCK:   -0.87 KCAL/MOL
REMARK 927      BINDING AFFINITY PREDICTED BY RF-SCORE:    0.00 PKD
ROOT
HETATM    1  C   UNL     1      -9.257   8.360  69.711  1.00  0.00    -0.157 C  
HETATM    2  C   UNL     1     -10.266   9.363  69.142  1.00  0.00    -0.202 C  
ENDROOT
BRANCH   2   3
HETATM    3  N   UNL     1     -11.557   9.313  69.847  1.00  0.00    -0.445 NA 
HETATM    4  H   UNL     1     -11.575   8.525  70.494  1.00  0.00     0.000 HD 
BRANCH   3   5
HETATM    5  C   UNL     1     -11.935  10.551  70.546  1.00  0.00    -0.342 C  
BRANCH   5   6
HETATM    6  C   UNL     1     -12.155  11.752  69.617  1.00  0.00    -0.323 C  
BRANCH   6   7
HETATM    7  C   UNL     1     -12.123  13.069  70.353  1.00  0.00    -0.391 A  
HETATM    8  C   UNL     1     -12.108  15.538  71.648  1.00  0.00    -0.401 A  
HETATM    9  C   UNL     1     -12.839  14.478  72.176  1.00  0.00    -0.339 A  
HETATM   10  O   UNL     1     -12.123  16.755  72.268  1.00  0.00    -0.499 OA 
HETATM   11  C   UNL     1     -11.366  15.381  70.487  1.00  0.00    -0.351 A  
HETATM   12  H   UNL     1     -13.538  15.549  73.759  1.00  0.00     0.000 HD 
HETATM   13  C   UNL     1     -12.850  13.240  71.540  1.00  0.00    -0.419 A  
HETATM   14  O   UNL     1     -13.546  14.705  73.326  1.00  0.00    -0.521 OA 
HETATM   15  C   UNL     1     -11.372  14.142  69.841  1.00  0.00    -0.232 A  
HETATM   16  H   UNL     1     -11.625  17.479  71.908  1.00  0.00     0.000 HD 
ENDBRANCH   6   7
ENDBRANCH   5   6
ENDBRANCH   3   5
ENDBRANCH   2   3
BRANCH   2  17
HETATM   17  C   UNL     1     -10.473   9.078  67.641  1.00  0.00    -0.324 C  
BRANCH  17  18
HETATM   18  C   UNL     1      -9.584   9.933  66.729  1.00  0.00    -0.231 C  
BRANCH  18  19
HETATM   19  C   UNL     1     -10.426  10.811  65.832  1.00  0.00    -0.270 A  
HETATM   20  C   UNL     1     -11.328  11.733  66.380  1.00  0.00    -0.361 A  
HETATM   21  C   UNL     1     -10.276  10.749  64.439  1.00  0.00    -0.432 A  
HETATM   22  C   UNL     1     -11.010  11.597  63.607  1.00  0.00    -0.507 A  
HETATM   23  H   UNL     1     -13.221  13.995  63.784  1.00  0.00     0.000 HD 
HETATM   24  C   UNL     1     -12.064  12.580  65.549  1.00  0.00    -0.481 A  
HETATM   25  C   UNL     1     -11.894  12.511  64.172  1.00  0.00    -0.411 A  
HETATM   26  O   UNL     1     -12.617  13.371  63.398  1.00  0.00    -0.738 OA 
ENDBRANCH  18  19
ENDBRANCH  17  18
ENDBRANCH   2  17
TORSDOF 7
ENDMDL
MODEL       65
REMARK 921   NORMALIZED FREE ENERGY PREDICTED BY IDOCK:   -5.74 KCAL/MOL
REMARK 922        TOTAL FREE ENERGY PREDICTED BY IDOCK:   -9.25 KCAL/MOL
REMARK 923 INTER-LIGAND FREE ENERGY PREDICTED BY IDOCK:   -8.22 KCAL/MOL
REMARK 924 INTRA-LIGAND FREE ENERGY PREDICTED BY IDOCK:   -1.03 KCAL/MOL
REMARK 927      BINDING AFFINITY PREDICTED BY RF-SCORE:    0.00 PKD
ROOT
HETATM    1  C   UNL     1     -14.406   7.669  71.622  1.00  0.00    -0.613 C  
HETATM    2  C   UNL     1     -12.900   7.950  71.566  1.00  0.00    -0.317 C  
ENDROOT
BRANCH   2   3
HETATM    3  N   UNL     1     -12.138   7.081  72.479  1.00  0.00    -0.501 NA 
HETATM    4  H   UNL     1     -12.659   6.224  72.665  1.00  0.00     0.000 HD 
BRANCH   3   5
HETATM    5  C   UNL     1     -10.773   6.758  72.039  1.00  0.00    -0.218 C  
BRANCH   5   6
HETATM    6  C   UNL     1     -10.711   5.788  70.852  1.00  0.00    -0.333 C  
BRANCH   6   7
HETATM    7  C   UNL     1     -10.479   6.491  69.537  1.00  0.00    -0.265 A  
HETATM    8  C   UNL     1     -10.132   7.807  67.104  1.00  0.00    -0.258 A  
HETATM    9  C   UNL     1      -9.617   8.358  68.274  1.00  0.00    -0.144 A  
HETATM   10  O   UNL     1      -9.985   8.466  65.916  1.00  0.00    -0.465 OA 
HETATM   11  C   UNL     1     -10.804   6.595  67.125  1.00  0.00    -0.471 A  
HETATM   12  H   UNL     1      -8.851   9.999  67.346  1.00  0.00     0.000 HD 
HETATM   13  C   UNL     1      -9.781   7.707  69.493  1.00  0.00    -0.168 A  
HETATM   14  O   UNL     1      -8.963   9.555  68.178  1.00  0.00    -0.124 OA 
HETATM   15  C   UNL     1     -10.974   5.935  68.345  1.00  0.00    -0.264 A  
HETATM   16  H   UNL     1     -10.336   8.090  65.117  1.00  0.00     0.000 HD 
ENDBRANCH   6   7
ENDBRANCH   5   6
ENDBRANCH   3   5
ENDBRANCH   2   3
BRANCH   2  17
HETATM   17  C   UNL     1     -12.646   9.430  71.913  1.00  0.00    -0.481 C  
BRANCH  17  18
HETATM   18  C   UNL     1     -12.333  10.300  70.688  1.00  0.00    -0.416 C  
BRANCH  18  19
HETATM   19  C   UNL     1     -12.592  11.758  70.988  1.00  0.00    -0.409 A  
HETATM   20  C   UNL     1     -13.402  12.131  72.069  1.00  0.00    -0.470 A  
HETATM   21  C   UNL     1     -11.980  12.758  70.217  1.00  0.00    -0.358 A  
HETATM   22  C   UNL     1     -12.170  14.107  70.523  1.00  0.00    -0.431 A  
HETATM   23  H   UNL     1     -13.716  15.998  72.690  1.00  0.00     0.000 HD 
HETATM   24  C   UNL     1     -13.594  13.480  72.374  1.00  0.00    -0.709 A  
HETATM   25  C   UNL     1     -12.972  14.455  71.605  1.00  0.00    -0.341 A  
HETATM   26  O   UNL     1     -13.169  15.760  71.951  1.00  0.00    -0.463 OA 
ENDBRANCH  18  19
ENDBRANCH  17  18
ENDBRANCH   2  17
TORSDOF 7
ENDMDL
MODEL       66
REMARK 921   NORMALIZED FREE ENERGY PREDICTED BY IDOCK:   -5.73 KCAL/MOL
REMARK 922        TOTAL FREE ENERGY PREDICTED BY IDOCK:   -9.23 KCAL/MOL
REMARK 923 INTER-LIGAND FREE ENERGY PREDICTED BY IDOCK:   -7.85 KCAL/MOL
REMARK 924 INTRA-LIGAND FREE ENERGY PREDICTED BY IDOCK:   -1.39 KCAL/MOL
REMARK 927      BINDING AFFINITY PREDICTED BY RF-SCORE:    0.00 PKD
ROOT
HETATM    1  C   UNL     1     -10.193  17.095  66.102  1.00  0.00    -0.343 C  
HETATM    2  C   UNL     1     -10.752  15.895  66.876  1.00  0.00    -0.289 C  
ENDROOT
BRANCH   2   3
HETATM    3  N   UNL     1      -9.713  15.204  67.655  1.00  0.00    -0.211 NA 
HETATM    4  H   UNL     1      -8.787  15.485  67.334  1.00  0.00     0.000 HD 
BRANCH   3   5
HETATM    5  C   UNL     1      -9.814  15.367  69.114  1.00  0.00    -0.247 C  
BRANCH   5   6
HETATM    6  C   UNL     1     -11.113  16.039  69.579  1.00  0.00    -0.333 C  
BRANCH   6   7
HETATM    7  C   UNL     1     -11.949  15.142  70.457  1.00  0.00    -0.371 A  
HETATM    8  C   UNL     1     -13.565  13.515  72.044  1.00  0.00    -0.499 A  
HETATM    9  C   UNL     1     -12.741  12.948  71.076  1.00  0.00    -0.251 A  
HETATM   10  O   UNL     1     -14.377  12.720  72.802  1.00  0.00    -0.568 OA 
HETATM   11  C   UNL     1     -13.584  14.887  72.246  1.00  0.00    -0.538 A  
HETATM   12  H   UNL     1     -13.328  11.041  71.475  1.00  0.00     0.000 HD 
HETATM   13  C   UNL     1     -11.927  13.751  70.282  1.00  0.00    -0.397 A  
HETATM   14  O   UNL     1     -12.773  11.588  70.933  1.00  0.00    -0.334 OA 
HETATM   15  C   UNL     1     -12.770  15.700  71.453  1.00  0.00    -0.535 A  
HETATM   16  H   UNL     1     -14.940  13.107  73.462  1.00  0.00     0.000 HD 
ENDBRANCH   6   7
ENDBRANCH   5   6
ENDBRANCH   3   5
ENDBRANCH   2   3
BRANCH   2  17
HETATM   17  C   UNL     1     -11.409  14.914  65.884  1.00  0.00    -0.306 C  
BRANCH  17  18
HETATM   18  C   UNL     1     -12.159  13.764  66.569  1.00  0.00    -0.483 C  
BRANCH  18  19
HETATM   19  C   UNL     1     -11.428  12.456  66.373  1.00  0.00    -0.427 A  
HETATM   20  C   UNL     1     -10.612  12.257  65.251  1.00  0.00    -0.322 A  
HETATM   21  C   UNL     1     -11.518  11.444  67.339  1.00  0.00    -0.328 A  
HETATM   22  C   UNL     1     -10.800  10.255  67.191  1.00  0.00    -0.278 A  
HETATM   23  H   UNL     1      -8.704   8.825  65.136  1.00  0.00     0.000 HD 
HETATM   24  C   UNL     1      -9.896  11.068  65.101  1.00  0.00    -0.319 A  
HETATM   25  C   UNL     1      -9.990  10.081  66.074  1.00  0.00    -0.267 A  
HETATM   26  O   UNL     1      -9.257   8.944  65.899  1.00  0.00    -0.202 OA 
ENDBRANCH  18  19
ENDBRANCH  17  18
ENDBRANCH   2  17
TORSDOF 7
ENDMDL
MODEL       67
REMARK 921   NORMALIZED FREE ENERGY PREDICTED BY IDOCK:   -5.72 KCAL/MOL
REMARK 922        TOTAL FREE ENERGY PREDICTED BY IDOCK:   -9.22 KCAL/MOL
REMARK 923 INTER-LIGAND FREE ENERGY PREDICTED BY IDOCK:   -8.36 KCAL/MOL
REMARK 924 INTRA-LIGAND FREE ENERGY PREDICTED BY IDOCK:   -0.86 KCAL/MOL
REMARK 927      BINDING AFFINITY PREDICTED BY RF-SCORE:    0.00 PKD
ROOT
HETATM    1  C   UNL     1      -7.724  11.606  66.931  1.00  0.00    -0.147 C  
HETATM    2  C   UNL     1      -8.996  11.842  67.753  1.00  0.00    -0.173 C  
ENDROOT
BRANCH   2   3
HETATM    3  N   UNL     1      -8.800  12.856  68.801  1.00  0.00    -0.379 NA 
HETATM    4  H   UNL     1      -7.820  12.887  69.081  1.00  0.00     0.000 HD 
BRANCH   3   5
HETATM    5  C   UNL     1      -9.271  14.207  68.459  1.00  0.00    -0.187 C  
BRANCH   5   6
HETATM    6  C   UNL     1     -10.795  14.322  68.320  1.00  0.00    -0.256 C  
BRANCH   6   7
HETATM    7  C   UNL     1     -11.254  14.252  66.884  1.00  0.00    -0.333 A  
HETATM    8  C   UNL     1     -12.183  14.119  64.259  1.00  0.00    -0.420 A  
HETATM    9  C   UNL     1     -11.591  15.287  64.731  1.00  0.00    -0.322 A  
HETATM   10  O   UNL     1     -12.663  14.064  62.982  1.00  0.00    -0.891 OA 
HETATM   11  C   UNL     1     -12.305  13.004  65.075  1.00  0.00    -0.526 A  
HETATM   12  H   UNL     1     -11.824  16.294  62.978  1.00  0.00     0.000 HD 
HETATM   13  C   UNL     1     -11.119  15.362  66.038  1.00  0.00    -0.233 A  
HETATM   14  O   UNL     1     -11.503  16.346  63.870  1.00  0.00    -1.063 OA 
HETATM   15  C   UNL     1     -11.835  13.071  66.389  1.00  0.00    -0.465 A  
HETATM   16  H   UNL     1     -13.068  13.267  62.659  1.00  0.00     0.000 HD 
ENDBRANCH   6   7
ENDBRANCH   5   6
ENDBRANCH   3   5
ENDBRANCH   2   3
BRANCH   2  17
HETATM   17  C   UNL     1      -9.446  10.510  68.385  1.00  0.00    -0.158 C  
BRANCH  17  18
HETATM   18  C   UNL     1     -10.751  10.623  69.184  1.00  0.00    -0.264 C  
BRANCH  18  19
HETATM   19  C   UNL     1     -10.715   9.723  70.397  1.00  0.00    -0.368 A  
HETATM   20  C   UNL     1     -11.894   9.408  71.087  1.00  0.00    -0.413 A  
HETATM   21  C   UNL     1      -9.505   9.149  70.817  1.00  0.00    -0.334 A  
HETATM   22  C   UNL     1      -9.474   8.272  71.902  1.00  0.00    -0.287 A  
HETATM   23  H   UNL     1     -11.483   6.891  74.075  1.00  0.00     0.000 HD 
HETATM   24  C   UNL     1     -11.863   8.532  72.174  1.00  0.00    -0.448 A  
HETATM   25  C   UNL     1     -10.657   7.967  72.568  1.00  0.00    -0.315 A  
HETATM   26  O   UNL     1     -10.674   7.099  73.621  1.00  0.00    -0.375 OA 
ENDBRANCH  18  19
ENDBRANCH  17  18
ENDBRANCH   2  17
TORSDOF 7
ENDMDL
MODEL       68
REMARK 921   NORMALIZED FREE ENERGY PREDICTED BY IDOCK:   -5.70 KCAL/MOL
REMARK 922        TOTAL FREE ENERGY PREDICTED BY IDOCK:   -9.20 KCAL/MOL
REMARK 923 INTER-LIGAND FREE ENERGY PREDICTED BY IDOCK:   -8.00 KCAL/MOL
REMARK 924 INTRA-LIGAND FREE ENERGY PREDICTED BY IDOCK:   -1.20 KCAL/MOL
REMARK 927      BINDING AFFINITY PREDICTED BY RF-SCORE:    0.00 PKD
ROOT
HETATM    1  C   UNL     1      -8.399  10.490  63.162  1.00  0.00    -0.146 C  
HETATM    2  C   UNL     1      -9.848  10.479  63.663  1.00  0.00    -0.293 C  
ENDROOT
BRANCH   2   3
HETATM    3  N   UNL     1     -10.685  11.466  62.963  1.00  0.00    -0.768 NA 
HETATM    4  H   UNL     1     -10.902  11.138  62.022  1.00  0.00     0.000 HD 
BRANCH   3   5
HETATM    5  C   UNL     1     -11.921  11.846  63.664  1.00  0.00    -0.476 C  
BRANCH   5   6
HETATM    6  C   UNL     1     -12.302  13.324  63.503  1.00  0.00    -0.442 C  
BRANCH   6   7
HETATM    7  C   UNL     1     -11.917  14.157  64.701  1.00  0.00    -0.459 A  
HETATM    8  C   UNL     1     -11.152  15.635  66.938  1.00  0.00    -0.181 A  
HETATM    9  C   UNL     1     -10.810  16.074  65.662  1.00  0.00    -0.266 A  
HETATM   10  O   UNL     1     -10.753  16.345  68.034  1.00  0.00    -0.311 OA 
HETATM   11  C   UNL     1     -11.889  14.475  67.116  1.00  0.00    -0.412 A  
HETATM   12  H   UNL     1      -9.824  17.725  66.328  1.00  0.00     0.000 HD 
HETATM   13  C   UNL     1     -11.190  15.346  64.538  1.00  0.00    -0.310 A  
HETATM   14  O   UNL     1     -10.083  17.229  65.561  1.00  0.00    -0.581 OA 
HETATM   15  C   UNL     1     -12.275  13.737  65.994  1.00  0.00    -0.495 A  
HETATM   16  H   UNL     1     -10.987  16.046  68.906  1.00  0.00     0.000 HD 
ENDBRANCH   6   7
ENDBRANCH   5   6
ENDBRANCH   3   5
ENDBRANCH   2   3
BRANCH   2  17
HETATM   17  C   UNL     1      -9.862  10.757  65.180  1.00  0.00    -0.333 C  
BRANCH  17  18
HETATM   18  C   UNL     1      -9.883   9.483  66.034  1.00  0.00    -0.353 C  
BRANCH  18  19
HETATM   19  C   UNL     1     -10.463   9.765  67.401  1.00  0.00    -0.319 A  
HETATM   20  C   UNL     1     -10.163   8.933  68.488  1.00  0.00    -0.223 A  
HETATM   21  C   UNL     1     -11.268  10.895  67.608  1.00  0.00    -0.379 A  
HETATM   22  C   UNL     1     -11.761  11.192  68.880  1.00  0.00    -0.406 A  
HETATM   23  H   UNL     1     -11.672  10.051  71.939  1.00  0.00     0.000 HD 
HETATM   24  C   UNL     1     -10.657   9.229  69.760  1.00  0.00    -0.244 A  
HETATM   25  C   UNL     1     -11.445  10.357  69.947  1.00  0.00    -0.297 A  
HETATM   26  O   UNL     1     -11.889  10.621  71.210  1.00  0.00    -0.302 OA 
ENDBRANCH  18  19
ENDBRANCH  17  18
ENDBRANCH   2  17
TORSDOF 7
ENDMDL
MODEL       69
REMARK 921   NORMALIZED FREE ENERGY PREDICTED BY IDOCK:   -5.68 KCAL/MOL
REMARK 922        TOTAL FREE ENERGY PREDICTED BY IDOCK:   -9.17 KCAL/MOL
REMARK 923 INTER-LIGAND FREE ENERGY PREDICTED BY IDOCK:   -8.00 KCAL/MOL
REMARK 924 INTRA-LIGAND FREE ENERGY PREDICTED BY IDOCK:   -1.17 KCAL/MOL
REMARK 927      BINDING AFFINITY PREDICTED BY RF-SCORE:    0.00 PKD
ROOT
HETATM    1  C   UNL     1      -8.393   6.793  67.845  1.00  0.00    -0.120 C  
HETATM    2  C   UNL     1      -9.841   6.689  67.355  1.00  0.00    -0.131 C  
ENDROOT
BRANCH   2   3
HETATM    3  N   UNL     1     -10.176   7.741  66.382  1.00  0.00    -0.487 NA 
HETATM    4  H   UNL     1     -11.174   7.947  66.416  1.00  0.00     0.000 HD 
BRANCH   3   5
HETATM    5  C   UNL     1      -9.397   8.982  66.511  1.00  0.00    -0.191 C  
BRANCH   5   6
HETATM    6  C   UNL     1      -9.331   9.815  65.224  1.00  0.00    -0.315 C  
BRANCH   6   7
HETATM    7  C   UNL     1     -10.341  10.936  65.205  1.00  0.00    -0.344 A  
HETATM    8  C   UNL     1     -12.268  12.950  65.146  1.00  0.00    -0.470 A  
HETATM    9  C   UNL     1     -11.710  12.553  66.358  1.00  0.00    -0.397 A  
HETATM   10  O   UNL     1     -13.231  13.918  65.121  1.00  0.00    -0.768 OA 
HETATM   11  C   UNL     1     -11.864  12.368  63.954  1.00  0.00    -0.551 A  
HETATM   12  H   UNL     1     -12.813  13.856  67.466  1.00  0.00     0.000 HD 
HETATM   13  C   UNL     1     -10.745  11.552  66.399  1.00  0.00    -0.320 A  
HETATM   14  O   UNL     1     -12.154  13.173  67.494  1.00  0.00    -0.339 OA 
HETATM   15  C   UNL     1     -10.896  11.361  63.985  1.00  0.00    -0.450 A  
HETATM   16  H   UNL     1     -13.612  14.189  64.294  1.00  0.00     0.000 HD 
ENDBRANCH   6   7
ENDBRANCH   5   6
ENDBRANCH   3   5
ENDBRANCH   2   3
BRANCH   2  17
HETATM   17  C   UNL     1     -10.793   6.769  68.566  1.00  0.00    -0.280 C  
BRANCH  17  18
HETATM   18  C   UNL     1     -10.163   7.436  69.795  1.00  0.00    -0.210 C  
BRANCH  18  19
HETATM   19  C   UNL     1     -11.030   8.570  70.292  1.00  0.00    -0.245 A  
HETATM   20  C   UNL     1     -11.931   8.369  71.346  1.00  0.00    -0.337 A  
HETATM   21  C   UNL     1     -10.905   9.852  69.736  1.00  0.00    -0.300 A  
HETATM   22  C   UNL     1     -11.662  10.916  70.228  1.00  0.00    -0.437 A  
HETATM   23  H   UNL     1     -13.894  11.563  72.523  1.00  0.00     0.000 HD 
HETATM   24  C   UNL     1     -12.691   9.433  71.837  1.00  0.00    -0.484 A  
HETATM   25  C   UNL     1     -12.545  10.697  71.280  1.00  0.00    -0.427 A  
HETATM   26  O   UNL     1     -13.291  11.713  71.804  1.00  0.00    -0.399 OA 
ENDBRANCH  18  19
ENDBRANCH  17  18
ENDBRANCH   2  17
TORSDOF 7
ENDMDL
MODEL       70
REMARK 921   NORMALIZED FREE ENERGY PREDICTED BY IDOCK:   -5.67 KCAL/MOL
REMARK 922        TOTAL FREE ENERGY PREDICTED BY IDOCK:   -9.16 KCAL/MOL
REMARK 923 INTER-LIGAND FREE ENERGY PREDICTED BY IDOCK:   -7.83 KCAL/MOL
REMARK 924 INTRA-LIGAND FREE ENERGY PREDICTED BY IDOCK:   -1.32 KCAL/MOL
REMARK 927      BINDING AFFINITY PREDICTED BY RF-SCORE:    0.00 PKD
ROOT
HETATM    1  C   UNL     1      -7.395  10.921  69.407  1.00  0.00    -0.116 C  
HETATM    2  C   UNL     1      -8.251  11.600  68.333  1.00  0.00    -0.155 C  
ENDROOT
BRANCH   2   3
HETATM    3  N   UNL     1      -8.001  11.048  66.992  1.00  0.00    -0.131 NA 
HETATM    4  H   UNL     1      -7.044  10.702  66.927  1.00  0.00     0.000 HD 
BRANCH   3   5
HETATM    5  C   UNL     1      -8.946  10.008  66.558  1.00  0.00    -0.143 C  
BRANCH   5   6
HETATM    6  C   UNL     1     -10.421  10.373  66.775  1.00  0.00    -0.287 C  
BRANCH   6   7
HETATM    7  C   UNL     1     -10.931  11.359  65.754  1.00  0.00    -0.256 A  
HETATM    8  C   UNL     1     -11.915  13.118  63.827  1.00  0.00    -0.508 A  
HETATM    9  C   UNL     1     -12.362  13.204  65.143  1.00  0.00    -0.473 A  
HETATM   10  O   UNL     1     -12.418  13.963  62.879  1.00  0.00    -1.034 OA 
HETATM   11  C   UNL     1     -10.967  12.176  63.459  1.00  0.00    -0.521 A  
HETATM   12  H   UNL     1     -13.629  14.753  64.773  1.00  0.00     0.000 HD 
HETATM   13  C   UNL     1     -11.874  12.334  66.114  1.00  0.00    -0.398 A  
HETATM   14  O   UNL     1     -13.297  14.159  65.435  1.00  0.00    -0.705 OA 
HETATM   15  C   UNL     1     -10.472  11.298  64.426  1.00  0.00    -0.407 A  
HETATM   16  H   UNL     1     -12.113  13.904  61.981  1.00  0.00     0.000 HD 
ENDBRANCH   6   7
ENDBRANCH   5   6
ENDBRANCH   3   5
ENDBRANCH   2   3
BRANCH   2  17
HETATM   17  C   UNL     1      -7.968  13.115  68.341  1.00  0.00    -0.130 C  
BRANCH  17  18
HETATM   18  C   UNL     1      -9.004  13.935  67.563  1.00  0.00    -0.197 C  
BRANCH  18  19
HETATM   19  C   UNL     1     -10.096  14.429  68.483  1.00  0.00    -0.244 A  
HETATM   20  C   UNL     1     -10.240  15.798  68.748  1.00  0.00    -0.217 A  
HETATM   21  C   UNL     1     -11.012  13.526  69.042  1.00  0.00    -0.264 A  
HETATM   22  C   UNL     1     -12.057  13.981  69.848  1.00  0.00    -0.406 A  
HETATM   23  H   UNL     1     -13.293  16.766  71.024  1.00  0.00     0.000 HD 
HETATM   24  C   UNL     1     -11.284  16.254  69.556  1.00  0.00    -0.308 A  
HETATM   25  C   UNL     1     -12.187  15.345  70.092  1.00  0.00    -0.375 A  
HETATM   26  O   UNL     1     -13.204  15.835  70.858  1.00  0.00    -0.560 OA 
ENDBRANCH  18  19
ENDBRANCH  17  18
ENDBRANCH   2  17
TORSDOF 7
ENDMDL
MODEL       71
REMARK 921   NORMALIZED FREE ENERGY PREDICTED BY IDOCK:   -5.67 KCAL/MOL
REMARK 922        TOTAL FREE ENERGY PREDICTED BY IDOCK:   -9.15 KCAL/MOL
REMARK 923 INTER-LIGAND FREE ENERGY PREDICTED BY IDOCK:   -8.04 KCAL/MOL
REMARK 924 INTRA-LIGAND FREE ENERGY PREDICTED BY IDOCK:   -1.11 KCAL/MOL
REMARK 927      BINDING AFFINITY PREDICTED BY RF-SCORE:    0.00 PKD
ROOT
HETATM    1  C   UNL     1     -10.344   9.119  67.238  1.00  0.00    -0.338 C  
HETATM    2  C   UNL     1     -10.846  10.565  67.313  1.00  0.00    -0.279 C  
ENDROOT
BRANCH   2   3
HETATM    3  N   UNL     1     -10.201  11.430  66.312  1.00  0.00    -0.225 NA 
HETATM    4  H   UNL     1      -9.334  11.003  65.985  1.00  0.00     0.000 HD 
BRANCH   3   5
HETATM    5  C   UNL     1     -11.047  11.799  65.167  1.00  0.00    -0.282 C  
BRANCH   5   6
HETATM    6  C   UNL     1     -12.180  12.773  65.514  1.00  0.00    -0.519 C  
BRANCH   6   7
HETATM    7  C   UNL     1     -11.687  14.005  66.234  1.00  0.00    -0.401 A  
HETATM    8  C   UNL     1     -10.726  16.230  67.611  1.00  0.00    -0.311 A  
HETATM    9  C   UNL     1     -10.442  16.071  66.257  1.00  0.00    -0.320 A  
HETATM   10  O   UNL     1     -10.231  17.307  68.290  1.00  0.00    -0.307 OA 
HETATM   11  C   UNL     1     -11.500  15.301  68.288  1.00  0.00    -0.359 A  
HETATM   12  H   UNL     1      -9.347  17.782  66.128  1.00  0.00     0.000 HD 
HETATM   13  C   UNL     1     -10.921  14.966  65.559  1.00  0.00    -0.355 A  
HETATM   14  O   UNL     1      -9.674  17.028  65.652  1.00  0.00    -0.543 OA 
HETATM   15  C   UNL     1     -11.984  14.188  67.596  1.00  0.00    -0.405 A  
HETATM   16  H   UNL     1     -10.424  17.416  69.214  1.00  0.00     0.000 HD 
ENDBRANCH   6   7
ENDBRANCH   5   6
ENDBRANCH   3   5
ENDBRANCH   2   3
BRANCH   2  17
HETATM   17  C   UNL     1     -10.592  11.118  68.730  1.00  0.00    -0.233 C  
BRANCH  17  18
HETATM   18  C   UNL     1     -11.787  10.944  69.676  1.00  0.00    -0.416 C  
BRANCH  18  19
HETATM   19  C   UNL     1     -11.493   9.892  70.721  1.00  0.00    -0.433 A  
HETATM   20  C   UNL     1     -10.183   9.441  70.929  1.00  0.00    -0.373 A  
HETATM   21  C   UNL     1     -12.524   9.392  71.530  1.00  0.00    -0.450 A  
HETATM   22  C   UNL     1     -12.251   8.462  72.534  1.00  0.00    -0.381 A  
HETATM   23  H   UNL     1      -9.733   6.847  73.845  1.00  0.00     0.000 HD 
HETATM   24  C   UNL     1      -9.909   8.509  71.932  1.00  0.00    -0.358 A  
HETATM   25  C   UNL     1     -10.942   8.033  72.729  1.00  0.00    -0.382 A  
HETATM   26  O   UNL     1     -10.627   7.140  73.712  1.00  0.00    -0.377 OA 
ENDBRANCH  18  19
ENDBRANCH  17  18
ENDBRANCH   2  17
TORSDOF 7
ENDMDL
MODEL       72
REMARK 921   NORMALIZED FREE ENERGY PREDICTED BY IDOCK:   -5.66 KCAL/MOL
REMARK 922        TOTAL FREE ENERGY PREDICTED BY IDOCK:   -9.13 KCAL/MOL
REMARK 923 INTER-LIGAND FREE ENERGY PREDICTED BY IDOCK:   -7.56 KCAL/MOL
REMARK 924 INTRA-LIGAND FREE ENERGY PREDICTED BY IDOCK:   -1.57 KCAL/MOL
REMARK 927      BINDING AFFINITY PREDICTED BY RF-SCORE:    0.00 PKD
ROOT
HETATM    1  C   UNL     1      -7.676  11.726  66.918  1.00  0.00    -0.129 C  
HETATM    2  C   UNL     1      -8.600  10.679  66.285  1.00  0.00    -0.153 C  
ENDROOT
BRANCH   2   3
HETATM    3  N   UNL     1      -9.088  11.097  64.961  1.00  0.00    -0.331 NA 
HETATM    4  H   UNL     1      -8.518  10.676  64.228  1.00  0.00     0.000 HD 
BRANCH   3   5
HETATM    5  C   UNL     1     -10.513  10.832  64.709  1.00  0.00    -0.265 C  
BRANCH   5   6
HETATM    6  C   UNL     1     -11.293  12.049  64.194  1.00  0.00    -0.455 C  
BRANCH   6   7
HETATM    7  C   UNL     1     -11.258  13.211  65.156  1.00  0.00    -0.317 A  
HETATM    8  C   UNL     1     -11.149  15.311  66.988  1.00  0.00    -0.305 A  
HETATM    9  C   UNL     1     -10.457  15.399  65.784  1.00  0.00    -0.355 A  
HETATM   10  O   UNL     1     -11.073  16.327  67.897  1.00  0.00    -0.332 OA 
HETATM   11  C   UNL     1     -11.913  14.193  67.287  1.00  0.00    -0.449 A  
HETATM   12  H   UNL     1      -9.690  17.241  66.185  1.00  0.00     0.000 HD 
HETATM   13  C   UNL     1     -10.508  14.359  64.860  1.00  0.00    -0.448 A  
HETATM   14  O   UNL     1      -9.724  16.532  65.554  1.00  0.00    -0.524 OA 
HETATM   15  C   UNL     1     -11.970  13.144  66.367  1.00  0.00    -0.462 A  
HETATM   16  H   UNL     1     -11.545  16.267  68.719  1.00  0.00     0.000 HD 
ENDBRANCH   6   7
ENDBRANCH   5   6
ENDBRANCH   3   5
ENDBRANCH   2   3
BRANCH   2  17
HETATM   17  C   UNL     1      -9.792  10.419  67.228  1.00  0.00    -0.214 C  
BRANCH  17  18
HETATM   18  C   UNL     1      -9.761  11.272  68.503  1.00  0.00    -0.199 C  
BRANCH  18  19
HETATM   19  C   UNL     1     -10.635  10.664  69.575  1.00  0.00    -0.265 A  
HETATM   20  C   UNL     1     -11.900  11.198  69.852  1.00  0.00    -0.439 A  
HETATM   21  C   UNL     1     -10.208   9.523  70.272  1.00  0.00    -0.312 A  
HETATM   22  C   UNL     1     -11.034   8.923  71.224  1.00  0.00    -0.363 A  
HETATM   23  H   UNL     1     -13.994   9.270  72.559  1.00  0.00     0.000 HD 
HETATM   24  C   UNL     1     -12.726  10.600  70.806  1.00  0.00    -0.468 A  
HETATM   25  C   UNL     1     -12.290   9.465  71.478  1.00  0.00    -0.370 A  
HETATM   26  O   UNL     1     -13.137   8.899  72.386  1.00  0.00    -0.407 OA 
ENDBRANCH  18  19
ENDBRANCH  17  18
ENDBRANCH   2  17
TORSDOF 7
ENDMDL
MODEL       73
REMARK 921   NORMALIZED FREE ENERGY PREDICTED BY IDOCK:   -5.65 KCAL/MOL
REMARK 922        TOTAL FREE ENERGY PREDICTED BY IDOCK:   -9.13 KCAL/MOL
REMARK 923 INTER-LIGAND FREE ENERGY PREDICTED BY IDOCK:   -8.45 KCAL/MOL
REMARK 924 INTRA-LIGAND FREE ENERGY PREDICTED BY IDOCK:   -0.68 KCAL/MOL
REMARK 927      BINDING AFFINITY PREDICTED BY RF-SCORE:    0.00 PKD
ROOT
HETATM    1  C   UNL     1     -10.736  11.471  65.610  1.00  0.00    -0.323 C  
HETATM    2  C   UNL     1     -10.419  12.677  66.501  1.00  0.00    -0.247 C  
ENDROOT
BRANCH   2   3
HETATM    3  N   UNL     1      -9.324  13.496  65.957  1.00  0.00    -0.493 NA 
HETATM    4  H   UNL     1      -9.087  13.186  65.015  1.00  0.00     0.000 HD 
BRANCH   3   5
HETATM    5  C   UNL     1      -9.565  14.947  65.967  1.00  0.00    -0.313 C  
BRANCH   5   6
HETATM    6  C   UNL     1      -9.542  15.576  67.367  1.00  0.00    -0.213 C  
BRANCH   6   7
HETATM    7  C   UNL     1      -9.608  17.083  67.329  1.00  0.00    -0.244 A  
HETATM    8  C   UNL     1      -9.647  19.869  67.236  1.00  0.00    -0.375 A  
HETATM    9  C   UNL     1     -10.373  19.129  66.306  1.00  0.00    -0.474 A  
HETATM   10  O   UNL     1      -9.645  21.233  67.172  1.00  0.00    -0.636 OA 
HETATM   11  C   UNL     1      -8.913  19.238  68.227  1.00  0.00    -0.381 A  
HETATM   12  H   UNL     1     -11.084  20.768  65.330  1.00  0.00     0.000 HD 
HETATM   13  C   UNL     1     -10.364  17.738  66.346  1.00  0.00    -0.351 A  
HETATM   14  O   UNL     1     -11.077  19.819  65.357  1.00  0.00    -0.389 OA 
HETATM   15  C   UNL     1      -8.896  17.841  68.275  1.00  0.00    -0.277 A  
HETATM   16  H   UNL     1      -9.150  21.738  67.806  1.00  0.00     0.000 HD 
ENDBRANCH   6   7
ENDBRANCH   5   6
ENDBRANCH   3   5
ENDBRANCH   2   3
BRANCH   2  17
HETATM   17  C   UNL     1     -10.055  12.182  67.915  1.00  0.00    -0.199 C  
BRANCH  17  18
HETATM   18  C   UNL     1     -11.129  11.283  68.542  1.00  0.00    -0.288 C  
BRANCH  18  19
HETATM   19  C   UNL     1     -11.835  12.000  69.669  1.00  0.00    -0.401 A  
HETATM   20  C   UNL     1     -12.399  11.278  70.730  1.00  0.00    -0.495 A  
HETATM   21  C   UNL     1     -11.889  13.401  69.691  1.00  0.00    -0.394 A  
HETATM   22  C   UNL     1     -12.491  14.071  70.758  1.00  0.00    -0.442 A  
HETATM   23  H   UNL     1     -13.992  13.449  73.591  1.00  0.00     0.000 HD 
HETATM   24  C   UNL     1     -13.003  11.948  71.796  1.00  0.00    -0.455 A  
HETATM   25  C   UNL     1     -13.038  13.336  71.805  1.00  0.00    -0.379 A  
HETATM   26  O   UNL     1     -13.618  13.951  72.876  1.00  0.00    -0.680 OA 
ENDBRANCH  18  19
ENDBRANCH  17  18
ENDBRANCH   2  17
TORSDOF 7
ENDMDL
MODEL       74
REMARK 921   NORMALIZED FREE ENERGY PREDICTED BY IDOCK:   -5.65 KCAL/MOL
REMARK 922        TOTAL FREE ENERGY PREDICTED BY IDOCK:   -9.13 KCAL/MOL
REMARK 923 INTER-LIGAND FREE ENERGY PREDICTED BY IDOCK:   -8.53 KCAL/MOL
REMARK 924 INTRA-LIGAND FREE ENERGY PREDICTED BY IDOCK:   -0.60 KCAL/MOL
REMARK 927      BINDING AFFINITY PREDICTED BY RF-SCORE:    0.00 PKD
ROOT
HETATM    1  C   UNL     1     -13.128  10.489  71.280  1.00  0.00    -0.478 C  
HETATM    2  C   UNL     1     -11.870  10.731  70.439  1.00  0.00    -0.358 C  
ENDROOT
BRANCH   2   3
HETATM    3  N   UNL     1     -12.177  10.867  69.006  1.00  0.00    -0.724 NA 
HETATM    4  H   UNL     1     -13.078  11.329  68.882  1.00  0.00     0.000 HD 
BRANCH   3   5
HETATM    5  C   UNL     1     -11.145  11.547  68.208  1.00  0.00    -0.239 C  
BRANCH   5   6
HETATM    6  C   UNL     1     -11.088  13.065  68.421  1.00  0.00    -0.292 C  
BRANCH   6   7
HETATM    7  C   UNL     1     -11.303  13.840  67.145  1.00  0.00    -0.344 A  
HETATM    8  C   UNL     1     -11.780  15.283  64.807  1.00  0.00    -0.276 A  
HETATM    9  C   UNL     1     -10.956  15.811  65.797  1.00  0.00    -0.214 A  
HETATM   10  O   UNL     1     -12.036  16.002  63.675  1.00  0.00    -1.344 OA 
HETATM   11  C   UNL     1     -12.359  14.032  64.958  1.00  0.00    -0.458 A  
HETATM   12  H   UNL     1     -10.587  17.536  64.782  1.00  0.00     0.000 HD 
HETATM   13  C   UNL     1     -10.708  15.097  66.966  1.00  0.00    -0.307 A  
HETATM   14  O   UNL     1     -10.417  17.050  65.580  1.00  0.00    -0.572 OA 
HETATM   15  C   UNL     1     -12.116  13.308  66.128  1.00  0.00    -0.477 A  
HETATM   16  H   UNL     1     -12.598  15.642  62.999  1.00  0.00     0.000 HD 
ENDBRANCH   6   7
ENDBRANCH   5   6
ENDBRANCH   3   5
ENDBRANCH   2   3
BRANCH   2  17
HETATM   17  C   UNL     1     -10.881   9.569  70.659  1.00  0.00    -0.371 C  
BRANCH  17  18
HETATM   18  C   UNL     1     -11.127   8.795  71.960  1.00  0.00    -0.441 C  
BRANCH  18  19
HETATM   19  C   UNL     1     -10.847   7.322  71.768  1.00  0.00    -0.251 A  
HETATM   20  C   UNL     1     -10.264   6.857  70.581  1.00  0.00    -0.212 A  
HETATM   21  C   UNL     1     -11.122   6.410  72.797  1.00  0.00    -0.281 A  
HETATM   22  C   UNL     1     -10.814   5.056  72.647  1.00  0.00    -0.286 A  
HETATM   23  H   UNL     1      -9.492   3.006  70.476  1.00  0.00     0.000 HD 
HETATM   24  C   UNL     1      -9.957   5.503  70.430  1.00  0.00    -0.279 A  
HETATM   25  C   UNL     1     -10.228   4.616  71.464  1.00  0.00    -0.154 A  
HETATM   26  O   UNL     1      -9.893   3.306  71.283  1.00  0.00    -0.169 OA 
ENDBRANCH  18  19
ENDBRANCH  17  18
ENDBRANCH   2  17
TORSDOF 7
ENDMDL
MODEL       75
REMARK 921   NORMALIZED FREE ENERGY PREDICTED BY IDOCK:   -5.65 KCAL/MOL
REMARK 922        TOTAL FREE ENERGY PREDICTED BY IDOCK:   -9.12 KCAL/MOL
REMARK 923 INTER-LIGAND FREE ENERGY PREDICTED BY IDOCK:   -7.92 KCAL/MOL
REMARK 924 INTRA-LIGAND FREE ENERGY PREDICTED BY IDOCK:   -1.20 KCAL/MOL
REMARK 927      BINDING AFFINITY PREDICTED BY RF-SCORE:    0.00 PKD
ROOT
HETATM    1  C   UNL     1     -12.082  12.976  63.651  1.00  0.00    -0.604 C  
HETATM    2  C   UNL     1     -11.877  13.849  64.894  1.00  0.00    -0.387 C  
ENDROOT
BRANCH   2   3
HETATM    3  N   UNL     1     -10.671  14.686  64.792  1.00  0.00    -0.558 NA 
HETATM    4  H   UNL     1     -10.133  14.429  63.964  1.00  0.00     0.000 HD 
BRANCH   3   5
HETATM    5  C   UNL     1     -10.914  16.137  64.807  1.00  0.00    -0.313 C  
BRANCH   5   6
HETATM    6  C   UNL     1     -11.035  16.736  66.214  1.00  0.00     0.149 C  
BRANCH   6   7
HETATM    7  C   UNL     1     -10.153  17.945  66.409  1.00  0.00    -0.369 A  
HETATM    8  C   UNL     1      -8.535  20.172  66.852  1.00  0.00    -0.314 A  
HETATM    9  C   UNL     1      -7.981  18.993  66.360  1.00  0.00    -0.288 A  
HETATM   10  O   UNL     1      -7.737  21.254  67.094  1.00  0.00    -0.732 OA 
HETATM   11  C   UNL     1      -9.894  20.264  67.110  1.00  0.00    -0.606 A  
HETATM   12  H   UNL     1      -6.088  19.737  66.283  1.00  0.00     0.000 HD 
HETATM   13  C   UNL     1      -8.780  17.877  66.132  1.00  0.00    -0.119 A  
HETATM   14  O   UNL     1      -6.633  18.976  66.127  1.00  0.00    -0.195 OA 
HETATM   15  C   UNL     1     -10.705  19.148  66.884  1.00  0.00    -0.515 A  
HETATM   16  H   UNL     1      -8.116  22.058  67.430  1.00  0.00     0.000 HD 
ENDBRANCH   6   7
ENDBRANCH   5   6
ENDBRANCH   3   5
ENDBRANCH   2   3
BRANCH   2  17
HETATM   17  C   UNL     1     -11.788  12.946  66.140  1.00  0.00    -0.487 C  
BRANCH  17  18
HETATM   18  C   UNL     1     -10.514  13.168  66.966  1.00  0.00    -0.248 C  
BRANCH  18  19
HETATM   19  C   UNL     1     -10.830  13.907  68.247  1.00  0.00    -0.263 A  
HETATM   20  C   UNL     1      -9.913  14.818  68.788  1.00  0.00    -0.234 A  
HETATM   21  C   UNL     1     -12.068  13.726  68.880  1.00  0.00    -0.348 A  
HETATM   22  C   UNL     1     -12.388  14.447  70.032  1.00  0.00    -0.391 A  
HETATM   23  H   UNL     1     -11.118  16.711  72.014  1.00  0.00     0.000 HD 
HETATM   24  C   UNL     1     -10.232  15.539  69.941  1.00  0.00    -0.305 A  
HETATM   25  C   UNL     1     -11.467  15.353  70.549  1.00  0.00    -0.327 A  
HETATM   26  O   UNL     1     -11.747  16.092  71.661  1.00  0.00    -0.467 OA 
ENDBRANCH  18  19
ENDBRANCH  17  18
ENDBRANCH   2  17
TORSDOF 7
ENDMDL
MODEL       76
REMARK 921   NORMALIZED FREE ENERGY PREDICTED BY IDOCK:   -5.65 KCAL/MOL
REMARK 922        TOTAL FREE ENERGY PREDICTED BY IDOCK:   -9.12 KCAL/MOL
REMARK 923 INTER-LIGAND FREE ENERGY PREDICTED BY IDOCK:   -8.67 KCAL/MOL
REMARK 924 INTRA-LIGAND FREE ENERGY PREDICTED BY IDOCK:   -0.45 KCAL/MOL
REMARK 927      BINDING AFFINITY PREDICTED BY RF-SCORE:    0.00 PKD
ROOT
HETATM    1  C   UNL     1     -14.176  14.363  71.730  1.00  0.00    -0.572 C  
HETATM    2  C   UNL     1     -12.799  14.227  71.070  1.00  0.00    -0.357 C  
ENDROOT
BRANCH   2   3
HETATM    3  N   UNL     1     -12.711  14.984  69.810  1.00  0.00    -0.608 NA 
HETATM    4  H   UNL     1     -13.530  15.581  69.701  1.00  0.00     0.000 HD 
BRANCH   3   5
HETATM    5  C   UNL     1     -11.481  15.773  69.641  1.00  0.00    -0.346 C  
BRANCH   5   6
HETATM    6  C   UNL     1     -10.957  15.813  68.200  1.00  0.00    -0.330 C  
BRANCH   6   7
HETATM    7  C   UNL     1     -10.322  17.136  67.848  1.00  0.00    -0.350 A  
HETATM    8  C   UNL     1      -9.219  19.619  67.226  1.00  0.00    -0.328 A  
HETATM    9  C   UNL     1      -8.679  18.855  68.256  1.00  0.00    -0.333 A  
HETATM   10  O   UNL     1      -8.695  20.848  66.940  1.00  0.00    -0.569 OA 
HETATM   11  C   UNL     1     -10.294  19.155  66.485  1.00  0.00    -0.526 A  
HETATM   12  H   UNL     1      -7.248  20.224  68.728  1.00  0.00     0.000 HD 
HETATM   13  C   UNL     1      -9.219  17.612  68.572  1.00  0.00    -0.281 A  
HETATM   14  O   UNL     1      -7.616  19.375  68.944  1.00  0.00    -0.355 OA 
HETATM   15  C   UNL     1     -10.844  17.908  66.796  1.00  0.00    -0.025 A  
HETATM   16  H   UNL     1      -9.064  21.370  66.237  1.00  0.00     0.000 HD 
ENDBRANCH   6   7
ENDBRANCH   5   6
ENDBRANCH   3   5
ENDBRANCH   2   3
BRANCH   2  17
HETATM   17  C   UNL     1     -12.505  12.736  70.811  1.00  0.00    -0.357 C  
BRANCH  17  18
HETATM   18  C   UNL     1     -13.084  11.804  71.884  1.00  0.00    -0.482 C  
BRANCH  18  19
HETATM   19  C   UNL     1     -12.758  10.362  71.571  1.00  0.00    -0.564 A  
HETATM   20  C   UNL     1     -11.556  10.025  70.935  1.00  0.00    -0.463 A  
HETATM   21  C   UNL     1     -13.634   9.339  71.962  1.00  0.00    -0.519 A  
HETATM   22  C   UNL     1     -13.312   8.000  71.727  1.00  0.00    -0.370 A  
HETATM   23  H   UNL     1     -10.927   6.178  70.441  1.00  0.00     0.000 HD 
HETATM   24  C   UNL     1     -11.235   8.687  70.697  1.00  0.00    -0.284 A  
HETATM   25  C   UNL     1     -12.110   7.687  71.101  1.00  0.00    -0.298 A  
HETATM   26  O   UNL     1     -11.748   6.392  70.869  1.00  0.00    -0.349 OA 
ENDBRANCH  18  19
ENDBRANCH  17  18
ENDBRANCH   2  17
TORSDOF 7
ENDMDL
MODEL       77
REMARK 921   NORMALIZED FREE ENERGY PREDICTED BY IDOCK:   -5.63 KCAL/MOL
REMARK 922        TOTAL FREE ENERGY PREDICTED BY IDOCK:   -9.10 KCAL/MOL
REMARK 923 INTER-LIGAND FREE ENERGY PREDICTED BY IDOCK:   -8.22 KCAL/MOL
REMARK 924 INTRA-LIGAND FREE ENERGY PREDICTED BY IDOCK:   -0.88 KCAL/MOL
REMARK 927      BINDING AFFINITY PREDICTED BY RF-SCORE:    0.00 PKD
ROOT
HETATM    1  C   UNL     1      -7.734   8.586  67.622  1.00  0.00    -0.102 C  
HETATM    2  C   UNL     1      -9.241   8.801  67.797  1.00  0.00    -0.134 C  
ENDROOT
BRANCH   2   3
HETATM    3  N   UNL     1      -9.923   9.025  66.512  1.00  0.00    -0.269 NA 
HETATM    4  H   UNL     1     -10.569   9.811  66.588  1.00  0.00     0.000 HD 
BRANCH   3   5
HETATM    5  C   UNL     1      -9.032   9.212  65.356  1.00  0.00    -0.207 C  
BRANCH   5   6
HETATM    6  C   UNL     1      -8.742  10.682  65.023  1.00  0.00    -0.186 C  
BRANCH   6   7
HETATM    7  C   UNL     1      -9.973  11.550  65.101  1.00  0.00    -0.304 A  
HETATM    8  C   UNL     1     -12.202  13.221  65.223  1.00  0.00    -0.448 A  
HETATM    9  C   UNL     1     -12.124  12.232  64.246  1.00  0.00    -0.412 A  
HETATM   10  O   UNL     1     -13.281  14.057  65.264  1.00  0.00    -0.782 OA 
HETATM   11  C   UNL     1     -11.189  13.379  66.156  1.00  0.00    -0.311 A  
HETATM   12  H   UNL     1     -13.915  12.708  63.405  1.00  0.00     0.000 HD 
HETATM   13  C   UNL     1     -11.018  11.390  64.179  1.00  0.00    -0.411 A  
HETATM   14  O   UNL     1     -13.161  12.133  63.359  1.00  0.00    -0.752 OA 
HETATM   15  C   UNL     1     -10.074  12.538  66.096  1.00  0.00    -0.265 A  
HETATM   16  H   UNL     1     -13.335  14.732  65.931  1.00  0.00     0.000 HD 
ENDBRANCH   6   7
ENDBRANCH   5   6
ENDBRANCH   3   5
ENDBRANCH   2   3
BRANCH   2  17
HETATM   17  C   UNL     1      -9.477  10.002  68.734  1.00  0.00    -0.162 C  
BRANCH  17  18
HETATM   18  C   UNL     1      -9.303   9.661  70.220  1.00  0.00    -0.292 C  
BRANCH  18  19
HETATM   19  C   UNL     1     -10.646   9.524  70.898  1.00  0.00    -0.395 A  
HETATM   20  C   UNL     1     -11.694  10.403  70.589  1.00  0.00    -0.444 A  
HETATM   21  C   UNL     1     -10.876   8.482  71.809  1.00  0.00    -0.374 A  
HETATM   22  C   UNL     1     -12.131   8.316  72.396  1.00  0.00    -0.430 A  
HETATM   23  H   UNL     1     -15.109   9.657  72.382  1.00  0.00     0.000 HD 
HETATM   24  C   UNL     1     -12.949  10.238  71.177  1.00  0.00    -0.503 A  
HETATM   25  C   UNL     1     -13.160   9.195  72.070  1.00  0.00    -0.429 A  
HETATM   26  O   UNL     1     -14.407   9.058  72.606  1.00  0.00    -0.603 OA 
ENDBRANCH  18  19
ENDBRANCH  17  18
ENDBRANCH   2  17
TORSDOF 7
ENDMDL
MODEL       78
REMARK 921   NORMALIZED FREE ENERGY PREDICTED BY IDOCK:   -5.63 KCAL/MOL
REMARK 922        TOTAL FREE ENERGY PREDICTED BY IDOCK:   -9.10 KCAL/MOL
REMARK 923 INTER-LIGAND FREE ENERGY PREDICTED BY IDOCK:   -8.43 KCAL/MOL
REMARK 924 INTRA-LIGAND FREE ENERGY PREDICTED BY IDOCK:   -0.66 KCAL/MOL
REMARK 927      BINDING AFFINITY PREDICTED BY RF-SCORE:    0.00 PKD
ROOT
HETATM    1  C   UNL     1      -9.588  12.864  67.942  1.00  0.00    -0.215 C  
HETATM    2  C   UNL     1     -10.852  13.539  68.486  1.00  0.00    -0.264 C  
ENDROOT
BRANCH   2   3
HETATM    3  N   UNL     1     -10.572  14.382  69.659  1.00  0.00    -0.446 NA 
HETATM    4  H   UNL     1     -10.052  13.851  70.358  1.00  0.00     0.000 HD 
BRANCH   3   5
HETATM    5  C   UNL     1      -9.880  15.647  69.367  1.00  0.00    -0.284 C  
BRANCH   5   6
HETATM    6  C   UNL     1     -10.779  16.720  68.738  1.00  0.00    -0.341 C  
BRANCH   6   7
HETATM    7  C   UNL     1     -10.004  17.933  68.283  1.00  0.00    -0.360 A  
HETATM    8  C   UNL     1      -8.618  20.220  67.497  1.00  0.00    -0.314 A  
HETATM    9  C   UNL     1      -7.955  19.202  68.177  1.00  0.00    -0.304 A  
HETATM   10  O   UNL     1      -7.944  21.352  67.137  1.00  0.00    -0.705 OA 
HETATM   11  C   UNL     1      -9.964  20.107  67.186  1.00  0.00    -0.595 A  
HETATM   12  H   UNL     1      -6.161  20.163  68.180  1.00  0.00     0.000 HD 
HETATM   13  C   UNL     1      -8.637  18.054  68.570  1.00  0.00    -0.306 A  
HETATM   14  O   UNL     1      -6.626  19.380  68.449  1.00  0.00    -0.242 OA 
HETATM   15  C   UNL     1     -10.657  18.959  67.577  1.00  0.00    -0.524 A  
HETATM   16  H   UNL     1      -8.396  22.048  66.674  1.00  0.00     0.000 HD 
ENDBRANCH   6   7
ENDBRANCH   5   6
ENDBRANCH   3   5
ENDBRANCH   2   3
BRANCH   2  17
HETATM   17  C   UNL     1     -11.888  12.456  68.850  1.00  0.00    -0.350 C  
BRANCH  17  18
HETATM   18  C   UNL     1     -12.182  12.373  70.353  1.00  0.00    -0.370 C  
BRANCH  18  19
HETATM   19  C   UNL     1     -12.195  10.935  70.817  1.00  0.00    -0.483 A  
HETATM   20  C   UNL     1     -13.171  10.484  71.716  1.00  0.00    -0.522 A  
HETATM   21  C   UNL     1     -11.258  10.021  70.312  1.00  0.00    -0.379 A  
HETATM   22  C   UNL     1     -11.299   8.679  70.693  1.00  0.00    -0.277 A  
HETATM   23  H   UNL     1     -13.040   6.652  72.571  1.00  0.00     0.000 HD 
HETATM   24  C   UNL     1     -13.211   9.142  72.100  1.00  0.00    -0.524 A  
HETATM   25  C   UNL     1     -12.281   8.250  71.581  1.00  0.00    -0.313 A  
HETATM   26  O   UNL     1     -12.369   6.944  71.965  1.00  0.00    -0.315 OA 
ENDBRANCH  18  19
ENDBRANCH  17  18
ENDBRANCH   2  17
TORSDOF 7
ENDMDL
MODEL       79
REMARK 921   NORMALIZED FREE ENERGY PREDICTED BY IDOCK:   -5.62 KCAL/MOL
REMARK 922        TOTAL FREE ENERGY PREDICTED BY IDOCK:   -9.09 KCAL/MOL
REMARK 923 INTER-LIGAND FREE ENERGY PREDICTED BY IDOCK:   -7.92 KCAL/MOL
REMARK 924 INTRA-LIGAND FREE ENERGY PREDICTED BY IDOCK:   -1.17 KCAL/MOL
REMARK 927      BINDING AFFINITY PREDICTED BY RF-SCORE:    0.00 PKD
ROOT
HETATM    1  C   UNL     1     -11.193   7.726  72.651  1.00  0.00    -0.438 C  
HETATM    2  C   UNL     1     -12.053   8.301  71.521  1.00  0.00    -0.299 C  
ENDROOT
BRANCH   2   3
HETATM    3  N   UNL     1     -11.736   7.696  70.217  1.00  0.00    -0.486 NA 
HETATM    4  H   UNL     1     -12.485   7.882  69.551  1.00  0.00     0.000 HD 
BRANCH   3   5
HETATM    5  C   UNL     1     -10.440   8.091  69.645  1.00  0.00    -0.224 C  
BRANCH   5   6
HETATM    6  C   UNL     1     -10.325   7.852  68.133  1.00  0.00    -0.249 C  
BRANCH   6   7
HETATM    7  C   UNL     1     -10.154   9.133  67.354  1.00  0.00    -0.289 A  
HETATM    8  C   UNL     1      -9.765  11.513  65.955  1.00  0.00    -0.226 A  
HETATM    9  C   UNL     1      -9.698  10.293  65.288  1.00  0.00    -0.291 A  
HETATM   10  O   UNL     1      -9.547  12.677  65.275  1.00  0.00    -0.458 OA 
HETATM   11  C   UNL     1     -10.042  11.566  67.312  1.00  0.00    -0.223 A  
HETATM   12  H   UNL     1      -9.287  11.131  63.479  1.00  0.00     0.000 HD 
HETATM   13  C   UNL     1      -9.894   9.099  65.976  1.00  0.00    -0.342 A  
HETATM   14  O   UNL     1      -9.422  10.316  63.949  1.00  0.00    -0.270 OA 
HETATM   15  C   UNL     1     -10.241  10.373  68.012  1.00  0.00    -0.199 A  
HETATM   16  H   UNL     1      -9.592  13.510  65.730  1.00  0.00     0.000 HD 
ENDBRANCH   6   7
ENDBRANCH   5   6
ENDBRANCH   3   5
ENDBRANCH   2   3
BRANCH   2  17
HETATM   17  C   UNL     1     -11.852   9.828  71.456  1.00  0.00    -0.476 C  
BRANCH  17  18
HETATM   18  C   UNL     1     -13.099  10.590  70.992  1.00  0.00    -0.419 C  
BRANCH  18  19
HETATM   19  C   UNL     1     -12.901  12.081  71.139  1.00  0.00    -0.331 A  
HETATM   20  C   UNL     1     -13.504  12.779  72.195  1.00  0.00    -0.591 A  
HETATM   21  C   UNL     1     -12.068  12.775  70.249  1.00  0.00    -0.373 A  
HETATM   22  C   UNL     1     -11.836  14.142  70.414  1.00  0.00    -0.367 A  
HETATM   23  H   UNL     1     -12.634  16.605  72.405  1.00  0.00     0.000 HD 
HETATM   24  C   UNL     1     -13.274  14.147  72.358  1.00  0.00    -0.566 A  
HETATM   25  C   UNL     1     -12.438  14.815  71.472  1.00  0.00    -0.339 A  
HETATM   26  O   UNL     1     -12.223  16.146  71.681  1.00  0.00    -0.460 OA 
ENDBRANCH  18  19
ENDBRANCH  17  18
ENDBRANCH   2  17
TORSDOF 7
ENDMDL
MODEL       80
REMARK 921   NORMALIZED FREE ENERGY PREDICTED BY IDOCK:   -5.60 KCAL/MOL
REMARK 922        TOTAL FREE ENERGY PREDICTED BY IDOCK:   -9.06 KCAL/MOL
REMARK 923 INTER-LIGAND FREE ENERGY PREDICTED BY IDOCK:   -7.71 KCAL/MOL
REMARK 924 INTRA-LIGAND FREE ENERGY PREDICTED BY IDOCK:   -1.35 KCAL/MOL
REMARK 927      BINDING AFFINITY PREDICTED BY RF-SCORE:    0.00 PKD
ROOT
HETATM    1  C   UNL     1      -7.170  12.629  67.795  1.00  0.00    -0.127 C  
HETATM    2  C   UNL     1      -8.162  13.717  68.221  1.00  0.00    -0.156 C  
ENDROOT
BRANCH   2   3
HETATM    3  N   UNL     1      -9.501  13.502  67.650  1.00  0.00    -0.215 NA 
HETATM    4  H   UNL     1      -9.494  12.692  67.031  1.00  0.00     0.000 HD 
BRANCH   3   5
HETATM    5  C   UNL     1     -10.587  13.377  68.635  1.00  0.00    -0.241 C  
BRANCH   5   6
HETATM    6  C   UNL     1     -11.484  14.617  68.738  1.00  0.00    -0.322 C  
BRANCH   6   7
HETATM    7  C   UNL     1     -11.941  14.888  70.150  1.00  0.00    -0.368 A  
HETATM    8  C   UNL     1     -12.832  15.454  72.731  1.00  0.00    -0.427 A  
HETATM    9  C   UNL     1     -13.243  14.288  72.091  1.00  0.00    -0.402 A  
HETATM   10  O   UNL     1     -13.290  15.744  73.984  1.00  0.00    -0.726 OA 
HETATM   11  C   UNL     1     -11.964  16.338  72.108  1.00  0.00    -0.575 A  
HETATM   12  H   UNL     1     -14.400  13.662  73.644  1.00  0.00     0.000 HD 
HETATM   13  C   UNL     1     -12.801  13.994  70.804  1.00  0.00    -0.355 A  
HETATM   14  O   UNL     1     -14.098  13.461  72.767  1.00  0.00    -0.715 OA 
HETATM   15  C   UNL     1     -11.516  16.051  70.816  1.00  0.00    -0.444 A  
HETATM   16  H   UNL     1     -13.010  16.540  74.421  1.00  0.00     0.000 HD 
ENDBRANCH   6   7
ENDBRANCH   5   6
ENDBRANCH   3   5
ENDBRANCH   2   3
BRANCH   2  17
HETATM   17  C   UNL     1      -7.620  15.095  67.791  1.00  0.00    -0.171 C  
BRANCH  17  18
HETATM   18  C   UNL     1      -8.059  16.239  68.714  1.00  0.00    -0.227 C  
BRANCH  18  19
HETATM   19  C   UNL     1      -8.790  17.307  67.933  1.00  0.00    -0.235 A  
HETATM   20  C   UNL     1      -9.362  17.012  66.688  1.00  0.00    -0.274 A  
HETATM   21  C   UNL     1      -8.947  18.593  68.469  1.00  0.00    -0.364 A  
HETATM   22  C   UNL     1      -9.669  19.567  67.777  1.00  0.00    -0.458 A  
HETATM   23  H   UNL     1     -11.353  19.952  65.006  1.00  0.00     0.000 HD 
HETATM   24  C   UNL     1     -10.083  17.987  65.994  1.00  0.00    -0.268 A  
HETATM   25  C   UNL     1     -10.236  19.252  66.547  1.00  0.00    -0.435 A  
HETATM   26  O   UNL     1     -10.965  20.168  65.846  1.00  0.00    -0.203 OA 
ENDBRANCH  18  19
ENDBRANCH  17  18
ENDBRANCH   2  17
TORSDOF 7
ENDMDL
MODEL       81
REMARK 921   NORMALIZED FREE ENERGY PREDICTED BY IDOCK:   -5.60 KCAL/MOL
REMARK 922        TOTAL FREE ENERGY PREDICTED BY IDOCK:   -9.05 KCAL/MOL
REMARK 923 INTER-LIGAND FREE ENERGY PREDICTED BY IDOCK:   -7.39 KCAL/MOL
REMARK 924 INTRA-LIGAND FREE ENERGY PREDICTED BY IDOCK:   -1.65 KCAL/MOL
REMARK 927      BINDING AFFINITY PREDICTED BY RF-SCORE:    0.00 PKD
ROOT
HETATM    1  C   UNL     1      -8.983  11.114  62.572  1.00  0.00    -0.347 C  
HETATM    2  C   UNL     1     -10.268  11.002  63.400  1.00  0.00    -0.346 C  
ENDROOT
BRANCH   2   3
HETATM    3  N   UNL     1     -11.195  12.115  63.141  1.00  0.00    -0.703 NA 
HETATM    4  H   UNL     1     -11.702  11.955  62.270  1.00  0.00     0.000 HD 
BRANCH   3   5
HETATM    5  C   UNL     1     -12.139  12.408  64.230  1.00  0.00    -0.433 C  
BRANCH   5   6
HETATM    6  C   UNL     1     -12.143  13.875  64.677  1.00  0.00    -0.458 C  
BRANCH   6   7
HETATM    7  C   UNL     1     -11.431  14.085  65.991  1.00  0.00    -0.340 A  
HETATM    8  C   UNL     1     -10.095  14.550  68.394  1.00  0.00    -0.241 A  
HETATM    9  C   UNL     1     -11.478  14.390  68.384  1.00  0.00    -0.301 A  
HETATM   10  O   UNL     1      -9.445  14.805  69.567  1.00  0.00    -0.409 OA 
HETATM   11  C   UNL     1      -9.362  14.463  67.220  1.00  0.00    -0.211 A  
HETATM   12  H   UNL     1     -11.675  14.648  70.393  1.00  0.00     0.000 HD 
HETATM   13  C   UNL     1     -12.154  14.153  67.191  1.00  0.00    -0.432 A  
HETATM   14  O   UNL     1     -12.137  14.487  69.579  1.00  0.00    -0.307 OA 
HETATM   15  C   UNL     1     -10.032  14.226  66.017  1.00  0.00    -0.337 A  
HETATM   16  H   UNL     1      -8.501  14.914  69.575  1.00  0.00     0.000 HD 
ENDBRANCH   6   7
ENDBRANCH   5   6
ENDBRANCH   3   5
ENDBRANCH   2   3
BRANCH   2  17
HETATM   17  C   UNL     1      -9.904  10.956  64.897  1.00  0.00    -0.339 C  
BRANCH  17  18
HETATM   18  C   UNL     1      -9.929   9.541  65.489  1.00  0.00    -0.209 C  
BRANCH  18  19
HETATM   19  C   UNL     1     -10.259   9.584  66.964  1.00  0.00    -0.321 A  
HETATM   20  C   UNL     1     -10.701  10.773  67.561  1.00  0.00    -0.312 A  
HETATM   21  C   UNL     1     -10.176   8.420  67.741  1.00  0.00    -0.283 A  
HETATM   22  C   UNL     1     -10.533   8.440  69.091  1.00  0.00    -0.218 A  
HETATM   23  H   UNL     1     -11.658  10.500  71.361  1.00  0.00     0.000 HD 
HETATM   24  C   UNL     1     -11.057  10.794  68.911  1.00  0.00    -0.307 A  
HETATM   25  C   UNL     1     -10.977   9.629  69.662  1.00  0.00    -0.229 A  
HETATM   26  O   UNL     1     -11.354   9.689  70.971  1.00  0.00    -0.312 OA 
ENDBRANCH  18  19
ENDBRANCH  17  18
ENDBRANCH   2  17
TORSDOF 7
ENDMDL
MODEL       82
REMARK 921   NORMALIZED FREE ENERGY PREDICTED BY IDOCK:   -5.59 KCAL/MOL
REMARK 922        TOTAL FREE ENERGY PREDICTED BY IDOCK:   -9.04 KCAL/MOL
REMARK 923 INTER-LIGAND FREE ENERGY PREDICTED BY IDOCK:   -7.07 KCAL/MOL
REMARK 924 INTRA-LIGAND FREE ENERGY PREDICTED BY IDOCK:   -1.97 KCAL/MOL
REMARK 927      BINDING AFFINITY PREDICTED BY RF-SCORE:    0.00 PKD
ROOT
HETATM    1  C   UNL     1     -12.902  11.866  63.553  1.00  0.00    -0.435 C  
HETATM    2  C   UNL     1     -11.926  13.046  63.512  1.00  0.00    -0.545 C  
ENDROOT
BRANCH   2   3
HETATM    3  N   UNL     1     -10.537  12.612  63.297  1.00  0.00    -0.551 NA 
HETATM    4  H   UNL     1      -9.921  13.053  63.980  1.00  0.00     0.000 HD 
BRANCH   3   5
HETATM    5  C   UNL     1     -10.331  11.155  63.296  1.00  0.00    -0.308 C  
BRANCH   5   6
HETATM    6  C   UNL     1      -9.066  10.701  64.037  1.00  0.00    -0.246 C  
BRANCH   6   7
HETATM    7  C   UNL     1      -9.239  10.702  65.536  1.00  0.00    -0.228 A  
HETATM    8  C   UNL     1      -9.605  10.772  68.299  1.00  0.00    -0.166 A  
HETATM    9  C   UNL     1     -10.165   9.743  67.547  1.00  0.00    -0.220 A  
HETATM   10  O   UNL     1      -9.809  10.821  69.649  1.00  0.00    -0.432 OA 
HETATM   11  C   UNL     1      -8.847  11.762  67.694  1.00  0.00    -0.162 A  
HETATM   12  H   UNL     1     -11.023   8.831  69.152  1.00  0.00     0.000 HD 
HETATM   13  C   UNL     1      -9.985   9.696  66.168  1.00  0.00    -0.346 A  
HETATM   14  O   UNL     1     -10.900   8.799  68.211  1.00  0.00    -0.111 OA 
HETATM   15  C   UNL     1      -8.661  11.724  66.310  1.00  0.00    -0.062 A  
HETATM   16  H   UNL     1      -9.427  11.523  70.162  1.00  0.00     0.000 HD 
ENDBRANCH   6   7
ENDBRANCH   5   6
ENDBRANCH   3   5
ENDBRANCH   2   3
BRANCH   2  17
HETATM   17  C   UNL     1     -12.033  13.839  64.831  1.00  0.00    -0.412 C  
BRANCH  17  18
HETATM   18  C   UNL     1     -12.092  12.946  66.077  1.00  0.00    -0.484 C  
BRANCH  18  19
HETATM   19  C   UNL     1     -11.864  13.760  67.329  1.00  0.00    -0.436 A  
HETATM   20  C   UNL     1     -11.328  15.053  67.251  1.00  0.00    -0.337 A  
HETATM   21  C   UNL     1     -12.234  13.249  68.582  1.00  0.00    -0.115 A  
HETATM   22  C   UNL     1     -12.078  14.018  69.737  1.00  0.00    -0.405 A  
HETATM   23  H   UNL     1     -11.040  16.972  70.668  1.00  0.00     0.000 HD 
HETATM   24  C   UNL     1     -11.170  15.822  68.406  1.00  0.00    -0.362 A  
HETATM   25  C   UNL     1     -11.551  15.302  69.636  1.00  0.00    -0.321 A  
HETATM   26  O   UNL     1     -11.399  16.095  70.736  1.00  0.00    -0.385 OA 
ENDBRANCH  18  19
ENDBRANCH  17  18
ENDBRANCH   2  17
TORSDOF 7
ENDMDL
MODEL       83
REMARK 921   NORMALIZED FREE ENERGY PREDICTED BY IDOCK:   -5.59 KCAL/MOL
REMARK 922        TOTAL FREE ENERGY PREDICTED BY IDOCK:   -9.04 KCAL/MOL
REMARK 923 INTER-LIGAND FREE ENERGY PREDICTED BY IDOCK:   -7.83 KCAL/MOL
REMARK 924 INTRA-LIGAND FREE ENERGY PREDICTED BY IDOCK:   -1.20 KCAL/MOL
REMARK 927      BINDING AFFINITY PREDICTED BY RF-SCORE:    0.00 PKD
ROOT
HETATM    1  C   UNL     1      -7.616  14.138  67.729  1.00  0.00    -0.175 C  
HETATM    2  C   UNL     1      -8.777  14.716  68.545  1.00  0.00    -0.176 C  
ENDROOT
BRANCH   2   3
HETATM    3  N   UNL     1      -9.693  13.669  69.026  1.00  0.00    -0.411 NA 
HETATM    4  H   UNL     1     -10.661  13.960  68.891  1.00  0.00     0.000 HD 
BRANCH   3   5
HETATM    5  C   UNL     1      -9.478  12.336  68.444  1.00  0.00    -0.175 C  
BRANCH   5   6
HETATM    6  C   UNL     1     -10.773  11.571  68.139  1.00  0.00    -0.242 C  
BRANCH   6   7
HETATM    7  C   UNL     1     -11.436  11.031  69.382  1.00  0.00    -0.364 A  
HETATM    8  C   UNL     1     -12.584  10.020  71.713  1.00  0.00    -0.409 A  
HETATM    9  C   UNL     1     -12.720  11.369  71.397  1.00  0.00    -0.384 A  
HETATM   10  O   UNL     1     -13.123   9.532  72.869  1.00  0.00    -0.418 OA 
HETATM   11  C   UNL     1     -11.897   9.159  70.872  1.00  0.00    -0.327 A  
HETATM   12  H   UNL     1     -13.798  11.809  73.066  1.00  0.00     0.000 HD 
HETATM   13  C   UNL     1     -12.154  11.883  70.234  1.00  0.00    -0.409 A  
HETATM   14  O   UNL     1     -13.413  12.160  72.273  1.00  0.00    -0.491 OA 
HETATM   15  C   UNL     1     -11.325   9.666  69.702  1.00  0.00    -0.113 A  
HETATM   16  H   UNL     1     -13.031   8.611  73.085  1.00  0.00     0.000 HD 
ENDBRANCH   6   7
ENDBRANCH   5   6
ENDBRANCH   3   5
ENDBRANCH   2   3
BRANCH   2  17
HETATM   17  C   UNL     1      -9.547  15.734  67.681  1.00  0.00    -0.220 C  
BRANCH  17  18
HETATM   18  C   UNL     1      -9.384  15.503  66.174  1.00  0.00    -0.380 C  
BRANCH  18  19
HETATM   19  C   UNL     1     -10.449  14.562  65.659  1.00  0.00    -0.351 A  
HETATM   20  C   UNL     1     -11.735  14.567  66.217  1.00  0.00    -0.364 A  
HETATM   21  C   UNL     1     -10.176  13.708  64.580  1.00  0.00    -0.338 A  
HETATM   22  C   UNL     1     -11.172  12.877  64.063  1.00  0.00    -0.458 A  
HETATM   23  H   UNL     1     -14.320  12.140  64.525  1.00  0.00     0.000 HD 
HETATM   24  C   UNL     1     -12.730  13.735  65.702  1.00  0.00    -0.523 A  
HETATM   25  C   UNL     1     -12.444  12.903  64.627  1.00  0.00    -0.434 A  
HETATM   26  O   UNL     1     -13.451  12.122  64.141  1.00  0.00    -0.671 OA 
ENDBRANCH  18  19
ENDBRANCH  17  18
ENDBRANCH   2  17
TORSDOF 7
ENDMDL
MODEL       84
REMARK 921   NORMALIZED FREE ENERGY PREDICTED BY IDOCK:   -5.57 KCAL/MOL
REMARK 922        TOTAL FREE ENERGY PREDICTED BY IDOCK:   -9.02 KCAL/MOL
REMARK 923 INTER-LIGAND FREE ENERGY PREDICTED BY IDOCK:   -7.99 KCAL/MOL
REMARK 924 INTRA-LIGAND FREE ENERGY PREDICTED BY IDOCK:   -1.03 KCAL/MOL
REMARK 927      BINDING AFFINITY PREDICTED BY RF-SCORE:    0.00 PKD
ROOT
HETATM    1  C   UNL     1      -7.505  11.865  68.501  1.00  0.00    -0.117 C  
HETATM    2  C   UNL     1      -8.555  10.792  68.813  1.00  0.00    -0.156 C  
ENDROOT
BRANCH   2   3
HETATM    3  N   UNL     1      -9.842  11.376  69.221  1.00  0.00    -0.413 NA 
HETATM    4  H   UNL     1      -9.771  12.393  69.256  1.00  0.00     0.000 HD 
BRANCH   3   5
HETATM    5  C   UNL     1     -10.997  10.977  68.401  1.00  0.00    -0.230 C  
BRANCH   5   6
HETATM    6  C   UNL     1     -10.628  10.510  66.986  1.00  0.00    -0.310 C  
BRANCH   6   7
HETATM    7  C   UNL     1     -11.092  11.470  65.918  1.00  0.00    -0.274 A  
HETATM    8  C   UNL     1     -11.990  13.179  63.907  1.00  0.00    -0.488 A  
HETATM    9  C   UNL     1     -12.459  13.327  65.210  1.00  0.00    -0.489 A  
HETATM   10  O   UNL     1     -12.452  13.999  62.917  1.00  0.00    -1.028 OA 
HETATM   11  C   UNL     1     -11.062  12.198  63.594  1.00  0.00    -0.528 A  
HETATM   12  H   UNL     1     -13.676  14.895  64.756  1.00  0.00     0.000 HD 
HETATM   13  C   UNL     1     -12.014  12.483  66.222  1.00  0.00    -0.410 A  
HETATM   14  O   UNL     1     -13.372  14.318  65.447  1.00  0.00    -0.649 OA 
HETATM   15  C   UNL     1     -10.610  11.344  64.603  1.00  0.00    -0.380 A  
HETATM   16  H   UNL     1     -12.133  13.898  62.028  1.00  0.00     0.000 HD 
ENDBRANCH   6   7
ENDBRANCH   5   6
ENDBRANCH   3   5
ENDBRANCH   2   3
BRANCH   2  17
HETATM   17  C   UNL     1      -8.020   9.866  69.924  1.00  0.00    -0.193 C  
BRANCH  17  18
HETATM   18  C   UNL     1      -8.368   8.388  69.708  1.00  0.00    -0.125 C  
BRANCH  18  19
HETATM   19  C   UNL     1      -9.741   8.076  70.257  1.00  0.00    -0.175 A  
HETATM   20  C   UNL     1     -10.541   7.091  69.661  1.00  0.00    -0.253 A  
HETATM   21  C   UNL     1     -10.210   8.735  71.403  1.00  0.00    -0.350 A  
HETATM   22  C   UNL     1     -11.454   8.412  71.949  1.00  0.00    -0.384 A  
HETATM   23  H   UNL     1     -13.970   6.391  71.446  1.00  0.00     0.000 HD 
HETATM   24  C   UNL     1     -11.786   6.769  70.205  1.00  0.00    -0.397 A  
HETATM   25  C   UNL     1     -12.229   7.425  71.346  1.00  0.00    -0.342 A  
HETATM   26  O   UNL     1     -13.441   7.065  71.857  1.00  0.00    -0.301 OA 
ENDBRANCH  18  19
ENDBRANCH  17  18
ENDBRANCH   2  17
TORSDOF 7
ENDMDL
MODEL       85
REMARK 921   NORMALIZED FREE ENERGY PREDICTED BY IDOCK:   -5.57 KCAL/MOL
REMARK 922        TOTAL FREE ENERGY PREDICTED BY IDOCK:   -9.01 KCAL/MOL
REMARK 923 INTER-LIGAND FREE ENERGY PREDICTED BY IDOCK:   -7.12 KCAL/MOL
REMARK 924 INTRA-LIGAND FREE ENERGY PREDICTED BY IDOCK:   -1.90 KCAL/MOL
REMARK 927      BINDING AFFINITY PREDICTED BY RF-SCORE:    0.00 PKD
ROOT
HETATM    1  C   UNL     1     -11.905  15.215  68.715  1.00  0.00    -0.329 C  
HETATM    2  C   UNL     1     -11.021  14.086  69.260  1.00  0.00    -0.206 C  
ENDROOT
BRANCH   2   3
HETATM    3  N   UNL     1      -9.591  14.429  69.213  1.00  0.00    -0.411 NA 
HETATM    4  H   UNL     1      -9.189  14.389  70.149  1.00  0.00     0.000 HD 
BRANCH   3   5
HETATM    5  C   UNL     1      -8.786  13.623  68.281  1.00  0.00    -0.179 C  
BRANCH   5   6
HETATM    6  C   UNL     1      -7.980  14.452  67.273  1.00  0.00    -0.204 C  
BRANCH   6   7
HETATM    7  C   UNL     1      -8.759  15.626  66.731  1.00  0.00    -0.306 A  
HETATM    8  C   UNL     1     -10.267  17.765  65.770  1.00  0.00    -0.136 A  
HETATM    9  C   UNL     1      -9.245  17.989  66.689  1.00  0.00    -0.284 A  
HETATM   10  O   UNL     1     -11.023  18.810  65.321  1.00  0.00    -0.531 OA 
HETATM   11  C   UNL     1     -10.538  16.487  65.307  1.00  0.00    -0.273 A  
HETATM   12  H   UNL     1      -9.552  19.999  66.771  1.00  0.00     0.000 HD 
HETATM   13  C   UNL     1      -8.484  16.928  67.172  1.00  0.00    -0.218 A  
HETATM   14  O   UNL     1      -9.033  19.276  67.101  1.00  0.00    -0.286 OA 
HETATM   15  C   UNL     1      -9.779  15.416  65.786  1.00  0.00    -0.385 A  
HETATM   16  H   UNL     1     -11.721  18.658  64.694  1.00  0.00     0.000 HD 
ENDBRANCH   6   7
ENDBRANCH   5   6
ENDBRANCH   3   5
ENDBRANCH   2   3
BRANCH   2  17
HETATM   17  C   UNL     1     -11.283  12.801  68.449  1.00  0.00    -0.313 C  
BRANCH  17  18
HETATM   18  C   UNL     1     -12.151  13.030  67.205  1.00  0.00    -0.325 C  
BRANCH  18  19
HETATM   19  C   UNL     1     -11.523  12.387  65.990  1.00  0.00    -0.431 A  
HETATM   20  C   UNL     1     -10.472  11.471  66.131  1.00  0.00    -0.296 A  
HETATM   21  C   UNL     1     -12.022  12.661  64.708  1.00  0.00    -0.458 A  
HETATM   22  C   UNL     1     -11.484  12.028  63.586  1.00  0.00    -0.556 A  
HETATM   23  H   UNL     1      -9.195   9.837  62.794  1.00  0.00     0.000 HD 
HETATM   24  C   UNL     1      -9.932  10.838  65.009  1.00  0.00    -0.361 A  
HETATM   25  C   UNL     1     -10.446  11.116  63.749  1.00  0.00    -0.381 A  
HETATM   26  O   UNL     1      -9.904  10.460  62.682  1.00  0.00    -0.249 OA 
ENDBRANCH  18  19
ENDBRANCH  17  18
ENDBRANCH   2  17
TORSDOF 7
ENDMDL
MODEL       86
REMARK 921   NORMALIZED FREE ENERGY PREDICTED BY IDOCK:   -5.57 KCAL/MOL
REMARK 922        TOTAL FREE ENERGY PREDICTED BY IDOCK:   -9.01 KCAL/MOL
REMARK 923 INTER-LIGAND FREE ENERGY PREDICTED BY IDOCK:   -8.63 KCAL/MOL
REMARK 924 INTRA-LIGAND FREE ENERGY PREDICTED BY IDOCK:   -0.38 KCAL/MOL
REMARK 927      BINDING AFFINITY PREDICTED BY RF-SCORE:    0.00 PKD
ROOT
HETATM    1  C   UNL     1     -12.947  11.156  71.247  1.00  0.00    -0.457 C  
HETATM    2  C   UNL     1     -11.859  11.031  70.175  1.00  0.00    -0.357 C  
ENDROOT
BRANCH   2   3
HETATM    3  N   UNL     1     -12.402  10.591  68.880  1.00  0.00    -0.735 NA 
HETATM    4  H   UNL     1     -13.422  10.617  68.900  1.00  0.00     0.000 HD 
BRANCH   3   5
HETATM    5  C   UNL     1     -11.899  11.326  67.710  1.00  0.00    -0.084 C  
BRANCH   5   6
HETATM    6  C   UNL     1     -11.181  12.637  68.056  1.00  0.00    -0.308 C  
BRANCH   6   7
HETATM    7  C   UNL     1     -11.213  13.634  66.924  1.00  0.00    -0.326 A  
HETATM    8  C   UNL     1     -11.345  15.504  64.860  1.00  0.00    -0.335 A  
HETATM    9  C   UNL     1     -10.377  15.628  65.853  1.00  0.00    -0.350 A  
HETATM   10  O   UNL     1     -11.427  16.436  63.866  1.00  0.00    -1.569 OA 
HETATM   11  C   UNL     1     -12.242  14.447  64.871  1.00  0.00    -0.440 A  
HETATM   12  H   UNL     1      -9.577  17.330  65.074  1.00  0.00     0.000 HD 
HETATM   13  C   UNL     1     -10.299  14.697  66.885  1.00  0.00    -0.264 A  
HETATM   14  O   UNL     1      -9.524  16.695  65.778  1.00  0.00    -0.495 OA 
HETATM   15  C   UNL     1     -12.172  13.508  65.903  1.00  0.00    -0.507 A  
HETATM   16  H   UNL     1     -12.088  16.352  63.188  1.00  0.00     0.000 HD 
ENDBRANCH   6   7
ENDBRANCH   5   6
ENDBRANCH   3   5
ENDBRANCH   2   3
BRANCH   2  17
HETATM   17  C   UNL     1     -10.782  10.039  70.660  1.00  0.00    -0.325 C  
BRANCH  17  18
HETATM   18  C   UNL     1      -9.704   9.746  69.608  1.00  0.00    -0.242 C  
BRANCH  18  19
HETATM   19  C   UNL     1     -10.066   8.523  68.798  1.00  0.00    -0.210 A  
HETATM   20  C   UNL     1      -9.770   8.461  67.429  1.00  0.00    -0.222 A  
HETATM   21  C   UNL     1     -10.656   7.412  69.419  1.00  0.00    -0.231 A  
HETATM   22  C   UNL     1     -10.941   6.258  68.687  1.00  0.00    -0.423 A  
HETATM   23  H   UNL     1     -10.664   5.071  65.657  1.00  0.00     0.000 HD 
HETATM   24  C   UNL     1     -10.056   7.308  66.696  1.00  0.00    -0.238 A  
HETATM   25  C   UNL     1     -10.632   6.215  67.331  1.00  0.00    -0.281 A  
HETATM   26  O   UNL     1     -10.876   5.100  66.583  1.00  0.00    -0.230 OA 
ENDBRANCH  18  19
ENDBRANCH  17  18
ENDBRANCH   2  17
TORSDOF 7
ENDMDL
MODEL       87
REMARK 921   NORMALIZED FREE ENERGY PREDICTED BY IDOCK:   -5.55 KCAL/MOL
REMARK 922        TOTAL FREE ENERGY PREDICTED BY IDOCK:   -8.99 KCAL/MOL
REMARK 923 INTER-LIGAND FREE ENERGY PREDICTED BY IDOCK:   -7.80 KCAL/MOL
REMARK 924 INTRA-LIGAND FREE ENERGY PREDICTED BY IDOCK:   -1.19 KCAL/MOL
REMARK 927      BINDING AFFINITY PREDICTED BY RF-SCORE:    0.00 PKD
ROOT
HETATM    1  C   UNL     1      -6.928  14.142  68.160  1.00  0.00    -0.126 C  
HETATM    2  C   UNL     1      -8.453  14.297  68.144  1.00  0.00    -0.167 C  
ENDROOT
BRANCH   2   3
HETATM    3  N   UNL     1      -9.140  13.081  68.609  1.00  0.00    -0.389 NA 
HETATM    4  H   UNL     1     -10.147  13.235  68.638  1.00  0.00     0.000 HD 
BRANCH   3   5
HETATM    5  C   UNL     1      -8.837  11.862  67.843  1.00  0.00    -0.172 C  
BRANCH   5   6
HETATM    6  C   UNL     1     -10.079  11.129  67.318  1.00  0.00    -0.218 C  
BRANCH   6   7
HETATM    7  C   UNL     1     -10.663  11.782  66.089  1.00  0.00    -0.320 A  
HETATM    8  C   UNL     1     -11.770  12.912  63.793  1.00  0.00    -0.492 A  
HETATM    9  C   UNL     1     -12.316  13.194  65.043  1.00  0.00    -0.459 A  
HETATM   10  O   UNL     1     -12.330  13.444  62.667  1.00  0.00    -0.715 OA 
HETATM   11  C   UNL     1     -10.664  12.085  63.672  1.00  0.00    -0.506 A  
HETATM   12  H   UNL     1     -13.779  14.399  64.300  1.00  0.00     0.000 HD 
HETATM   13  C   UNL     1     -11.769  12.639  66.195  1.00  0.00    -0.461 A  
HETATM   14  O   UNL     1     -13.406  14.020  65.087  1.00  0.00    -0.703 OA 
HETATM   15  C   UNL     1     -10.108  11.522  64.824  1.00  0.00    -0.316 A  
HETATM   16  H   UNL     1     -11.957  13.251  61.814  1.00  0.00     0.000 HD 
ENDBRANCH   6   7
ENDBRANCH   5   6
ENDBRANCH   3   5
ENDBRANCH   2   3
BRANCH   2  17
HETATM   17  C   UNL     1      -8.913  14.649  66.715  1.00  0.00    -0.283 C  
BRANCH  17  18
HETATM   18  C   UNL     1      -9.989  15.741  66.672  1.00  0.00    -0.268 C  
BRANCH  18  19
HETATM   19  C   UNL     1      -9.363  17.113  66.768  1.00  0.00    -0.268 A  
HETATM   20  C   UNL     1     -10.033  18.158  67.418  1.00  0.00    -0.329 A  
HETATM   21  C   UNL     1      -8.079  17.342  66.252  1.00  0.00    -0.298 A  
HETATM   22  C   UNL     1      -7.472  18.592  66.387  1.00  0.00    -0.279 A  
HETATM   23  H   UNL     1      -8.051  21.542  67.662  1.00  0.00     0.000 HD 
HETATM   24  C   UNL     1      -9.427  19.409  67.552  1.00  0.00    -0.395 A  
HETATM   25  C   UNL     1      -8.151  19.614  67.042  1.00  0.00    -0.285 A  
HETATM   26  O   UNL     1      -7.587  20.844  67.214  1.00  0.00    -0.353 OA 
ENDBRANCH  18  19
ENDBRANCH  17  18
ENDBRANCH   2  17
TORSDOF 7
ENDMDL
MODEL       88
REMARK 921   NORMALIZED FREE ENERGY PREDICTED BY IDOCK:   -5.54 KCAL/MOL
REMARK 922        TOTAL FREE ENERGY PREDICTED BY IDOCK:   -8.97 KCAL/MOL
REMARK 923 INTER-LIGAND FREE ENERGY PREDICTED BY IDOCK:   -7.46 KCAL/MOL
REMARK 924 INTRA-LIGAND FREE ENERGY PREDICTED BY IDOCK:   -1.51 KCAL/MOL
REMARK 927      BINDING AFFINITY PREDICTED BY RF-SCORE:    0.00 PKD
ROOT
HETATM    1  C   UNL     1     -10.248  10.445  65.354  1.00  0.00    -0.329 C  
HETATM    2  C   UNL     1     -10.119   9.832  66.753  1.00  0.00    -0.231 C  
ENDROOT
BRANCH   2   3
HETATM    3  N   UNL     1     -10.367   8.381  66.749  1.00  0.00    -0.310 NA 
HETATM    4  H   UNL     1     -10.659   8.077  65.821  1.00  0.00     0.000 HD 
BRANCH   3   5
HETATM    5  C   UNL     1      -9.246   7.555  67.223  1.00  0.00    -0.131 C  
BRANCH   5   6
HETATM    6  C   UNL     1      -9.674   6.339  68.055  1.00  0.00    -0.122 C  
BRANCH   6   7
HETATM    7  C   UNL     1     -10.207   6.722  69.414  1.00  0.00    -0.204 A  
HETATM    8  C   UNL     1     -11.206   7.349  71.940  1.00  0.00    -0.247 A  
HETATM    9  C   UNL     1      -9.861   7.560  71.650  1.00  0.00    -0.161 A  
HETATM   10  O   UNL     1     -11.688   7.630  73.187  1.00  0.00    -0.615 OA 
HETATM   11  C   UNL     1     -12.069   6.844  70.980  1.00  0.00    -0.429 A  
HETATM   12  H   UNL     1      -9.414   8.270  73.504  1.00  0.00     0.000 HD 
HETATM   13  C   UNL     1      -9.353   7.255  70.390  1.00  0.00    -0.158 A  
HETATM   14  O   UNL     1      -9.067   8.062  72.645  1.00  0.00    -0.179 OA 
HETATM   15  C   UNL     1     -11.568   6.534  69.713  1.00  0.00    -0.392 A  
HETATM   16  H   UNL     1     -12.605   7.486  73.386  1.00  0.00     0.000 HD 
ENDBRANCH   6   7
ENDBRANCH   5   6
ENDBRANCH   3   5
ENDBRANCH   2   3
BRANCH   2  17
HETATM   17  C   UNL     1     -11.107  10.533  67.707  1.00  0.00    -0.382 C  
BRANCH  17  18
HETATM   18  C   UNL     1     -10.769  10.334  69.190  1.00  0.00    -0.259 C  
BRANCH  18  19
HETATM   19  C   UNL     1     -11.676  11.172  70.062  1.00  0.00    -0.438 A  
HETATM   20  C   UNL     1     -12.471  10.572  71.047  1.00  0.00    -0.501 A  
HETATM   21  C   UNL     1     -11.693  12.568  69.928  1.00  0.00    -0.327 A  
HETATM   22  C   UNL     1     -12.486  13.352  70.768  1.00  0.00    -0.418 A  
HETATM   23  H   UNL     1     -14.567  13.045  73.267  1.00  0.00     0.000 HD 
HETATM   24  C   UNL     1     -13.266  11.355  71.886  1.00  0.00    -0.485 A  
HETATM   25  C   UNL     1     -13.262  12.737  71.745  1.00  0.00    -0.374 A  
HETATM   26  O   UNL     1     -14.037  13.466  72.599  1.00  0.00    -0.767 OA 
ENDBRANCH  18  19
ENDBRANCH  17  18
ENDBRANCH   2  17
TORSDOF 7
ENDMDL
MODEL       89
REMARK 921   NORMALIZED FREE ENERGY PREDICTED BY IDOCK:   -5.54 KCAL/MOL
REMARK 922        TOTAL FREE ENERGY PREDICTED BY IDOCK:   -8.97 KCAL/MOL
REMARK 923 INTER-LIGAND FREE ENERGY PREDICTED BY IDOCK:   -8.37 KCAL/MOL
REMARK 924 INTRA-LIGAND FREE ENERGY PREDICTED BY IDOCK:   -0.60 KCAL/MOL
REMARK 927      BINDING AFFINITY PREDICTED BY RF-SCORE:    0.00 PKD
ROOT
HETATM    1  C   UNL     1     -13.158  14.008  70.814  1.00  0.00    -0.245 C  
HETATM    2  C   UNL     1     -11.950  14.201  69.890  1.00  0.00    -0.338 C  
ENDROOT
BRANCH   2   3
HETATM    3  N   UNL     1     -12.311  14.891  68.641  1.00  0.00    -0.592 NA 
HETATM    4  H   UNL     1     -13.096  15.522  68.802  1.00  0.00     0.000 HD 
BRANCH   3   5
HETATM    5  C   UNL     1     -11.209  15.612  67.986  1.00  0.00    -0.339 C  
BRANCH   5   6
HETATM    6  C   UNL     1     -10.737  16.859  68.747  1.00  0.00    -0.333 C  
BRANCH   6   7
HETATM    7  C   UNL     1      -9.996  17.833  67.865  1.00  0.00    -0.322 A  
HETATM    8  C   UNL     1      -8.597  19.671  66.304  1.00  0.00    -0.366 A  
HETATM    9  C   UNL     1      -8.214  18.332  66.317  1.00  0.00    -0.212 A  
HETATM   10  O   UNL     1      -7.893  20.575  65.561  1.00  0.00    -0.517 OA 
HETATM   11  C   UNL     1      -9.683  20.106  67.047  1.00  0.00    -0.574 A  
HETATM   12  H   UNL     1      -6.659  18.606  65.032  1.00  0.00     0.000 HD 
HETATM   13  C   UNL     1      -8.908  17.406  67.089  1.00  0.00    -0.242 A  
HETATM   14  O   UNL     1      -7.133  17.974  65.558  1.00  0.00    -0.515 OA 
HETATM   15  C   UNL     1     -10.386  19.183  67.826  1.00  0.00    -0.513 A  
HETATM   16  H   UNL     1      -8.154  21.489  65.552  1.00  0.00     0.000 HD 
ENDBRANCH   6   7
ENDBRANCH   5   6
ENDBRANCH   3   5
ENDBRANCH   2   3
BRANCH   2  17
HETATM   17  C   UNL     1     -11.330  12.826  69.572  1.00  0.00    -0.223 C  
BRANCH  17  18
HETATM   18  C   UNL     1     -12.368  11.704  69.438  1.00  0.00    -0.131 C  
BRANCH  18  19
HETATM   19  C   UNL     1     -12.068  10.579  70.403  1.00  0.00    -0.418 A  
HETATM   20  C   UNL     1     -10.835   9.914  70.359  1.00  0.00    -0.380 A  
HETATM   21  C   UNL     1     -13.001  10.223  71.387  1.00  0.00    -0.540 A  
HETATM   22  C   UNL     1     -12.707   9.224  72.316  1.00  0.00    -0.435 A  
HETATM   23  H   UNL     1     -10.296   7.173  73.122  1.00  0.00     0.000 HD 
HETATM   24  C   UNL     1     -10.541   8.913  71.287  1.00  0.00    -0.351 A  
HETATM   25  C   UNL     1     -11.475   8.581  72.260  1.00  0.00    -0.375 A  
HETATM   26  O   UNL     1     -11.139   7.612  73.160  1.00  0.00    -0.404 OA 
ENDBRANCH  18  19
ENDBRANCH  17  18
ENDBRANCH   2  17
TORSDOF 7
ENDMDL
MODEL       90
REMARK 921   NORMALIZED FREE ENERGY PREDICTED BY IDOCK:   -5.53 KCAL/MOL
REMARK 922        TOTAL FREE ENERGY PREDICTED BY IDOCK:   -8.96 KCAL/MOL
REMARK 923 INTER-LIGAND FREE ENERGY PREDICTED BY IDOCK:   -8.42 KCAL/MOL
REMARK 924 INTRA-LIGAND FREE ENERGY PREDICTED BY IDOCK:   -0.54 KCAL/MOL
REMARK 927      BINDING AFFINITY PREDICTED BY RF-SCORE:    0.00 PKD
ROOT
HETATM    1  C   UNL     1      -8.930   8.500  67.360  1.00  0.00    -0.144 C  
HETATM    2  C   UNL     1     -10.202   8.832  68.149  1.00  0.00    -0.205 C  
ENDROOT
BRANCH   2   3
HETATM    3  N   UNL     1     -11.130   9.675  67.377  1.00  0.00    -0.364 NA 
HETATM    4  H   UNL     1     -12.020   9.757  67.868  1.00  0.00     0.000 HD 
BRANCH   3   5
HETATM    5  C   UNL     1     -10.619  11.009  67.028  1.00  0.00    -0.256 C  
BRANCH   5   6
HETATM    6  C   UNL     1     -11.557  12.159  67.417  1.00  0.00    -0.410 C  
BRANCH   6   7
HETATM    7  C   UNL     1     -11.521  13.298  66.428  1.00  0.00    -0.364 A  
HETATM    8  C   UNL     1     -11.527  15.433  64.635  1.00  0.00    -0.337 A  
HETATM    9  C   UNL     1     -10.544  15.350  65.618  1.00  0.00    -0.364 A  
HETATM   10  O   UNL     1     -11.545  16.494  63.775  1.00  0.00    -1.617 OA 
HETATM   11  C   UNL     1     -12.501  14.453  64.520  1.00  0.00    -0.362 A  
HETATM   12  H   UNL     1      -9.624  17.077  65.059  1.00  0.00     0.000 HD 
HETATM   13  C   UNL     1     -10.530  14.287  66.516  1.00  0.00    -0.287 A  
HETATM   14  O   UNL     1      -9.614  16.352  65.671  1.00  0.00    -0.495 OA 
HETATM   15  C   UNL     1     -12.495  13.382  65.417  1.00  0.00    -0.543 A  
HETATM   16  H   UNL     1     -12.215  16.551  63.104  1.00  0.00     0.000 HD 
ENDBRANCH   6   7
ENDBRANCH   5   6
ENDBRANCH   3   5
ENDBRANCH   2   3
BRANCH   2  17
HETATM   17  C   UNL     1      -9.814   9.541  69.462  1.00  0.00    -0.205 C  
BRANCH  17  18
HETATM   18  C   UNL     1     -10.957   9.602  70.484  1.00  0.00    -0.374 C  
BRANCH  18  19
HETATM   19  C   UNL     1     -11.067   8.299  71.240  1.00  0.00    -0.296 A  
HETATM   20  C   UNL     1     -10.530   8.175  72.529  1.00  0.00    -0.409 A  
HETATM   21  C   UNL     1     -11.756   7.213  70.680  1.00  0.00    -0.348 A  
HETATM   22  C   UNL     1     -11.910   6.024  71.397  1.00  0.00    -0.042 A  
HETATM   23  H   UNL     1     -11.156   4.721  74.295  1.00  0.00     0.000 HD 
HETATM   24  C   UNL     1     -10.683   6.986  73.245  1.00  0.00    -0.373 A  
HETATM   25  C   UNL     1     -11.376   5.925  72.678  1.00  0.00    -0.292 A  
HETATM   26  O   UNL     1     -11.520   4.789  73.420  1.00  0.00    -0.338 OA 
ENDBRANCH  18  19
ENDBRANCH  17  18
ENDBRANCH   2  17
TORSDOF 7
ENDMDL
MODEL       91
REMARK 921   NORMALIZED FREE ENERGY PREDICTED BY IDOCK:   -5.53 KCAL/MOL
REMARK 922        TOTAL FREE ENERGY PREDICTED BY IDOCK:   -8.95 KCAL/MOL
REMARK 923 INTER-LIGAND FREE ENERGY PREDICTED BY IDOCK:   -7.59 KCAL/MOL
REMARK 924 INTRA-LIGAND FREE ENERGY PREDICTED BY IDOCK:   -1.36 KCAL/MOL
REMARK 927      BINDING AFFINITY PREDICTED BY RF-SCORE:    0.00 PKD
ROOT
HETATM    1  C   UNL     1      -8.297  12.533  67.230  1.00  0.00    -0.185 C  
HETATM    2  C   UNL     1      -9.175  11.505  66.508  1.00  0.00    -0.194 C  
ENDROOT
BRANCH   2   3
HETATM    3  N   UNL     1      -9.691  12.017  65.228  1.00  0.00    -0.369 NA 
HETATM    4  H   UNL     1      -9.280  11.498  64.451  1.00  0.00     0.000 HD 
BRANCH   3   5
HETATM    5  C   UNL     1     -11.157  12.034  65.107  1.00  0.00    -0.318 C  
BRANCH   5   6
HETATM    6  C   UNL     1     -11.740  13.411  64.764  1.00  0.00    -0.393 C  
BRANCH   6   7
HETATM    7  C   UNL     1     -11.338  14.475  65.754  1.00  0.00    -0.336 A  
HETATM    8  C   UNL     1     -10.641  16.499  67.540  1.00  0.00    -0.313 A  
HETATM    9  C   UNL     1     -11.480  15.466  67.950  1.00  0.00    -0.299 A  
HETATM   10  O   UNL     1     -10.322  17.505  68.408  1.00  0.00    -0.339 OA 
HETATM   11  C   UNL     1     -10.127  16.529  66.253  1.00  0.00    -0.347 A  
HETATM   12  H   UNL     1     -11.708  16.195  69.837  1.00  0.00     0.000 HD 
HETATM   13  C   UNL     1     -11.831  14.449  67.068  1.00  0.00    -0.437 A  
HETATM   14  O   UNL     1     -11.948  15.500  69.235  1.00  0.00    -0.342 OA 
HETATM   15  C   UNL     1     -10.475  15.512  65.360  1.00  0.00    -0.429 A  
HETATM   16  H   UNL     1      -9.750  18.210  68.129  1.00  0.00     0.000 HD 
ENDBRANCH   6   7
ENDBRANCH   5   6
ENDBRANCH   3   5
ENDBRANCH   2   3
BRANCH   2  17
HETATM   17  C   UNL     1     -10.347  11.105  67.426  1.00  0.00    -0.231 C  
BRANCH  17  18
HETATM   18  C   UNL     1     -10.444  11.956  68.699  1.00  0.00    -0.231 C  
BRANCH  18  19
HETATM   19  C   UNL     1     -11.201  11.217  69.779  1.00  0.00    -0.294 A  
HETATM   20  C   UNL     1     -12.174  11.874  70.544  1.00  0.00    -0.426 A  
HETATM   21  C   UNL     1     -10.972   9.850  69.994  1.00  0.00    -0.338 A  
HETATM   22  C   UNL     1     -11.707   9.149  70.952  1.00  0.00    -0.341 A  
HETATM   23  H   UNL     1     -14.090   9.626  73.134  1.00  0.00     0.000 HD 
HETATM   24  C   UNL     1     -12.909  11.175  71.503  1.00  0.00    -0.542 A  
HETATM   25  C   UNL     1     -12.674   9.819  71.695  1.00  0.00    -0.422 A  
HETATM   26  O   UNL     1     -13.429   9.168  72.627  1.00  0.00    -0.463 OA 
ENDBRANCH  18  19
ENDBRANCH  17  18
ENDBRANCH   2  17
TORSDOF 7
ENDMDL
MODEL       92
REMARK 921   NORMALIZED FREE ENERGY PREDICTED BY IDOCK:   -5.53 KCAL/MOL
REMARK 922        TOTAL FREE ENERGY PREDICTED BY IDOCK:   -8.95 KCAL/MOL
REMARK 923 INTER-LIGAND FREE ENERGY PREDICTED BY IDOCK:   -8.09 KCAL/MOL
REMARK 924 INTRA-LIGAND FREE ENERGY PREDICTED BY IDOCK:   -0.86 KCAL/MOL
REMARK 927      BINDING AFFINITY PREDICTED BY RF-SCORE:    0.00 PKD
ROOT
HETATM    1  C   UNL     1     -10.410  10.080  69.117  1.00  0.00    -0.233 C  
HETATM    2  C   UNL     1     -11.493  11.053  69.593  1.00  0.00    -0.303 C  
ENDROOT
BRANCH   2   3
HETATM    3  N   UNL     1     -12.703  10.355  70.057  1.00  0.00    -0.549 NA 
HETATM    4  H   UNL     1     -12.791   9.454  69.587  1.00  0.00     0.000 HD 
BRANCH   3   5
HETATM    5  C   UNL     1     -12.802  10.178  71.514  1.00  0.00    -0.443 C  
BRANCH   5   6
HETATM    6  C   UNL     1     -12.992   8.720  71.955  1.00  0.00    -0.421 C  
BRANCH   6   7
HETATM    7  C   UNL     1     -11.740   7.895  71.790  1.00  0.00    -0.329 A  
HETATM    8  C   UNL     1      -9.436   6.341  71.563  1.00  0.00    -0.151 A  
HETATM    9  C   UNL     1     -10.568   6.022  70.819  1.00  0.00    -0.255 A  
HETATM   10  O   UNL     1      -8.317   5.563  71.473  1.00  0.00    -0.120 OA 
HETATM   11  C   UNL     1      -9.429   7.439  72.410  1.00  0.00    -0.189 A  
HETATM   12  H   UNL     1      -9.716   4.400  69.934  1.00  0.00     0.000 HD 
HETATM   13  C   UNL     1     -11.722   6.793  70.921  1.00  0.00    -0.424 A  
HETATM   14  O   UNL     1     -10.503   4.926  70.003  1.00  0.00    -0.244 OA 
HETATM   15  C   UNL     1     -10.583   8.219  72.519  1.00  0.00    -0.407 A  
HETATM   16  H   UNL     1      -7.544   5.781  71.981  1.00  0.00     0.000 HD 
ENDBRANCH   6   7
ENDBRANCH   5   6
ENDBRANCH   3   5
ENDBRANCH   2   3
BRANCH   2  17
HETATM   17  C   UNL     1     -11.849  12.017  68.444  1.00  0.00    -0.360 C  
BRANCH  17  18
HETATM   18  C   UNL     1     -10.774  12.091  67.352  1.00  0.00    -0.266 C  
BRANCH  18  19
HETATM   19  C   UNL     1     -11.041  13.246  66.415  1.00  0.00    -0.313 A  
HETATM   20  C   UNL     1     -10.130  14.306  66.314  1.00  0.00    -0.308 A  
HETATM   21  C   UNL     1     -12.180  13.244  65.598  1.00  0.00    -0.514 A  
HETATM   22  C   UNL     1     -12.404  14.281  64.689  1.00  0.00    -0.433 A  
HETATM   23  H   UNL     1     -11.023  17.052  63.650  1.00  0.00     0.000 HD 
HETATM   24  C   UNL     1     -10.354  15.344  65.407  1.00  0.00    -0.422 A  
HETATM   25  C   UNL     1     -11.483  15.320  64.599  1.00  0.00    -0.354 A  
HETATM   26  O   UNL     1     -11.653  16.343  63.712  1.00  0.00    -1.055 OA 
ENDBRANCH  18  19
ENDBRANCH  17  18
ENDBRANCH   2  17
TORSDOF 7
ENDMDL
MODEL       93
REMARK 921   NORMALIZED FREE ENERGY PREDICTED BY IDOCK:   -5.49 KCAL/MOL
REMARK 922        TOTAL FREE ENERGY PREDICTED BY IDOCK:   -8.89 KCAL/MOL
REMARK 923 INTER-LIGAND FREE ENERGY PREDICTED BY IDOCK:   -7.50 KCAL/MOL
REMARK 924 INTRA-LIGAND FREE ENERGY PREDICTED BY IDOCK:   -1.39 KCAL/MOL
REMARK 927      BINDING AFFINITY PREDICTED BY RF-SCORE:    0.00 PKD
ROOT
HETATM    1  C   UNL     1     -12.380  13.793  64.913  1.00  0.00    -0.435 C  
HETATM    2  C   UNL     1     -10.912  14.228  64.859  1.00  0.00    -0.404 C  
ENDROOT
BRANCH   2   3
HETATM    3  N   UNL     1     -10.108  13.366  63.978  1.00  0.00    -0.749 NA 
HETATM    4  H   UNL     1      -9.118  13.452  64.209  1.00  0.00     0.000 HD 
BRANCH   3   5
HETATM    5  C   UNL     1     -10.503  11.949  63.963  1.00  0.00    -0.373 C  
BRANCH   5   6
HETATM    6  C   UNL     1      -9.386  10.984  64.381  1.00  0.00    -0.223 C  
BRANCH   6   7
HETATM    7  C   UNL     1      -9.735  10.192  65.618  1.00  0.00    -0.322 A  
HETATM    8  C   UNL     1     -10.460   8.725  67.875  1.00  0.00    -0.216 A  
HETATM    9  C   UNL     1      -9.610   8.168  66.924  1.00  0.00    -0.208 A  
HETATM   10  O   UNL     1     -10.836   7.996  68.967  1.00  0.00    -0.398 OA 
HETATM   11  C   UNL     1     -10.942  10.016  67.726  1.00  0.00    -0.310 A  
HETATM   12  H   UNL     1      -9.424   6.395  67.907  1.00  0.00     0.000 HD 
HETATM   13  C   UNL     1      -9.238   8.893  65.796  1.00  0.00    -0.283 A  
HETATM   14  O   UNL     1      -9.171   6.889  67.137  1.00  0.00    -0.132 OA 
HETATM   15  C   UNL     1     -10.575  10.752  66.597  1.00  0.00    -0.291 A  
HETATM   16  H   UNL     1     -11.416   8.376  69.616  1.00  0.00     0.000 HD 
ENDBRANCH   6   7
ENDBRANCH   5   6
ENDBRANCH   3   5
ENDBRANCH   2   3
BRANCH   2  17
HETATM   17  C   UNL     1     -10.326  14.216  66.285  1.00  0.00    -0.294 C  
BRANCH  17  18
HETATM   18  C   UNL     1     -10.813  15.382  67.156  1.00  0.00    -0.321 C  
BRANCH  18  19
HETATM   19  C   UNL     1     -11.370  14.876  68.466  1.00  0.00    -0.314 A  
HETATM   20  C   UNL     1     -11.967  15.759  69.376  1.00  0.00    -0.321 A  
HETATM   21  C   UNL     1     -11.343  13.505  68.763  1.00  0.00    -0.329 A  
HETATM   22  C   UNL     1     -11.906  13.024  69.946  1.00  0.00    -0.377 A  
HETATM   23  H   UNL     1     -13.486  14.097  72.596  1.00  0.00     0.000 HD 
HETATM   24  C   UNL     1     -12.529  15.279  70.560  1.00  0.00    -0.454 A  
HETATM   25  C   UNL     1     -12.500  13.917  70.832  1.00  0.00    -0.375 A  
HETATM   26  O   UNL     1     -13.079  13.487  71.991  1.00  0.00    -0.373 OA 
ENDBRANCH  18  19
ENDBRANCH  17  18
ENDBRANCH   2  17
TORSDOF 7
ENDMDL
MODEL       94
REMARK 921   NORMALIZED FREE ENERGY PREDICTED BY IDOCK:   -5.48 KCAL/MOL
REMARK 922        TOTAL FREE ENERGY PREDICTED BY IDOCK:   -8.88 KCAL/MOL
REMARK 923 INTER-LIGAND FREE ENERGY PREDICTED BY IDOCK:   -7.70 KCAL/MOL
REMARK 924 INTRA-LIGAND FREE ENERGY PREDICTED BY IDOCK:   -1.18 KCAL/MOL
REMARK 927      BINDING AFFINITY PREDICTED BY RF-SCORE:    0.00 PKD
ROOT
HETATM    1  C   UNL     1      -9.020  11.446  66.466  1.00  0.00    -0.192 C  
HETATM    2  C   UNL     1      -9.865  11.769  67.703  1.00  0.00    -0.185 C  
ENDROOT
BRANCH   2   3
HETATM    3  N   UNL     1      -9.287  12.862  68.501  1.00  0.00    -0.378 NA 
HETATM    4  H   UNL     1      -8.293  12.962  68.292  1.00  0.00     0.000 HD 
BRANCH   3   5
HETATM    5  C   UNL     1      -9.966  14.159  68.367  1.00  0.00    -0.235 C  
BRANCH   5   6
HETATM    6  C   UNL     1     -11.495  14.079  68.479  1.00  0.00    -0.336 C  
BRANCH   6   7
HETATM    7  C   UNL     1     -11.986  14.288  69.890  1.00  0.00    -0.397 A  
HETATM    8  C   UNL     1     -12.843  14.611  72.524  1.00  0.00    -0.388 A  
HETATM    9  C   UNL     1     -12.088  15.606  71.909  1.00  0.00    -0.432 A  
HETATM   10  O   UNL     1     -13.238  14.758  73.823  1.00  0.00    -0.496 OA 
HETATM   11  C   UNL     1     -13.194  13.460  71.837  1.00  0.00    -0.522 A  
HETATM   12  H   UNL     1     -12.072  16.818  73.544  1.00  0.00     0.000 HD 
HETATM   13  C   UNL     1     -11.659  15.457  70.593  1.00  0.00    -0.363 A  
HETATM   14  O   UNL     1     -11.780  16.716  72.646  1.00  0.00    -0.486 OA 
HETATM   15  C   UNL     1     -12.767  13.300  70.516  1.00  0.00    -0.169 A  
HETATM   16  H   UNL     1     -13.753  14.079  74.243  1.00  0.00     0.000 HD 
ENDBRANCH   6   7
ENDBRANCH   5   6
ENDBRANCH   3   5
ENDBRANCH   2   3
BRANCH   2  17
HETATM   17  C   UNL     1     -10.001  10.500  68.568  1.00  0.00    -0.181 C  
BRANCH  17  18
HETATM   18  C   UNL     1     -11.277  10.476  69.421  1.00  0.00    -0.327 C  
BRANCH  18  19
HETATM   19  C   UNL     1     -11.116   9.541  70.597  1.00  0.00    -0.364 A  
HETATM   20  C   UNL     1      -9.841   9.222  71.086  1.00  0.00    -0.342 A  
HETATM   21  C   UNL     1     -12.245   9.022  71.247  1.00  0.00    -0.373 A  
HETATM   22  C   UNL     1     -12.105   8.202  72.369  1.00  0.00    -0.406 A  
HETATM   23  H   UNL     1      -9.779   6.921  74.269  1.00  0.00     0.000 HD 
HETATM   24  C   UNL     1      -9.700   8.401  72.206  1.00  0.00    -0.386 A  
HETATM   25  C   UNL     1     -10.831   7.904  72.842  1.00  0.00    -0.386 A  
HETATM   26  O   UNL     1     -10.649   7.124  73.946  1.00  0.00    -0.362 OA 
ENDBRANCH  18  19
ENDBRANCH  17  18
ENDBRANCH   2  17
TORSDOF 7
ENDMDL
MODEL       95
REMARK 921   NORMALIZED FREE ENERGY PREDICTED BY IDOCK:   -5.48 KCAL/MOL
REMARK 922        TOTAL FREE ENERGY PREDICTED BY IDOCK:   -8.88 KCAL/MOL
REMARK 923 INTER-LIGAND FREE ENERGY PREDICTED BY IDOCK:   -7.75 KCAL/MOL
REMARK 924 INTRA-LIGAND FREE ENERGY PREDICTED BY IDOCK:   -1.13 KCAL/MOL
REMARK 927      BINDING AFFINITY PREDICTED BY RF-SCORE:    0.00 PKD
ROOT
HETATM    1  C   UNL     1     -10.437   9.629  66.779  1.00  0.00    -0.257 C  
HETATM    2  C   UNL     1      -9.431  10.748  67.073  1.00  0.00    -0.164 C  
ENDROOT
BRANCH   2   3
HETATM    3  N   UNL     1      -8.267  10.264  67.832  1.00  0.00    -0.109 NA 
HETATM    4  H   UNL     1      -7.411  10.685  67.470  1.00  0.00     0.000 HD 
BRANCH   3   5
HETATM    5  C   UNL     1      -8.348  10.454  69.288  1.00  0.00    -0.155 C  
BRANCH   5   6
HETATM    6  C   UNL     1      -8.337   9.147  70.092  1.00  0.00    -0.174 C  
BRANCH   6   7
HETATM    7  C   UNL     1      -9.619   8.924  70.855  1.00  0.00    -0.298 A  
HETATM    8  C   UNL     1     -12.026   8.490  72.194  1.00  0.00    -0.383 A  
HETATM    9  C   UNL     1     -10.941   7.647  72.419  1.00  0.00    -0.301 A  
HETATM   10  O   UNL     1     -13.213   8.260  72.830  1.00  0.00    -0.592 OA 
HETATM   11  C   UNL     1     -11.924   9.562  71.321  1.00  0.00    -0.445 A  
HETATM   12  H   UNL     1     -11.937   6.467  73.745  1.00  0.00     0.000 HD 
HETATM   13  C   UNL     1      -9.734   7.857  71.759  1.00  0.00    -0.219 A  
HETATM   14  O   UNL     1     -11.113   6.611  73.295  1.00  0.00    -0.234 OA 
HETATM   15  C   UNL     1     -10.716   9.780  70.654  1.00  0.00    -0.394 A  
HETATM   16  H   UNL     1     -13.954   8.835  72.676  1.00  0.00     0.000 HD 
ENDBRANCH   6   7
ENDBRANCH   5   6
ENDBRANCH   3   5
ENDBRANCH   2   3
BRANCH   2  17
HETATM   17  C   UNL     1     -10.139  11.873  67.854  1.00  0.00    -0.199 C  
BRANCH  17  18
HETATM   18  C   UNL     1     -11.568  12.148  67.369  1.00  0.00    -0.410 C  
BRANCH  18  19
HETATM   19  C   UNL     1     -11.599  13.346  66.448  1.00  0.00    -0.381 A  
HETATM   20  C   UNL     1     -10.783  14.458  66.697  1.00  0.00    -0.292 A  
HETATM   21  C   UNL     1     -12.409  13.337  65.303  1.00  0.00    -0.525 A  
HETATM   22  C   UNL     1     -12.400  14.417  64.418  1.00  0.00    -0.428 A  
HETATM   23  H   UNL     1     -10.959  17.319  64.010  1.00  0.00     0.000 HD 
HETATM   24  C   UNL     1     -10.774  15.539  65.813  1.00  0.00    -0.362 A  
HETATM   25  C   UNL     1     -11.576  15.507  64.679  1.00  0.00    -0.281 A  
HETATM   26  O   UNL     1     -11.522  16.574  63.831  1.00  0.00    -1.145 OA 
ENDBRANCH  18  19
ENDBRANCH  17  18
ENDBRANCH   2  17
TORSDOF 7
ENDMDL
MODEL       96
REMARK 921   NORMALIZED FREE ENERGY PREDICTED BY IDOCK:   -5.45 KCAL/MOL
REMARK 922        TOTAL FREE ENERGY PREDICTED BY IDOCK:   -8.85 KCAL/MOL
REMARK 923 INTER-LIGAND FREE ENERGY PREDICTED BY IDOCK:   -8.14 KCAL/MOL
REMARK 924 INTRA-LIGAND FREE ENERGY PREDICTED BY IDOCK:   -0.71 KCAL/MOL
REMARK 927      BINDING AFFINITY PREDICTED BY RF-SCORE:    0.00 PKD
ROOT
HETATM    1  C   UNL     1     -11.601  12.394  64.602  1.00  0.00    -0.400 C  
HETATM    2  C   UNL     1     -12.187  12.844  65.946  1.00  0.00    -0.407 C  
ENDROOT
BRANCH   2   3
HETATM    3  N   UNL     1     -11.938  14.270  66.211  1.00  0.00    -0.411 NA 
HETATM    4  H   UNL     1     -11.910  14.440  67.217  1.00  0.00     0.000 HD 
BRANCH   3   5
HETATM    5  C   UNL     1     -10.735  14.824  65.570  1.00  0.00    -0.357 C  
BRANCH   5   6
HETATM    6  C   UNL     1      -9.649  15.270  66.558  1.00  0.00    -0.294 C  
BRANCH   6   7
HETATM    7  C   UNL     1      -9.554  16.771  66.679  1.00  0.00    -0.274 A  
HETATM    8  C   UNL     1      -9.449  19.543  66.949  1.00  0.00    -0.344 A  
HETATM    9  C   UNL     1      -8.483  18.746  67.557  1.00  0.00    -0.270 A  
HETATM   10  O   UNL     1      -9.412  20.900  67.105  1.00  0.00    -0.656 OA 
HETATM   11  C   UNL     1     -10.461  18.978  66.189  1.00  0.00    -0.541 A  
HETATM   12  H   UNL     1      -7.485  20.318  68.380  1.00  0.00     0.000 HD 
HETATM   13  C   UNL     1      -8.524  17.361  67.425  1.00  0.00    -0.215 A  
HETATM   14  O   UNL     1      -7.513  19.373  68.290  1.00  0.00    -0.282 OA 
HETATM   15  C   UNL     1     -10.510  17.588  66.051  1.00  0.00    -0.274 A  
HETATM   16  H   UNL     1     -10.071  21.444  66.690  1.00  0.00     0.000 HD 
ENDBRANCH   6   7
ENDBRANCH   5   6
ENDBRANCH   3   5
ENDBRANCH   2   3
BRANCH   2  17
HETATM   17  C   UNL     1     -11.584  11.984  67.075  1.00  0.00    -0.387 C  
BRANCH  17  18
HETATM   18  C   UNL     1     -11.747  12.605  68.468  1.00  0.00    -0.372 C  
BRANCH  18  19
HETATM   19  C   UNL     1     -11.658  11.543  69.540  1.00  0.00    -0.400 A  
HETATM   20  C   UNL     1     -12.650  11.440  70.526  1.00  0.00    -0.309 A  
HETATM   21  C   UNL     1     -10.607  10.615  69.531  1.00  0.00    -0.265 A  
HETATM   22  C   UNL     1     -10.549   9.597  70.485  1.00  0.00    -0.369 A  
HETATM   23  H   UNL     1     -12.224   8.457  73.047  1.00  0.00     0.000 HD 
HETATM   24  C   UNL     1     -12.592  10.424  71.481  1.00  0.00    -0.544 A  
HETATM   25  C   UNL     1     -11.548   9.508  71.449  1.00  0.00    -0.395 A  
HETATM   26  O   UNL     1     -11.541   8.518  72.388  1.00  0.00    -0.372 OA 
ENDBRANCH  18  19
ENDBRANCH  17  18
ENDBRANCH   2  17
TORSDOF 7
ENDMDL
MODEL       97
REMARK 921   NORMALIZED FREE ENERGY PREDICTED BY IDOCK:   -5.45 KCAL/MOL
REMARK 922        TOTAL FREE ENERGY PREDICTED BY IDOCK:   -8.84 KCAL/MOL
REMARK 923 INTER-LIGAND FREE ENERGY PREDICTED BY IDOCK:   -7.69 KCAL/MOL
REMARK 924 INTRA-LIGAND FREE ENERGY PREDICTED BY IDOCK:   -1.16 KCAL/MOL
REMARK 927      BINDING AFFINITY PREDICTED BY RF-SCORE:    0.00 PKD
ROOT
HETATM    1  C   UNL     1      -7.015  12.610  67.313  1.00  0.00    -0.104 C  
HETATM    2  C   UNL     1      -8.508  12.743  67.633  1.00  0.00    -0.178 C  
ENDROOT
BRANCH   2   3
HETATM    3  N   UNL     1      -8.746  13.493  68.877  1.00  0.00    -0.370 NA 
HETATM    4  H   UNL     1      -8.001  13.307  69.547  1.00  0.00     0.000 HD 
BRANCH   3   5
HETATM    5  C   UNL     1      -8.923  14.943  68.707  1.00  0.00    -0.188 C  
BRANCH   5   6
HETATM    6  C   UNL     1      -9.357  15.359  67.295  1.00  0.00    -0.218 C  
BRANCH   6   7
HETATM    7  C   UNL     1      -9.381  16.857  67.112  1.00  0.00    -0.241 A  
HETATM    8  C   UNL     1      -9.414  19.633  66.856  1.00  0.00    -0.358 A  
HETATM    9  C   UNL     1      -8.358  18.896  66.326  1.00  0.00    -0.260 A  
HETATM   10  O   UNL     1      -9.415  20.995  66.755  1.00  0.00    -0.634 OA 
HETATM   11  C   UNL     1     -10.467  19.002  67.500  1.00  0.00    -0.537 A  
HETATM   12  H   UNL     1      -7.370  20.530  65.622  1.00  0.00     0.000 HD 
HETATM   13  C   UNL     1      -8.334  17.510  66.444  1.00  0.00    -0.297 A  
HETATM   14  O   UNL     1      -7.354  19.584  65.702  1.00  0.00    -0.336 OA 
HETATM   15  C   UNL     1     -10.451  17.611  67.624  1.00  0.00    -0.372 A  
HETATM   16  H   UNL     1     -10.135  21.498  67.117  1.00  0.00     0.000 HD 
ENDBRANCH   6   7
ENDBRANCH   5   6
ENDBRANCH   3   5
ENDBRANCH   2   3
BRANCH   2  17
HETATM   17  C   UNL     1      -9.132  11.336  67.738  1.00  0.00    -0.152 C  
BRANCH  17  18
HETATM   18  C   UNL     1     -10.666  11.346  67.733  1.00  0.00    -0.254 C  
BRANCH  18  19
HETATM   19  C   UNL     1     -11.192  12.030  66.492  1.00  0.00    -0.387 A  
HETATM   20  C   UNL     1     -10.834  11.568  65.218  1.00  0.00    -0.319 A  
HETATM   21  C   UNL     1     -12.087  13.104  66.603  1.00  0.00    -0.409 A  
HETATM   22  C   UNL     1     -12.621  13.704  65.461  1.00  0.00    -0.541 A  
HETATM   23  H   UNL     1     -12.524  13.442  62.207  1.00  0.00     0.000 HD 
HETATM   24  C   UNL     1     -11.366  12.169  64.075  1.00  0.00    -0.468 A  
HETATM   25  C   UNL     1     -12.258  13.225  64.205  1.00  0.00    -0.392 A  
HETATM   26  O   UNL     1     -12.771  13.770  63.064  1.00  0.00    -0.671 OA 
ENDBRANCH  18  19
ENDBRANCH  17  18
ENDBRANCH   2  17
TORSDOF 7
ENDMDL
MODEL       98
REMARK 921   NORMALIZED FREE ENERGY PREDICTED BY IDOCK:   -5.44 KCAL/MOL
REMARK 922        TOTAL FREE ENERGY PREDICTED BY IDOCK:   -8.83 KCAL/MOL
REMARK 923 INTER-LIGAND FREE ENERGY PREDICTED BY IDOCK:   -7.17 KCAL/MOL
REMARK 924 INTRA-LIGAND FREE ENERGY PREDICTED BY IDOCK:   -1.66 KCAL/MOL
REMARK 927      BINDING AFFINITY PREDICTED BY RF-SCORE:    0.00 PKD
ROOT
HETATM    1  C   UNL     1     -12.352  12.401  63.481  1.00  0.00    -0.648 C  
HETATM    2  C   UNL     1     -11.272  12.795  64.495  1.00  0.00    -0.333 C  
ENDROOT
BRANCH   2   3
HETATM    3  N   UNL     1      -9.941  12.300  64.109  1.00  0.00    -0.520 NA 
HETATM    4  H   UNL     1      -9.215  12.830  64.592  1.00  0.00     0.000 HD 
BRANCH   3   5
HETATM    5  C   UNL     1      -9.730  10.857  64.305  1.00  0.00    -0.294 C  
BRANCH   5   6
HETATM    6  C   UNL     1      -8.587  10.519  65.272  1.00  0.00    -0.185 C  
BRANCH   6   7
HETATM    7  C   UNL     1      -9.037   9.656  66.425  1.00  0.00    -0.191 A  
HETATM    8  C   UNL     1      -9.911   8.128  68.587  1.00  0.00    -0.190 A  
HETATM    9  C   UNL     1     -10.376   7.852  67.304  1.00  0.00    -0.307 A  
HETATM   10  O   UNL     1     -10.361   7.397  69.649  1.00  0.00    -0.211 OA 
HETATM   11  C   UNL     1      -8.999   9.148  68.807  1.00  0.00    -0.136 A  
HETATM   12  H   UNL     1     -11.569   6.315  67.903  1.00  0.00     0.000 HD 
HETATM   13  C   UNL     1      -9.943   8.605  66.217  1.00  0.00    -0.287 A  
HETATM   14  O   UNL     1     -11.274   6.829  67.161  1.00  0.00    -0.379 OA 
HETATM   15  C   UNL     1      -8.559   9.911  67.722  1.00  0.00    -0.121 A  
HETATM   16  H   UNL     1     -10.044   7.586  70.525  1.00  0.00     0.000 HD 
ENDBRANCH   6   7
ENDBRANCH   5   6
ENDBRANCH   3   5
ENDBRANCH   2   3
BRANCH   2  17
HETATM   17  C   UNL     1     -11.656  12.246  65.884  1.00  0.00    -0.450 C  
BRANCH  17  18
HETATM   18  C   UNL     1     -10.868  12.888  67.033  1.00  0.00    -0.282 C  
BRANCH  18  19
HETATM   19  C   UNL     1     -11.521  12.588  68.362  1.00  0.00    -0.355 A  
HETATM   20  C   UNL     1     -11.781  11.266  68.747  1.00  0.00    -0.405 A  
HETATM   21  C   UNL     1     -11.829  13.630  69.249  1.00  0.00    -0.395 A  
HETATM   22  C   UNL     1     -12.381  13.357  70.502  1.00  0.00    -0.401 A  
HETATM   23  H   UNL     1     -13.311  10.821  72.339  1.00  0.00     0.000 HD 
HETATM   24  C   UNL     1     -12.336  10.992  69.999  1.00  0.00    -0.377 A  
HETATM   25  C   UNL     1     -12.624  12.037  70.867  1.00  0.00    -0.253 A  
HETATM   26  O   UNL     1     -13.145  11.723  72.089  1.00  0.00    -0.452 OA 
ENDBRANCH  18  19
ENDBRANCH  17  18
ENDBRANCH   2  17
TORSDOF 7
ENDMDL
MODEL       99
REMARK 921   NORMALIZED FREE ENERGY PREDICTED BY IDOCK:   -5.44 KCAL/MOL
REMARK 922        TOTAL FREE ENERGY PREDICTED BY IDOCK:   -8.82 KCAL/MOL
REMARK 923 INTER-LIGAND FREE ENERGY PREDICTED BY IDOCK:   -7.99 KCAL/MOL
REMARK 924 INTRA-LIGAND FREE ENERGY PREDICTED BY IDOCK:   -0.84 KCAL/MOL
REMARK 927      BINDING AFFINITY PREDICTED BY RF-SCORE:    0.00 PKD
ROOT
HETATM    1  C   UNL     1     -11.416  12.281  67.179  1.00  0.00    -0.419 C  
HETATM    2  C   UNL     1     -10.230  12.631  68.085  1.00  0.00    -0.240 C  
ENDROOT
BRANCH   2   3
HETATM    3  N   UNL     1      -9.789  11.482  68.892  1.00  0.00    -0.384 NA 
HETATM    4  H   UNL     1      -9.545  11.787  69.834  1.00  0.00     0.000 HD 
BRANCH   3   5
HETATM    5  C   UNL     1     -10.739  10.361  68.953  1.00  0.00    -0.224 C  
BRANCH   5   6
HETATM    6  C   UNL     1     -11.457  10.222  70.302  1.00  0.00    -0.395 C  
BRANCH   6   7
HETATM    7  C   UNL     1     -11.330   8.837  70.888  1.00  0.00    -0.322 A  
HETATM    8  C   UNL     1     -11.024   6.268  71.927  1.00  0.00    -0.256 A  
HETATM    9  C   UNL     1     -10.887   7.377  72.757  1.00  0.00    -0.326 A  
HETATM   10  O   UNL     1     -10.846   5.011  72.430  1.00  0.00    -0.213 OA 
HETATM   11  C   UNL     1     -11.330   6.420  70.583  1.00  0.00    -0.419 A  
HETATM   12  H   UNL     1     -10.481   6.273  74.419  1.00  0.00     0.000 HD 
HETATM   13  C   UNL     1     -11.042   8.664  72.250  1.00  0.00    -0.395 A  
HETATM   14  O   UNL     1     -10.587   7.151  74.073  1.00  0.00    -0.317 OA 
HETATM   15  C   UNL     1     -11.486   7.708  70.065  1.00  0.00    -0.012 A  
HETATM   16  H   UNL     1     -10.939   4.254  71.864  1.00  0.00     0.000 HD 
ENDBRANCH   6   7
ENDBRANCH   5   6
ENDBRANCH   3   5
ENDBRANCH   2   3
BRANCH   2  17
HETATM   17  C   UNL     1     -10.624  13.803  69.006  1.00  0.00    -0.161 C  
BRANCH  17  18
HETATM   18  C   UNL     1     -12.107  13.799  69.400  1.00  0.00    -0.377 C  
BRANCH  18  19
HETATM   19  C   UNL     1     -12.310  14.494  70.726  1.00  0.00    -0.410 A  
HETATM   20  C   UNL     1     -11.503  15.580  71.093  1.00  0.00    -0.442 A  
HETATM   21  C   UNL     1     -13.345  14.093  71.584  1.00  0.00    -0.440 A  
HETATM   22  C   UNL     1     -13.573  14.767  72.785  1.00  0.00    -0.542 A  
HETATM   23  H   UNL     1     -12.414  17.284  74.513  1.00  0.00     0.000 HD 
HETATM   24  C   UNL     1     -11.729  16.253  72.295  1.00  0.00    -0.530 A  
HETATM   25  C   UNL     1     -12.765  15.847  73.126  1.00  0.00    -0.524 A  
HETATM   26  O   UNL     1     -12.966  16.546  74.280  1.00  0.00    -0.639 OA 
ENDBRANCH  18  19
ENDBRANCH  17  18
ENDBRANCH   2  17
TORSDOF 7
ENDMDL
MODEL      100
REMARK 921   NORMALIZED FREE ENERGY PREDICTED BY IDOCK:   -5.41 KCAL/MOL
REMARK 922        TOTAL FREE ENERGY PREDICTED BY IDOCK:   -8.79 KCAL/MOL
REMARK 923 INTER-LIGAND FREE ENERGY PREDICTED BY IDOCK:   -7.15 KCAL/MOL
REMARK 924 INTRA-LIGAND FREE ENERGY PREDICTED BY IDOCK:   -1.64 KCAL/MOL
REMARK 927      BINDING AFFINITY PREDICTED BY RF-SCORE:    0.00 PKD
ROOT
HETATM    1  C   UNL     1     -11.348   8.086  72.577  1.00  0.00    -0.469 C  
HETATM    2  C   UNL     1     -12.675   8.242  71.824  1.00  0.00    -0.336 C  
ENDROOT
BRANCH   2   3
HETATM    3  N   UNL     1     -12.773   7.326  70.676  1.00  0.00    -0.600 NA 
HETATM    4  H   UNL     1     -12.940   7.854  69.819  1.00  0.00     0.000 HD 
BRANCH   3   5
HETATM    5  C   UNL     1     -11.627   6.422  70.499  1.00  0.00    -0.358 C  
BRANCH   5   6
HETATM    6  C   UNL     1     -11.158   6.284  69.044  1.00  0.00    -0.446 C  
BRANCH   6   7
HETATM    7  C   UNL     1     -10.340   7.465  68.583  1.00  0.00    -0.215 A  
HETATM    8  C   UNL     1      -8.763   9.596  67.719  1.00  0.00    -0.122 A  
HETATM    9  C   UNL     1      -9.835   9.162  66.944  1.00  0.00    -0.217 A  
HETATM   10  O   UNL     1      -7.974  10.621  67.282  1.00  0.00    -0.113 OA 
HETATM   11  C   UNL     1      -8.474   8.992  68.933  1.00  0.00    -0.130 A  
HETATM   12  H   UNL     1      -9.518  10.528  65.469  1.00  0.00     0.000 HD 
HETATM   13  C   UNL     1     -10.631   8.102  67.367  1.00  0.00    -0.325 A  
HETATM   14  O   UNL     1     -10.061   9.805  65.758  1.00  0.00    -0.293 OA 
HETATM   15  C   UNL     1      -9.268   7.927  69.367  1.00  0.00    -0.145 A  
HETATM   16  H   UNL     1      -7.242  10.917  67.810  1.00  0.00     0.000 HD 
ENDBRANCH   6   7
ENDBRANCH   5   6
ENDBRANCH   3   5
ENDBRANCH   2   3
BRANCH   2  17
HETATM   17  C   UNL     1     -12.820   9.701  71.349  1.00  0.00    -0.471 C  
BRANCH  17  18
HETATM   18  C   UNL     1     -11.758  10.119  70.325  1.00  0.00    -0.361 C  
BRANCH  18  19
HETATM   19  C   UNL     1     -11.929  11.570  69.938  1.00  0.00    -0.426 A  
HETATM   20  C   UNL     1     -12.399  12.505  70.870  1.00  0.00    -0.349 A  
HETATM   21  C   UNL     1     -11.570  12.007  68.655  1.00  0.00    -0.372 A  
HETATM   22  C   UNL     1     -11.672  13.356  68.309  1.00  0.00    -0.391 A  
HETATM   23  H   UNL     1     -12.546  16.222  69.607  1.00  0.00     0.000 HD 
HETATM   24  C   UNL     1     -12.504  13.854  70.525  1.00  0.00    -0.422 A  
HETATM   25  C   UNL     1     -12.134  14.269  69.252  1.00  0.00    -0.313 A  
HETATM   26  O   UNL     1     -12.231  15.599  68.963  1.00  0.00    -0.277 OA 
ENDBRANCH  18  19
ENDBRANCH  17  18
ENDBRANCH   2  17
TORSDOF 7
ENDMDL
MODEL      101
REMARK 921   NORMALIZED FREE ENERGY PREDICTED BY IDOCK:   -5.41 KCAL/MOL
REMARK 922        TOTAL FREE ENERGY PREDICTED BY IDOCK:   -8.79 KCAL/MOL
REMARK 923 INTER-LIGAND FREE ENERGY PREDICTED BY IDOCK:   -7.63 KCAL/MOL
REMARK 924 INTRA-LIGAND FREE ENERGY PREDICTED BY IDOCK:   -1.16 KCAL/MOL
REMARK 927      BINDING AFFINITY PREDICTED BY RF-SCORE:    0.00 PKD
ROOT
HETATM    1  C   UNL     1     -12.427  11.083  71.136  1.00  0.00    -0.502 C  
HETATM    2  C   UNL     1     -11.476  10.951  69.941  1.00  0.00    -0.323 C  
ENDROOT
BRANCH   2   3
HETATM    3  N   UNL     1     -12.184  10.572  68.708  1.00  0.00    -0.780 NA 
HETATM    4  H   UNL     1     -13.165  10.381  68.910  1.00  0.00     0.000 HD 
BRANCH   3   5
HETATM    5  C   UNL     1     -12.073  11.536  67.602  1.00  0.00     0.259 C  
BRANCH   5   6
HETATM    6  C   UNL     1     -11.629  12.939  68.038  1.00  0.00    -0.385 C  
BRANCH   6   7
HETATM    7  C   UNL     1     -11.608  13.923  66.895  1.00  0.00    -0.400 A  
HETATM    8  C   UNL     1     -11.488  15.730  64.775  1.00  0.00    -0.255 A  
HETATM    9  C   UNL     1     -12.173  14.526  64.628  1.00  0.00    -0.460 A  
HETATM   10  O   UNL     1     -11.406  16.601  63.726  1.00  0.00    -1.457 OA 
HETATM   11  C   UNL     1     -10.874  16.056  65.974  1.00  0.00    -0.190 A  
HETATM   12  H   UNL     1     -12.708  14.890  62.698  1.00  0.00     0.000 HD 
HETATM   13  C   UNL     1     -12.243  13.620  65.681  1.00  0.00    -0.490 A  
HETATM   14  O   UNL     1     -12.756  14.272  63.417  1.00  0.00    -0.733 OA 
HETATM   15  C   UNL     1     -10.938  15.151  67.037  1.00  0.00    -0.322 A  
HETATM   16  H   UNL     1     -10.938  17.422  63.826  1.00  0.00     0.000 HD 
ENDBRANCH   6   7
ENDBRANCH   5   6
ENDBRANCH   3   5
ENDBRANCH   2   3
BRANCH   2  17
HETATM   17  C   UNL     1     -10.391   9.907  70.269  1.00  0.00    -0.339 C  
BRANCH  17  18
HETATM   18  C   UNL     1      -9.005  10.274  69.724  1.00  0.00    -0.079 C  
BRANCH  18  19
HETATM   19  C   UNL     1      -8.961  10.111  68.222  1.00  0.00    -0.120 A  
HETATM   20  C   UNL     1      -8.436  11.126  67.410  1.00  0.00    -0.134 A  
HETATM   21  C   UNL     1      -9.398   8.919  67.626  1.00  0.00    -0.156 A  
HETATM   22  C   UNL     1      -9.308   8.741  66.245  1.00  0.00    -0.283 A  
HETATM   23  H   UNL     1      -8.290  10.312  63.569  1.00  0.00     0.000 HD 
HETATM   24  C   UNL     1      -8.347  10.949  66.028  1.00  0.00    -0.165 A  
HETATM   25  C   UNL     1      -8.777   9.758  65.458  1.00  0.00    -0.149 A  
HETATM   26  O   UNL     1      -8.653   9.618  64.106  1.00  0.00    -0.166 OA 
ENDBRANCH  18  19
ENDBRANCH  17  18
ENDBRANCH   2  17
TORSDOF 7
ENDMDL
MODEL      102
REMARK 921   NORMALIZED FREE ENERGY PREDICTED BY IDOCK:   -5.39 KCAL/MOL
REMARK 922        TOTAL FREE ENERGY PREDICTED BY IDOCK:   -8.76 KCAL/MOL
REMARK 923 INTER-LIGAND FREE ENERGY PREDICTED BY IDOCK:   -7.16 KCAL/MOL
REMARK 924 INTRA-LIGAND FREE ENERGY PREDICTED BY IDOCK:   -1.59 KCAL/MOL
REMARK 927      BINDING AFFINITY PREDICTED BY RF-SCORE:    0.00 PKD
ROOT
HETATM    1  C   UNL     1      -7.533   8.835  65.651  1.00  0.00    -0.085 C  
HETATM    2  C   UNL     1      -8.857   9.557  65.926  1.00  0.00    -0.164 C  
ENDROOT
BRANCH   2   3
HETATM    3  N   UNL     1      -9.987   8.621  66.039  1.00  0.00    -0.460 NA 
HETATM    4  H   UNL     1      -9.715   7.698  65.700  1.00  0.00     0.000 HD 
BRANCH   3   5
HETATM    5  C   UNL     1     -10.578   8.514  67.382  1.00  0.00    -0.234 C  
BRANCH   5   6
HETATM    6  C   UNL     1      -9.881   9.378  68.442  1.00  0.00    -0.177 C  
BRANCH   6   7
HETATM    7  C   UNL     1     -10.853   9.998  69.416  1.00  0.00    -0.270 A  
HETATM    8  C   UNL     1     -12.592  11.131  71.278  1.00  0.00    -0.398 A  
HETATM    9  C   UNL     1     -12.003  11.927  70.299  1.00  0.00    -0.330 A  
HETATM   10  O   UNL     1     -13.421  11.692  72.206  1.00  0.00    -0.610 OA 
HETATM   11  C   UNL     1     -12.339   9.769  71.332  1.00  0.00    -0.480 A  
HETATM   12  H   UNL     1     -12.889  13.642  70.944  1.00  0.00     0.000 HD 
HETATM   13  C   UNL     1     -11.137  11.371  69.362  1.00  0.00    -0.301 A  
HETATM   14  O   UNL     1     -12.298  13.263  70.304  1.00  0.00    -0.315 OA 
HETATM   15  C   UNL     1     -11.471   9.202  70.396  1.00  0.00    -0.228 A  
HETATM   16  H   UNL     1     -13.823  11.149  72.874  1.00  0.00     0.000 HD 
ENDBRANCH   6   7
ENDBRANCH   5   6
ENDBRANCH   3   5
ENDBRANCH   2   3
BRANCH   2  17
HETATM   17  C   UNL     1      -9.124  10.574  64.798  1.00  0.00    -0.242 C  
BRANCH  17  18
HETATM   18  C   UNL     1     -10.595  10.996  64.693  1.00  0.00    -0.369 C  
BRANCH  18  19
HETATM   19  C   UNL     1     -10.855  12.239  65.511  1.00  0.00    -0.319 A  
HETATM   20  C   UNL     1     -12.148  12.769  65.612  1.00  0.00    -0.514 A  
HETATM   21  C   UNL     1      -9.811  12.848  66.223  1.00  0.00    -0.273 A  
HETATM   22  C   UNL     1     -10.055  13.964  67.026  1.00  0.00    -0.256 A  
HETATM   23  H   UNL     1     -12.517  15.891  67.969  1.00  0.00     0.000 HD 
HETATM   24  C   UNL     1     -12.393  13.886  66.414  1.00  0.00    -0.468 A  
HETATM   25  C   UNL     1     -11.348  14.470  67.118  1.00  0.00    -0.350 A  
HETATM   26  O   UNL     1     -11.634  15.546  67.906  1.00  0.00    -0.319 OA 
ENDBRANCH  18  19
ENDBRANCH  17  18
ENDBRANCH   2  17
TORSDOF 7
ENDMDL
MODEL      103
REMARK 921   NORMALIZED FREE ENERGY PREDICTED BY IDOCK:   -5.36 KCAL/MOL
REMARK 922        TOTAL FREE ENERGY PREDICTED BY IDOCK:   -8.72 KCAL/MOL
REMARK 923 INTER-LIGAND FREE ENERGY PREDICTED BY IDOCK:   -8.06 KCAL/MOL
REMARK 924 INTRA-LIGAND FREE ENERGY PREDICTED BY IDOCK:   -0.66 KCAL/MOL
REMARK 927      BINDING AFFINITY PREDICTED BY RF-SCORE:    0.00 PKD
ROOT
HETATM    1  C   UNL     1      -7.005   8.973  66.036  1.00  0.00    -0.085 C  
HETATM    2  C   UNL     1      -8.204   9.444  66.866  1.00  0.00    -0.116 C  
ENDROOT
BRANCH   2   3
HETATM    3  N   UNL     1      -8.297   8.742  68.157  1.00  0.00    -0.121 NA 
HETATM    4  H   UNL     1      -7.548   8.054  68.237  1.00  0.00     0.000 HD 
BRANCH   3   5
HETATM    5  C   UNL     1      -8.313   9.614  69.341  1.00  0.00    -0.145 C  
BRANCH   5   6
HETATM    6  C   UNL     1      -8.411   8.857  70.673  1.00  0.00    -0.211 C  
BRANCH   6   7
HETATM    7  C   UNL     1      -9.807   8.870  71.247  1.00  0.00    -0.361 A  
HETATM    8  C   UNL     1     -12.353   8.917  72.381  1.00  0.00    -0.315 A  
HETATM    9  C   UNL     1     -12.014   9.834  71.390  1.00  0.00    -0.411 A  
HETATM   10  O   UNL     1     -13.591   8.959  72.956  1.00  0.00    -0.914 OA 
HETATM   11  C   UNL     1     -11.444   7.961  72.805  1.00  0.00    -0.428 A  
HETATM   12  H   UNL     1     -13.826  10.760  71.413  1.00  0.00     0.000 HD 
HETATM   13  C   UNL     1     -10.747   9.816  70.814  1.00  0.00    -0.393 A  
HETATM   14  O   UNL     1     -12.962  10.748  71.020  1.00  0.00    -0.360 OA 
HETATM   15  C   UNL     1     -10.169   7.935  72.233  1.00  0.00    -0.302 A  
HETATM   16  H   UNL     1     -13.823   8.334  73.633  1.00  0.00     0.000 HD 
ENDBRANCH   6   7
ENDBRANCH   5   6
ENDBRANCH   3   5
ENDBRANCH   2   3
BRANCH   2  17
HETATM   17  C   UNL     1      -9.498   9.229  66.056  1.00  0.00    -0.311 C  
BRANCH  17  18
HETATM   18  C   UNL     1      -9.565  10.074  64.777  1.00  0.00    -0.374 C  
BRANCH  18  19
HETATM   19  C   UNL     1     -10.578  11.185  64.923  1.00  0.00    -0.356 A  
HETATM   20  C   UNL     1     -11.108  11.821  63.792  1.00  0.00    -0.513 A  
HETATM   21  C   UNL     1     -11.039  11.559  66.194  1.00  0.00    -0.302 A  
HETATM   22  C   UNL     1     -12.017  12.546  66.333  1.00  0.00    -0.386 A  
HETATM   23  H   UNL     1     -13.858  14.533  64.509  1.00  0.00     0.000 HD 
HETATM   24  C   UNL     1     -12.084  12.810  63.930  1.00  0.00    -0.562 A  
HETATM   25  C   UNL     1     -12.535  13.159  65.196  1.00  0.00    -0.483 A  
HETATM   26  O   UNL     1     -13.504  14.115  65.285  1.00  0.00    -0.606 OA 
ENDBRANCH  18  19
ENDBRANCH  17  18
ENDBRANCH   2  17
TORSDOF 7
ENDMDL
MODEL      104
REMARK 921   NORMALIZED FREE ENERGY PREDICTED BY IDOCK:   -5.32 KCAL/MOL
REMARK 922        TOTAL FREE ENERGY PREDICTED BY IDOCK:   -8.66 KCAL/MOL
REMARK 923 INTER-LIGAND FREE ENERGY PREDICTED BY IDOCK:   -7.87 KCAL/MOL
REMARK 924 INTRA-LIGAND FREE ENERGY PREDICTED BY IDOCK:   -0.80 KCAL/MOL
REMARK 927      BINDING AFFINITY PREDICTED BY RF-SCORE:    0.00 PKD
ROOT
HETATM    1  C   UNL     1     -12.491  12.043  63.676  1.00  0.00    -0.637 C  
HETATM    2  C   UNL     1     -12.700  13.227  64.627  1.00  0.00    -0.218 C  
ENDROOT
BRANCH   2   3
HETATM    3  N   UNL     1     -12.235  14.496  64.045  1.00  0.00    -0.927 NA 
HETATM    4  H   UNL     1     -12.975  15.196  64.090  1.00  0.00     0.000 HD 
BRANCH   3   5
HETATM    5  C   UNL     1     -10.995  15.033  64.626  1.00  0.00    -0.303 C  
BRANCH   5   6
HETATM    6  C   UNL     1     -11.049  16.534  64.939  1.00  0.00    -0.199 C  
BRANCH   6   7
HETATM    7  C   UNL     1     -10.119  16.928  66.060  1.00  0.00    -0.336 A  
HETATM    8  C   UNL     1      -8.342  17.676  68.074  1.00  0.00    -0.246 A  
HETATM    9  C   UNL     1      -9.489  18.429  67.841  1.00  0.00    -0.285 A  
HETATM   10  O   UNL     1      -7.458  18.059  69.042  1.00  0.00    -0.256 OA 
HETATM   11  C   UNL     1      -8.075  16.539  67.326  1.00  0.00    -0.193 A  
HETATM   12  H   UNL     1      -9.078  19.787  69.300  1.00  0.00     0.000 HD 
HETATM   13  C   UNL     1     -10.385  18.062  66.841  1.00  0.00    -0.377 A  
HETATM   14  O   UNL     1      -9.690  19.537  68.618  1.00  0.00    -0.389 OA 
HETATM   15  C   UNL     1      -8.968  16.164  66.320  1.00  0.00    -0.379 A  
HETATM   16  H   UNL     1      -6.675  17.545  69.201  1.00  0.00     0.000 HD 
ENDBRANCH   6   7
ENDBRANCH   5   6
ENDBRANCH   3   5
ENDBRANCH   2   3
BRANCH   2  17
HETATM   17  C   UNL     1     -11.959  12.952  65.951  1.00  0.00    -0.504 C  
BRANCH  17  18
HETATM   18  C   UNL     1     -11.235  11.599  65.976  1.00  0.00    -0.299 C  
BRANCH  18  19
HETATM   19  C   UNL     1     -11.236  11.019  67.372  1.00  0.00    -0.355 A  
HETATM   20  C   UNL     1     -10.571   9.815  67.643  1.00  0.00    -0.333 A  
HETATM   21  C   UNL     1     -11.859  11.707  68.423  1.00  0.00    -0.346 A  
HETATM   22  C   UNL     1     -11.814  11.204  69.725  1.00  0.00    -0.422 A  
HETATM   23  H   UNL     1     -10.600   8.680  71.404  1.00  0.00     0.000 HD 
HETATM   24  C   UNL     1     -10.528   9.311  68.944  1.00  0.00    -0.235 A  
HETATM   25  C   UNL     1     -11.143  10.011  69.974  1.00  0.00    -0.295 A  
HETATM   26  O   UNL     1     -11.059   9.494  71.234  1.00  0.00    -0.334 OA 
ENDBRANCH  18  19
ENDBRANCH  17  18
ENDBRANCH   2  17
TORSDOF 7
ENDMDL
MODEL      105
REMARK 921   NORMALIZED FREE ENERGY PREDICTED BY IDOCK:   -5.30 KCAL/MOL
REMARK 922        TOTAL FREE ENERGY PREDICTED BY IDOCK:   -8.63 KCAL/MOL
REMARK 923 INTER-LIGAND FREE ENERGY PREDICTED BY IDOCK:   -7.35 KCAL/MOL
REMARK 924 INTRA-LIGAND FREE ENERGY PREDICTED BY IDOCK:   -1.29 KCAL/MOL
REMARK 927      BINDING AFFINITY PREDICTED BY RF-SCORE:    0.00 PKD
ROOT
HETATM    1  C   UNL     1     -12.658  13.939  65.779  1.00  0.00    -0.533 C  
HETATM    2  C   UNL     1     -11.818  14.456  64.605  1.00  0.00    -0.451 C  
ENDROOT
BRANCH   2   3
HETATM    3  N   UNL     1     -11.447  13.381  63.671  1.00  0.00    -0.625 NA 
HETATM    4  H   UNL     1     -11.387  13.746  62.721  1.00  0.00     0.000 HD 
BRANCH   3   5
HETATM    5  C   UNL     1     -10.215  12.653  64.014  1.00  0.00    -0.338 C  
BRANCH   5   6
HETATM    6  C   UNL     1     -10.451  11.218  64.501  1.00  0.00    -0.396 C  
BRANCH   6   7
HETATM    7  C   UNL     1     -10.013  11.010  65.930  1.00  0.00    -0.289 A  
HETATM    8  C   UNL     1      -9.264  10.677  68.595  1.00  0.00    -0.181 A  
HETATM    9  C   UNL     1      -9.807   9.610  67.884  1.00  0.00    -0.154 A  
HETATM   10  O   UNL     1      -8.923  10.520  69.908  1.00  0.00    -0.388 OA 
HETATM   11  C   UNL     1      -9.071  11.908  67.989  1.00  0.00    -0.189 A  
HETATM   12  H   UNL     1      -9.712   8.318  69.454  1.00  0.00     0.000 HD 
HETATM   13  C   UNL     1     -10.180   9.764  66.552  1.00  0.00    -0.289 A  
HETATM   14  O   UNL     1      -9.967   8.423  68.545  1.00  0.00    -0.176 OA 
HETATM   15  C   UNL     1      -9.443  12.073  66.652  1.00  0.00    -0.222 A  
HETATM   16  H   UNL     1      -8.553  11.248  70.394  1.00  0.00     0.000 HD 
ENDBRANCH   6   7
ENDBRANCH   5   6
ENDBRANCH   3   5
ENDBRANCH   2   3
BRANCH   2  17
HETATM   17  C   UNL     1     -10.549  15.140  65.152  1.00  0.00    -0.447 C  
BRANCH  17  18
HETATM   18  C   UNL     1     -10.638  15.489  66.644  1.00  0.00    -0.307 C  
BRANCH  18  19
HETATM   19  C   UNL     1     -10.386  16.963  66.863  1.00  0.00    -0.304 A  
HETATM   20  C   UNL     1     -10.143  17.814  65.777  1.00  0.00    -0.073 A  
HETATM   21  C   UNL     1     -10.445  17.505  68.156  1.00  0.00    -0.386 A  
HETATM   22  C   UNL     1     -10.269  18.875  68.359  1.00  0.00    -0.433 A  
HETATM   23  H   UNL     1      -9.720  21.617  66.671  1.00  0.00     0.000 HD 
HETATM   24  C   UNL     1      -9.966  19.184  65.980  1.00  0.00    -0.366 A  
HETATM   25  C   UNL     1     -10.036  19.704  67.266  1.00  0.00    -0.409 A  
HETATM   26  O   UNL     1      -9.878  21.051  67.418  1.00  0.00    -0.393 OA 
ENDBRANCH  18  19
ENDBRANCH  17  18
ENDBRANCH   2  17
TORSDOF 7
ENDMDL
MODEL      106
REMARK 921   NORMALIZED FREE ENERGY PREDICTED BY IDOCK:   -5.29 KCAL/MOL
REMARK 922        TOTAL FREE ENERGY PREDICTED BY IDOCK:   -8.61 KCAL/MOL
REMARK 923 INTER-LIGAND FREE ENERGY PREDICTED BY IDOCK:   -7.10 KCAL/MOL
REMARK 924 INTRA-LIGAND FREE ENERGY PREDICTED BY IDOCK:   -1.52 KCAL/MOL
REMARK 927      BINDING AFFINITY PREDICTED BY RF-SCORE:    0.00 PKD
ROOT
HETATM    1  C   UNL     1      -5.500  12.942  69.925  1.00  0.00    -0.102 C  
HETATM    2  C   UNL     1      -6.910  13.388  69.524  1.00  0.00     0.066 C  
ENDROOT
BRANCH   2   3
HETATM    3  N   UNL     1      -7.680  12.300  68.899  1.00  0.00    -0.313 NA 
HETATM    4  H   UNL     1      -8.354  11.920  69.564  1.00  0.00     0.000 HD 
BRANCH   3   5
HETATM    5  C   UNL     1      -8.356  12.656  67.642  1.00  0.00    -0.174 C  
BRANCH   5   6
HETATM    6  C   UNL     1      -9.864  12.900  67.790  1.00  0.00    -0.221 C  
BRANCH   6   7
HETATM    7  C   UNL     1     -10.419  13.782  66.699  1.00  0.00    -0.272 A  
HETATM    8  C   UNL     1     -11.369  15.416  64.649  1.00  0.00    -0.355 A  
HETATM    9  C   UNL     1     -11.761  14.082  64.716  1.00  0.00    -0.394 A  
HETATM   10  O   UNL     1     -11.812  16.209  63.629  1.00  0.00    -1.370 OA 
HETATM   11  C   UNL     1     -10.520  15.955  65.604  1.00  0.00    -0.411 A  
HETATM   12  H   UNL     1     -12.918  14.181  63.045  1.00  0.00     0.000 HD 
HETATM   13  C   UNL     1     -11.297  13.259  65.737  1.00  0.00    -0.328 A  
HETATM   14  O   UNL     1     -12.602  13.619  63.741  1.00  0.00    -0.705 OA 
HETATM   15  C   UNL     1     -10.048  15.136  66.633  1.00  0.00    -0.271 A  
HETATM   16  H   UNL     1     -11.544  17.120  63.583  1.00  0.00     0.000 HD 
ENDBRANCH   6   7
ENDBRANCH   5   6
ENDBRANCH   3   5
ENDBRANCH   2   3
BRANCH   2  17
HETATM   17  C   UNL     1      -6.808  14.584  68.556  1.00  0.00    -0.096 C  
BRANCH  17  18
HETATM   18  C   UNL     1      -7.204  15.922  69.195  1.00  0.00    -0.196 C  
BRANCH  18  19
HETATM   19  C   UNL     1      -7.324  17.001  68.144  1.00  0.00    -0.192 A  
HETATM   20  C   UNL     1      -8.024  18.185  68.415  1.00  0.00    -0.312 A  
HETATM   21  C   UNL     1      -6.691  16.852  66.902  1.00  0.00    -0.252 A  
HETATM   22  C   UNL     1      -6.750  17.869  65.947  1.00  0.00    -0.312 A  
HETATM   23  H   UNL     1      -7.985  20.866  65.543  1.00  0.00     0.000 HD 
HETATM   24  C   UNL     1      -8.086  19.202  67.460  1.00  0.00    -0.301 A  
HETATM   25  C   UNL     1      -7.444  19.040  66.239  1.00  0.00    -0.269 A  
HETATM   26  O   UNL     1      -7.511  20.066  65.344  1.00  0.00    -0.315 OA 
ENDBRANCH  18  19
ENDBRANCH  17  18
ENDBRANCH   2  17
TORSDOF 7
ENDMDL
MODEL      107
REMARK 921   NORMALIZED FREE ENERGY PREDICTED BY IDOCK:   -5.28 KCAL/MOL
REMARK 922        TOTAL FREE ENERGY PREDICTED BY IDOCK:   -8.61 KCAL/MOL
REMARK 923 INTER-LIGAND FREE ENERGY PREDICTED BY IDOCK:   -7.26 KCAL/MOL
REMARK 924 INTRA-LIGAND FREE ENERGY PREDICTED BY IDOCK:   -1.35 KCAL/MOL
REMARK 927      BINDING AFFINITY PREDICTED BY RF-SCORE:    0.00 PKD
ROOT
HETATM    1  C   UNL     1     -10.085  10.427  64.805  1.00  0.00    -0.387 C  
HETATM    2  C   UNL     1     -10.263  11.079  66.180  1.00  0.00    -0.247 C  
ENDROOT
BRANCH   2   3
HETATM    3  N   UNL     1      -9.881  12.500  66.175  1.00  0.00    -0.255 NA 
HETATM    4  H   UNL     1      -9.327  12.712  65.346  1.00  0.00     0.000 HD 
BRANCH   3   5
HETATM    5  C   UNL     1     -11.001  13.447  66.291  1.00  0.00    -0.288 C  
BRANCH   5   6
HETATM    6  C   UNL     1     -12.009  13.092  67.392  1.00  0.00    -0.372 C  
BRANCH   6   7
HETATM    7  C   UNL     1     -11.910  14.005  68.589  1.00  0.00    -0.396 A  
HETATM    8  C   UNL     1     -11.778  15.748  70.761  1.00  0.00    -0.399 A  
HETATM    9  C   UNL     1     -12.412  14.516  70.893  1.00  0.00    -0.345 A  
HETATM   10  O   UNL     1     -11.738  16.613  71.818  1.00  0.00    -0.638 OA 
HETATM   11  C   UNL     1     -11.190  16.119  69.562  1.00  0.00    -0.337 A  
HETATM   12  H   UNL     1     -12.923  14.815  72.840  1.00  0.00     0.000 HD 
HETATM   13  C   UNL     1     -12.480  13.637  69.816  1.00  0.00    -0.193 A  
HETATM   14  O   UNL     1     -12.969  14.215  72.106  1.00  0.00    -0.347 OA 
HETATM   15  C   UNL     1     -11.253  15.244  68.475  1.00  0.00    -0.308 A  
HETATM   16  H   UNL     1     -11.306  17.454  71.728  1.00  0.00     0.000 HD 
ENDBRANCH   6   7
ENDBRANCH   5   6
ENDBRANCH   3   5
ENDBRANCH   2   3
BRANCH   2  17
HETATM   17  C   UNL     1      -9.420  10.311  67.218  1.00  0.00    -0.174 C  
BRANCH  17  18
HETATM   18  C   UNL     1      -9.249  11.063  68.544  1.00  0.00    -0.177 C  
BRANCH  18  19
HETATM   19  C   UNL     1      -9.940  10.328  69.669  1.00  0.00    -0.240 A  
HETATM   20  C   UNL     1     -11.325  10.438  69.848  1.00  0.00    -0.370 A  
HETATM   21  C   UNL     1      -9.207   9.485  70.518  1.00  0.00    -0.284 A  
HETATM   22  C   UNL     1      -9.847   8.759  71.524  1.00  0.00    -0.371 A  
HETATM   23  H   UNL     1     -12.834   8.251  72.743  1.00  0.00     0.000 HD 
HETATM   24  C   UNL     1     -11.966   9.714  70.856  1.00  0.00    -0.391 A  
HETATM   25  C   UNL     1     -11.225   8.877  71.679  1.00  0.00    -0.345 A  
HETATM   26  O   UNL     1     -11.893   8.171  72.637  1.00  0.00    -0.395 OA 
ENDBRANCH  18  19
ENDBRANCH  17  18
ENDBRANCH   2  17
TORSDOF 7
ENDMDL
MODEL      108
REMARK 921   NORMALIZED FREE ENERGY PREDICTED BY IDOCK:   -5.28 KCAL/MOL
REMARK 922        TOTAL FREE ENERGY PREDICTED BY IDOCK:   -8.60 KCAL/MOL
REMARK 923 INTER-LIGAND FREE ENERGY PREDICTED BY IDOCK:   -7.75 KCAL/MOL
REMARK 924 INTRA-LIGAND FREE ENERGY PREDICTED BY IDOCK:   -0.84 KCAL/MOL
REMARK 927      BINDING AFFINITY PREDICTED BY RF-SCORE:    0.00 PKD
ROOT
HETATM    1  C   UNL     1     -12.723  12.123  71.556  1.00  0.00    -0.348 C  
HETATM    2  C   UNL     1     -12.774  11.359  70.228  1.00  0.00    -0.044 C  
ENDROOT
BRANCH   2   3
HETATM    3  N   UNL     1     -13.172   9.954  70.411  1.00  0.00    -0.554 NA 
HETATM    4  H   UNL     1     -12.610   9.349  69.811  1.00  0.00     0.000 HD 
BRANCH   3   5
HETATM    5  C   UNL     1     -13.132   9.469  71.799  1.00  0.00    -0.418 C  
BRANCH   5   6
HETATM    6  C   UNL     1     -12.620   8.030  71.944  1.00  0.00    -0.359 C  
BRANCH   6   7
HETATM    7  C   UNL     1     -11.173   7.967  72.369  1.00  0.00    -0.432 A  
HETATM    8  C   UNL     1      -8.497   7.773  73.126  1.00  0.00    -0.163 A  
HETATM    9  C   UNL     1      -8.871   8.638  72.101  1.00  0.00    -0.175 A  
HETATM   10  O   UNL     1      -7.182   7.657  73.477  1.00  0.00    -0.087 OA 
HETATM   11  C   UNL     1      -9.444   7.013  73.795  1.00  0.00    -0.258 A  
HETATM   12  H   UNL     1      -6.974   9.284  71.747  1.00  0.00     0.000 HD 
HETATM   13  C   UNL     1     -10.205   8.746  71.719  1.00  0.00    -0.408 A  
HETATM   14  O   UNL     1      -7.884   9.358  71.486  1.00  0.00    -0.308 OA 
HETATM   15  C   UNL     1     -10.785   7.114  73.417  1.00  0.00    -0.410 A  
HETATM   16  H   UNL     1      -6.926   7.067  74.176  1.00  0.00     0.000 HD 
ENDBRANCH   6   7
ENDBRANCH   5   6
ENDBRANCH   3   5
ENDBRANCH   2   3
BRANCH   2  17
HETATM   17  C   UNL     1     -11.393  11.432  69.548  1.00  0.00    -0.357 C  
BRANCH  17  18
HETATM   18  C   UNL     1     -11.081  12.807  68.943  1.00  0.00    -0.310 C  
BRANCH  18  19
HETATM   19  C   UNL     1     -11.501  12.861  67.492  1.00  0.00    -0.386 A  
HETATM   20  C   UNL     1     -11.163  11.822  66.614  1.00  0.00    -0.383 A  
HETATM   21  C   UNL     1     -12.278  13.929  67.020  1.00  0.00    -0.392 A  
HETATM   22  C   UNL     1     -12.716  13.957  65.695  1.00  0.00    -0.534 A  
HETATM   23  H   UNL     1     -12.568  12.175  62.962  1.00  0.00     0.000 HD 
HETATM   24  C   UNL     1     -11.600  11.850  65.288  1.00  0.00    -0.278 A  
HETATM   25  C   UNL     1     -12.377  12.912  64.841  1.00  0.00    -0.475 A  
HETATM   26  O   UNL     1     -12.800  12.889  63.545  1.00  0.00    -0.677 OA 
ENDBRANCH  18  19
ENDBRANCH  17  18
ENDBRANCH   2  17
TORSDOF 7
ENDMDL
MODEL      109
REMARK 921   NORMALIZED FREE ENERGY PREDICTED BY IDOCK:   -5.26 KCAL/MOL
REMARK 922        TOTAL FREE ENERGY PREDICTED BY IDOCK:   -8.58 KCAL/MOL
REMARK 923 INTER-LIGAND FREE ENERGY PREDICTED BY IDOCK:   -7.84 KCAL/MOL
REMARK 924 INTRA-LIGAND FREE ENERGY PREDICTED BY IDOCK:   -0.73 KCAL/MOL
REMARK 927      BINDING AFFINITY PREDICTED BY RF-SCORE:    0.00 PKD
ROOT
HETATM    1  C   UNL     1     -14.248   7.730  71.644  1.00  0.00    -0.572 C  
HETATM    2  C   UNL     1     -12.733   7.960  71.646  1.00  0.00    -0.330 C  
ENDROOT
BRANCH   2   3
HETATM    3  N   UNL     1     -12.048   7.139  72.657  1.00  0.00    -0.507 NA 
HETATM    4  H   UNL     1     -12.650   6.370  72.953  1.00  0.00     0.000 HD 
BRANCH   3   5
HETATM    5  C   UNL     1     -10.730   6.623  72.255  1.00  0.00    -0.221 C  
BRANCH   5   6
HETATM    6  C   UNL     1     -10.757   5.182  71.727  1.00  0.00    -0.203 C  
BRANCH   6   7
HETATM    7  C   UNL     1     -10.340   5.086  70.280  1.00  0.00    -0.299 A  
HETATM    8  C   UNL     1      -9.602   4.829  67.604  1.00  0.00    -0.155 A  
HETATM    9  C   UNL     1     -10.590   5.738  67.971  1.00  0.00    -0.224 A  
HETATM   10  O   UNL     1      -9.260   4.685  66.289  1.00  0.00    -0.123 OA 
HETATM   11  C   UNL     1      -8.959   4.055  68.558  1.00  0.00    -0.162 A  
HETATM   12  H   UNL     1     -10.925   6.375  66.067  1.00  0.00     0.000 HD 
HETATM   13  C   UNL     1     -10.963   5.877  69.304  1.00  0.00    -0.397 A  
HETATM   14  O   UNL     1     -11.180   6.470  66.977  1.00  0.00    -0.397 OA 
HETATM   15  C   UNL     1      -9.328   4.187  69.899  1.00  0.00    -0.235 A  
HETATM   16  H   UNL     1      -8.586   4.064  66.038  1.00  0.00     0.000 HD 
ENDBRANCH   6   7
ENDBRANCH   5   6
ENDBRANCH   3   5
ENDBRANCH   2   3
BRANCH   2  17
HETATM   17  C   UNL     1     -12.446   9.454  71.898  1.00  0.00    -0.468 C  
BRANCH  17  18
HETATM   18  C   UNL     1     -12.337  10.280  70.610  1.00  0.00    -0.416 C  
BRANCH  18  19
HETATM   19  C   UNL     1     -12.584  11.745  70.893  1.00  0.00    -0.384 A  
HETATM   20  C   UNL     1     -12.149  12.727  69.992  1.00  0.00    -0.355 A  
HETATM   21  C   UNL     1     -13.296  12.134  72.036  1.00  0.00    -0.470 A  
HETATM   22  C   UNL     1     -13.576  13.481  72.274  1.00  0.00    -0.690 A  
HETATM   23  H   UNL     1     -13.115  16.419  70.925  1.00  0.00     0.000 HD 
HETATM   24  C   UNL     1     -12.427  14.074  70.230  1.00  0.00    -0.403 A  
HETATM   25  C   UNL     1     -13.143  14.440  71.363  1.00  0.00    -0.346 A  
HETATM   26  O   UNL     1     -13.411  15.765  71.547  1.00  0.00    -0.484 OA 
ENDBRANCH  18  19
ENDBRANCH  17  18
ENDBRANCH   2  17
TORSDOF 7
ENDMDL
MODEL      110
REMARK 921   NORMALIZED FREE ENERGY PREDICTED BY IDOCK:   -5.26 KCAL/MOL
REMARK 922        TOTAL FREE ENERGY PREDICTED BY IDOCK:   -8.57 KCAL/MOL
REMARK 923 INTER-LIGAND FREE ENERGY PREDICTED BY IDOCK:   -7.44 KCAL/MOL
REMARK 924 INTRA-LIGAND FREE ENERGY PREDICTED BY IDOCK:   -1.13 KCAL/MOL
REMARK 927      BINDING AFFINITY PREDICTED BY RF-SCORE:    0.00 PKD
ROOT
HETATM    1  C   UNL     1      -5.869  10.585  66.963  1.00  0.00    -0.052 C  
HETATM    2  C   UNL     1      -7.253  11.218  67.141  1.00  0.00    -0.126 C  
ENDROOT
BRANCH   2   3
HETATM    3  N   UNL     1      -7.196  12.689  67.137  1.00  0.00    -0.347 NA 
HETATM    4  H   UNL     1      -7.039  13.032  66.189  1.00  0.00     0.000 HD 
BRANCH   3   5
HETATM    5  C   UNL     1      -8.362  13.360  67.732  1.00  0.00    -0.178 C  
BRANCH   5   6
HETATM    6  C   UNL     1      -9.009  14.412  66.821  1.00  0.00    -0.256 C  
BRANCH   6   7
HETATM    7  C   UNL     1     -10.089  13.832  65.940  1.00  0.00    -0.325 A  
HETATM    8  C   UNL     1     -12.125  12.738  64.382  1.00  0.00    -0.416 A  
HETATM    9  C   UNL     1     -11.925  14.115  64.400  1.00  0.00    -0.457 A  
HETATM   10  O   UNL     1     -13.141  12.205  63.640  1.00  0.00    -0.787 OA 
HETATM   11  C   UNL     1     -11.311  11.892  65.118  1.00  0.00    -0.328 A  
HETATM   12  H   UNL     1     -13.459  14.509  63.122  1.00  0.00     0.000 HD 
HETATM   13  C   UNL     1     -10.908  14.672  65.171  1.00  0.00    -0.414 A  
HETATM   14  O   UNL     1     -12.765  14.889  63.648  1.00  0.00    -0.689 OA 
HETATM   15  C   UNL     1     -10.288  12.441  65.896  1.00  0.00    -0.282 A  
HETATM   16  H   UNL     1     -13.278  11.265  63.628  1.00  0.00     0.000 HD 
ENDBRANCH   6   7
ENDBRANCH   5   6
ENDBRANCH   3   5
ENDBRANCH   2   3
BRANCH   2  17
HETATM   17  C   UNL     1      -7.875  10.718  68.460  1.00  0.00    -0.122 C  
BRANCH  17  18
HETATM   18  C   UNL     1      -8.986   9.681  68.257  1.00  0.00    -0.123 C  
BRANCH  18  19
HETATM   19  C   UNL     1     -10.140   9.942  69.199  1.00  0.00    -0.210 A  
HETATM   20  C   UNL     1     -10.141   9.400  70.491  1.00  0.00    -0.335 A  
HETATM   21  C   UNL     1     -11.199  10.773  68.805  1.00  0.00    -0.331 A  
HETATM   22  C   UNL     1     -12.239  11.063  69.690  1.00  0.00    -0.370 A  
HETATM   23  H   UNL     1     -13.189  10.426  72.749  1.00  0.00     0.000 HD 
HETATM   24  C   UNL     1     -11.182   9.689  71.376  1.00  0.00    -0.426 A  
HETATM   25  C   UNL     1     -12.218  10.522  70.971  1.00  0.00    -0.400 A  
HETATM   26  O   UNL     1     -13.204  10.795  71.874  1.00  0.00    -0.469 OA 
ENDBRANCH  18  19
ENDBRANCH  17  18
ENDBRANCH   2  17
TORSDOF 7
ENDMDL
MODEL      111
REMARK 921   NORMALIZED FREE ENERGY PREDICTED BY IDOCK:   -5.25 KCAL/MOL
REMARK 922        TOTAL FREE ENERGY PREDICTED BY IDOCK:   -8.56 KCAL/MOL
REMARK 923 INTER-LIGAND FREE ENERGY PREDICTED BY IDOCK:   -7.93 KCAL/MOL
REMARK 924 INTRA-LIGAND FREE ENERGY PREDICTED BY IDOCK:   -0.63 KCAL/MOL
REMARK 927      BINDING AFFINITY PREDICTED BY RF-SCORE:    0.00 PKD
ROOT
HETATM    1  C   UNL     1     -11.840  14.323  64.829  1.00  0.00    -0.436 C  
HETATM    2  C   UNL     1     -12.061  13.709  66.216  1.00  0.00    -0.434 C  
ENDROOT
BRANCH   2   3
HETATM    3  N   UNL     1     -12.251  14.735  67.254  1.00  0.00    -0.464 NA 
HETATM    4  H   UNL     1     -12.839  14.371  68.004  1.00  0.00     0.000 HD 
BRANCH   3   5
HETATM    5  C   UNL     1     -11.011  15.298  67.810  1.00  0.00    -0.312 C  
BRANCH   5   6
HETATM    6  C   UNL     1     -11.221  16.566  68.648  1.00  0.00    -0.297 C  
BRANCH   6   7
HETATM    7  C   UNL     1     -10.353  17.713  68.194  1.00  0.00    -0.386 A  
HETATM    8  C   UNL     1      -8.794  19.886  67.405  1.00  0.00    -0.336 A  
HETATM    9  C   UNL     1      -8.233  18.864  68.165  1.00  0.00    -0.311 A  
HETATM   10  O   UNL     1      -8.037  20.963  67.042  1.00  0.00    -0.565 OA 
HETATM   11  C   UNL     1     -10.123  19.832  67.015  1.00  0.00    -0.551 A  
HETATM   12  H   UNL     1      -6.391  19.727  68.243  1.00  0.00     0.000 HD 
HETATM   13  C   UNL     1      -9.001  17.773  68.561  1.00  0.00    -0.288 A  
HETATM   14  O   UNL     1      -6.915  18.982  68.513  1.00  0.00    -0.253 OA 
HETATM   15  C   UNL     1     -10.903  18.741  67.407  1.00  0.00    -0.414 A  
HETATM   16  H   UNL     1      -8.420  21.661  66.523  1.00  0.00     0.000 HD 
ENDBRANCH   6   7
ENDBRANCH   5   6
ENDBRANCH   3   5
ENDBRANCH   2   3
BRANCH   2  17
HETATM   17  C   UNL     1     -10.856  12.816  66.572  1.00  0.00    -0.280 C  
BRANCH  17  18
HETATM   18  C   UNL     1     -11.191  11.319  66.597  1.00  0.00    -0.247 C  
BRANCH  18  19
HETATM   19  C   UNL     1     -11.115  10.777  68.006  1.00  0.00    -0.359 A  
HETATM   20  C   UNL     1     -11.833  11.387  69.044  1.00  0.00    -0.415 A  
HETATM   21  C   UNL     1     -10.365   9.624  68.280  1.00  0.00    -0.240 A  
HETATM   22  C   UNL     1     -10.335   9.086  69.568  1.00  0.00    -0.211 A  
HETATM   23  H   UNL     1     -11.572   9.620  72.543  1.00  0.00     0.000 HD 
HETATM   24  C   UNL     1     -11.802  10.850  70.332  1.00  0.00    -0.449 A  
HETATM   25  C   UNL     1     -11.061   9.703  70.583  1.00  0.00    -0.319 A  
HETATM   26  O   UNL     1     -11.076   9.199  71.851  1.00  0.00    -0.364 OA 
ENDBRANCH  18  19
ENDBRANCH  17  18
ENDBRANCH   2  17
TORSDOF 7
ENDMDL
MODEL      112
REMARK 921   NORMALIZED FREE ENERGY PREDICTED BY IDOCK:   -5.24 KCAL/MOL
REMARK 922        TOTAL FREE ENERGY PREDICTED BY IDOCK:   -8.55 KCAL/MOL
REMARK 923 INTER-LIGAND FREE ENERGY PREDICTED BY IDOCK:   -7.07 KCAL/MOL
REMARK 924 INTRA-LIGAND FREE ENERGY PREDICTED BY IDOCK:   -1.48 KCAL/MOL
REMARK 927      BINDING AFFINITY PREDICTED BY RF-SCORE:    0.00 PKD
ROOT
HETATM    1  C   UNL     1     -11.082  15.834  64.664  1.00  0.00    -0.376 C  
HETATM    2  C   UNL     1     -11.295  14.680  65.650  1.00  0.00    -0.338 C  
ENDROOT
BRANCH   2   3
HETATM    3  N   UNL     1     -11.131  15.106  67.049  1.00  0.00    -0.334 NA 
HETATM    4  H   UNL     1     -11.121  16.125  67.107  1.00  0.00     0.000 HD 
BRANCH   3   5
HETATM    5  C   UNL     1     -12.119  14.556  67.990  1.00  0.00    -0.198 C  
BRANCH   5   6
HETATM    6  C   UNL     1     -11.715  14.680  69.465  1.00  0.00    -0.366 C  
BRANCH   6   7
HETATM    7  C   UNL     1     -12.190  13.515  70.298  1.00  0.00    -0.417 A  
HETATM    8  C   UNL     1     -13.147  11.377  71.810  1.00  0.00    -0.418 A  
HETATM    9  C   UNL     1     -12.318  11.142  70.716  1.00  0.00    -0.406 A  
HETATM   10  O   UNL     1     -13.638  10.328  72.533  1.00  0.00    -0.607 OA 
HETATM   11  C   UNL     1     -13.494  12.669  72.174  1.00  0.00    -0.561 A  
HETATM   12  H   UNL     1     -12.348   9.119  70.935  1.00  0.00     0.000 HD 
HETATM   13  C   UNL     1     -11.831  12.203  69.957  1.00  0.00    -0.383 A  
HETATM   14  O   UNL     1     -12.016   9.842  70.417  1.00  0.00    -0.256 OA 
HETATM   15  C   UNL     1     -13.011  13.740  71.417  1.00  0.00    -0.433 A  
HETATM   16  H   UNL     1     -14.204  10.487  73.279  1.00  0.00     0.000 HD 
ENDBRANCH   6   7
ENDBRANCH   5   6
ENDBRANCH   3   5
ENDBRANCH   2   3
BRANCH   2  17
HETATM   17  C   UNL     1     -10.303  13.545  65.326  1.00  0.00    -0.344 C  
BRANCH  17  18
HETATM   18  C   UNL     1     -10.908  12.143  65.476  1.00  0.00    -0.324 C  
BRANCH  18  19
HETATM   19  C   UNL     1     -10.257  11.399  66.618  1.00  0.00    -0.258 A  
HETATM   20  C   UNL     1     -10.550  10.048  66.849  1.00  0.00    -0.261 A  
HETATM   21  C   UNL     1      -9.310  12.040  67.431  1.00  0.00    -0.178 A  
HETATM   22  C   UNL     1      -8.662  11.342  68.452  1.00  0.00    -0.157 A  
HETATM   23  H   UNL     1      -8.546   8.358  69.775  1.00  0.00     0.000 HD 
HETATM   24  C   UNL     1      -9.905   9.350  67.872  1.00  0.00    -0.197 A  
HETATM   25  C   UNL     1      -8.963  10.000  68.660  1.00  0.00    -0.136 A  
HETATM   26  O   UNL     1      -8.341   9.276  69.634  1.00  0.00    -0.120 OA 
ENDBRANCH  18  19
ENDBRANCH  17  18
ENDBRANCH   2  17
TORSDOF 7
ENDMDL
MODEL      113
REMARK 921   NORMALIZED FREE ENERGY PREDICTED BY IDOCK:   -5.22 KCAL/MOL
REMARK 922        TOTAL FREE ENERGY PREDICTED BY IDOCK:   -8.52 KCAL/MOL
REMARK 923 INTER-LIGAND FREE ENERGY PREDICTED BY IDOCK:   -7.62 KCAL/MOL
REMARK 924 INTRA-LIGAND FREE ENERGY PREDICTED BY IDOCK:   -0.90 KCAL/MOL
REMARK 927      BINDING AFFINITY PREDICTED BY RF-SCORE:    0.00 PKD
ROOT
HETATM    1  C   UNL     1     -14.332   7.943  71.689  1.00  0.00    -0.595 C  
HETATM    2  C   UNL     1     -12.875   8.398  71.544  1.00  0.00    -0.303 C  
ENDROOT
BRANCH   2   3
HETATM    3  N   UNL     1     -11.967   7.644  72.423  1.00  0.00    -0.471 NA 
HETATM    4  H   UNL     1     -12.492   6.958  72.966  1.00  0.00     0.000 HD 
BRANCH   3   5
HETATM    5  C   UNL     1     -10.837   6.993  71.742  1.00  0.00    -0.223 C  
BRANCH   5   6
HETATM    6  C   UNL     1     -11.250   6.067  70.591  1.00  0.00    -0.347 C  
BRANCH   6   7
HETATM    7  C   UNL     1     -10.720   6.527  69.255  1.00  0.00    -0.329 A  
HETATM    8  C   UNL     1      -9.663   7.379  66.820  1.00  0.00    -0.207 A  
HETATM    9  C   UNL     1     -10.200   6.100  66.938  1.00  0.00    -0.208 A  
HETATM   10  O   UNL     1      -9.120   7.785  65.635  1.00  0.00    -0.367 OA 
HETATM   11  C   UNL     1      -9.660   8.250  67.898  1.00  0.00    -0.176 A  
HETATM   12  H   UNL     1      -9.806   5.590  65.008  1.00  0.00     0.000 HD 
HETATM   13  C   UNL     1     -10.735   5.666  68.148  1.00  0.00    -0.231 A  
HETATM   14  O   UNL     1     -10.170   5.294  65.833  1.00  0.00    -0.138 OA 
HETATM   15  C   UNL     1     -10.194   7.824  69.117  1.00  0.00    -0.210 A  
HETATM   16  H   UNL     1      -8.753   8.658  65.554  1.00  0.00     0.000 HD 
ENDBRANCH   6   7
ENDBRANCH   5   6
ENDBRANCH   3   5
ENDBRANCH   2   3
BRANCH   2  17
HETATM   17  C   UNL     1     -12.781   9.905  71.857  1.00  0.00    -0.501 C  
BRANCH  17  18
HETATM   18  C   UNL     1     -12.674  10.784  70.604  1.00  0.00    -0.417 C  
BRANCH  18  19
HETATM   19  C   UNL     1     -12.660  12.248  70.977  1.00  0.00    -0.352 A  
HETATM   20  C   UNL     1     -13.439  12.719  72.043  1.00  0.00    -0.540 A  
HETATM   21  C   UNL     1     -11.827  13.145  70.293  1.00  0.00    -0.299 A  
HETATM   22  C   UNL     1     -11.767  14.488  70.669  1.00  0.00    -0.330 A  
HETATM   23  H   UNL     1     -13.030  16.537  72.877  1.00  0.00     0.000 HD 
HETATM   24  C   UNL     1     -13.382  14.063  72.419  1.00  0.00    -0.617 A  
HETATM   25  C   UNL     1     -12.543  14.933  71.735  1.00  0.00    -0.331 A  
HETATM   26  O   UNL     1     -12.501  16.233  72.148  1.00  0.00    -0.427 OA 
ENDBRANCH  18  19
ENDBRANCH  17  18
ENDBRANCH   2  17
TORSDOF 7
ENDMDL
MODEL      114
REMARK 921   NORMALIZED FREE ENERGY PREDICTED BY IDOCK:   -5.22 KCAL/MOL
REMARK 922        TOTAL FREE ENERGY PREDICTED BY IDOCK:   -8.52 KCAL/MOL
REMARK 923 INTER-LIGAND FREE ENERGY PREDICTED BY IDOCK:   -7.45 KCAL/MOL
REMARK 924 INTRA-LIGAND FREE ENERGY PREDICTED BY IDOCK:   -1.07 KCAL/MOL
REMARK 927      BINDING AFFINITY PREDICTED BY RF-SCORE:    0.00 PKD
ROOT
HETATM    1  C   UNL     1      -8.173  11.706  67.731  1.00  0.00    -0.141 C  
HETATM    2  C   UNL     1      -8.598  13.176  67.807  1.00  0.00    -0.188 C  
ENDROOT
BRANCH   2   3
HETATM    3  N   UNL     1      -8.094  13.839  69.020  1.00  0.00    -0.341 NA 
HETATM    4  H   UNL     1      -7.082  13.952  68.964  1.00  0.00     0.000 HD 
BRANCH   3   5
HETATM    5  C   UNL     1      -8.730  15.126  69.339  1.00  0.00    -0.173 C  
BRANCH   5   6
HETATM    6  C   UNL     1      -7.931  16.351  68.874  1.00  0.00    -0.236 C  
BRANCH   6   7
HETATM    7  C   UNL     1      -8.702  17.214  67.906  1.00  0.00    -0.222 A  
HETATM    8  C   UNL     1     -10.196  18.769  66.139  1.00  0.00    -0.421 A  
HETATM    9  C   UNL     1      -9.607  19.354  67.256  1.00  0.00    -0.328 A  
HETATM   10  O   UNL     1     -10.951  19.526  65.289  1.00  0.00    -0.426 OA 
HETATM   11  C   UNL     1     -10.036  17.417  65.878  1.00  0.00    -0.219 A  
HETATM   12  H   UNL     1     -10.319  21.216  66.846  1.00  0.00     0.000 HD 
HETATM   13  C   UNL     1      -8.856  18.588  68.142  1.00  0.00    -0.327 A  
HETATM   14  O   UNL     1      -9.806  20.694  67.450  1.00  0.00    -0.464 OA 
HETATM   15  C   UNL     1      -9.284  16.640  66.762  1.00  0.00    -0.259 A  
HETATM   16  H   UNL     1     -11.354  19.127  64.526  1.00  0.00     0.000 HD 
ENDBRANCH   6   7
ENDBRANCH   5   6
ENDBRANCH   3   5
ENDBRANCH   2   3
BRANCH   2  17
HETATM   17  C   UNL     1     -10.137  13.263  67.760  1.00  0.00    -0.229 C  
BRANCH  17  18
HETATM   18  C   UNL     1     -10.836  12.034  68.357  1.00  0.00    -0.266 C  
BRANCH  18  19
HETATM   19  C   UNL     1     -11.671  12.424  69.555  1.00  0.00    -0.388 A  
HETATM   20  C   UNL     1     -12.093  13.749  69.729  1.00  0.00    -0.400 A  
HETATM   21  C   UNL     1     -12.077  11.451  70.480  1.00  0.00    -0.487 A  
HETATM   22  C   UNL     1     -12.895  11.794  71.558  1.00  0.00    -0.450 A  
HETATM   23  H   UNL     1     -14.407  14.390  72.839  1.00  0.00     0.000 HD 
HETATM   24  C   UNL     1     -12.910  14.093  70.808  1.00  0.00    -0.378 A  
HETATM   25  C   UNL     1     -13.309  13.114  71.708  1.00  0.00    -0.389 A  
HETATM   26  O   UNL     1     -14.124  13.489  72.736  1.00  0.00    -0.719 OA 
ENDBRANCH  18  19
ENDBRANCH  17  18
ENDBRANCH   2  17
TORSDOF 7
ENDMDL
MODEL      115
REMARK 921   NORMALIZED FREE ENERGY PREDICTED BY IDOCK:   -5.20 KCAL/MOL
REMARK 922        TOTAL FREE ENERGY PREDICTED BY IDOCK:   -8.50 KCAL/MOL
REMARK 923 INTER-LIGAND FREE ENERGY PREDICTED BY IDOCK:   -6.85 KCAL/MOL
REMARK 924 INTRA-LIGAND FREE ENERGY PREDICTED BY IDOCK:   -1.65 KCAL/MOL
REMARK 927      BINDING AFFINITY PREDICTED BY RF-SCORE:    0.00 PKD
ROOT
HETATM    1  C   UNL     1      -8.870  16.300  66.332  1.00  0.00    -0.346 C  
HETATM    2  C   UNL     1     -10.383  16.545  66.380  1.00  0.00    -0.311 C  
ENDROOT
BRANCH   2   3
HETATM    3  N   UNL     1     -10.850  16.867  67.738  1.00  0.00    -0.323 NA 
HETATM    4  H   UNL     1     -11.730  16.388  67.930  1.00  0.00     0.000 HD 
BRANCH   3   5
HETATM    5  C   UNL     1      -9.882  16.596  68.812  1.00  0.00    -0.252 C  
BRANCH   5   6
HETATM    6  C   UNL     1     -10.044  15.217  69.467  1.00  0.00    -0.261 C  
BRANCH   6   7
HETATM    7  C   UNL     1     -11.077  15.214  70.567  1.00  0.00    -0.294 A  
HETATM    8  C   UNL     1     -13.025  15.271  72.561  1.00  0.00    -0.393 A  
HETATM    9  C   UNL     1     -12.932  14.175  71.708  1.00  0.00    -0.348 A  
HETATM   10  O   UNL     1     -13.997  15.310  73.519  1.00  0.00    -0.367 OA 
HETATM   11  C   UNL     1     -12.146  16.337  72.446  1.00  0.00    -0.598 A  
HETATM   12  H   UNL     1     -14.494  13.186  72.559  1.00  0.00     0.000 HD 
HETATM   13  C   UNL     1     -11.960  14.134  70.712  1.00  0.00    -0.377 A  
HETATM   14  O   UNL     1     -13.831  13.158  71.880  1.00  0.00    -0.345 OA 
HETATM   15  C   UNL     1     -11.167  16.305  71.449  1.00  0.00    -0.091 A  
HETATM   16  H   UNL     1     -14.061  16.058  74.102  1.00  0.00     0.000 HD 
ENDBRANCH   6   7
ENDBRANCH   5   6
ENDBRANCH   3   5
ENDBRANCH   2   3
BRANCH   2  17
HETATM   17  C   UNL     1     -11.116  15.296  65.852  1.00  0.00    -0.287 C  
BRANCH  17  18
HETATM   18  C   UNL     1     -10.176  14.126  65.531  1.00  0.00    -0.371 C  
BRANCH  18  19
HETATM   19  C   UNL     1     -10.287  13.046  66.583  1.00  0.00    -0.263 A  
HETATM   20  C   UNL     1      -9.137  12.510  67.177  1.00  0.00    -0.205 A  
HETATM   21  C   UNL     1     -11.547  12.605  67.013  1.00  0.00    -0.431 A  
HETATM   22  C   UNL     1     -11.658  11.649  68.024  1.00  0.00    -0.383 A  
HETATM   23  H   UNL     1      -9.778   9.862  70.008  1.00  0.00     0.000 HD 
HETATM   24  C   UNL     1      -9.247  11.552  68.187  1.00  0.00    -0.181 A  
HETATM   25  C   UNL     1     -10.504  11.135  68.606  1.00  0.00    -0.197 A  
HETATM   26  O   UNL     1     -10.566  10.213  69.610  1.00  0.00    -0.222 OA 
ENDBRANCH  18  19
ENDBRANCH  17  18
ENDBRANCH   2  17
TORSDOF 7
ENDMDL
MODEL      116
REMARK 921   NORMALIZED FREE ENERGY PREDICTED BY IDOCK:   -5.18 KCAL/MOL
REMARK 922        TOTAL FREE ENERGY PREDICTED BY IDOCK:   -8.46 KCAL/MOL
REMARK 923 INTER-LIGAND FREE ENERGY PREDICTED BY IDOCK:   -7.70 KCAL/MOL
REMARK 924 INTRA-LIGAND FREE ENERGY PREDICTED BY IDOCK:   -0.76 KCAL/MOL
REMARK 927      BINDING AFFINITY PREDICTED BY RF-SCORE:    0.00 PKD
ROOT
HETATM    1  C   UNL     1     -12.547  13.618  65.561  1.00  0.00    -0.541 C  
HETATM    2  C   UNL     1     -11.640  13.196  66.722  1.00  0.00    -0.366 C  
ENDROOT
BRANCH   2   3
HETATM    3  N   UNL     1     -12.099  11.954  67.364  1.00  0.00    -0.523 NA 
HETATM    4  H   UNL     1     -12.842  11.526  66.811  1.00  0.00     0.000 HD 
BRANCH   3   5
HETATM    5  C   UNL     1     -11.043  10.967  67.641  1.00  0.00    -0.300 C  
BRANCH   5   6
HETATM    6  C   UNL     1     -10.547  10.974  69.093  1.00  0.00    -0.253 C  
BRANCH   6   7
HETATM    7  C   UNL     1     -11.140   9.857  69.916  1.00  0.00    -0.318 A  
HETATM    8  C   UNL     1     -12.163   7.786  71.476  1.00  0.00    -0.318 A  
HETATM    9  C   UNL     1     -12.660   9.078  71.621  1.00  0.00    -0.348 A  
HETATM   10  O   UNL     1     -12.646   6.777  72.261  1.00  0.00    -0.527 OA 
HETATM   11  C   UNL     1     -11.172   7.505  70.549  1.00  0.00    -0.287 A  
HETATM   12  H   UNL     1     -13.980   8.572  73.085  1.00  0.00     0.000 HD 
HETATM   13  C   UNL     1     -12.159  10.119  70.844  1.00  0.00    -0.453 A  
HETATM   14  O   UNL     1     -13.638   9.282  72.554  1.00  0.00    -0.467 OA 
HETATM   15  C   UNL     1     -10.663   8.543  69.764  1.00  0.00    -0.213 A  
HETATM   16  H   UNL     1     -12.307   5.895  72.163  1.00  0.00     0.000 HD 
ENDBRANCH   6   7
ENDBRANCH   5   6
ENDBRANCH   3   5
ENDBRANCH   2   3
BRANCH   2  17
HETATM   17  C   UNL     1     -11.582  14.335  67.760  1.00  0.00    -0.383 C  
BRANCH  17  18
HETATM   18  C   UNL     1     -10.153  14.758  68.124  1.00  0.00    -0.221 C  
BRANCH  18  19
HETATM   19  C   UNL     1      -9.919  16.209  67.773  1.00  0.00    -0.237 A  
HETATM   20  C   UNL     1     -10.434  16.748  66.586  1.00  0.00    -0.258 A  
HETATM   21  C   UNL     1      -9.225  17.048  68.658  1.00  0.00    -0.266 A  
HETATM   22  C   UNL     1      -9.055  18.402  68.366  1.00  0.00    -0.340 A  
HETATM   23  H   UNL     1      -9.814  20.592  66.066  1.00  0.00     0.000 HD 
HETATM   24  C   UNL     1     -10.262  18.102  66.293  1.00  0.00    -0.401 A  
HETATM   25  C   UNL     1      -9.581  18.918  67.187  1.00  0.00    -0.306 A  
HETATM   26  O   UNL     1      -9.454  20.240  66.871  1.00  0.00    -0.377 OA 
ENDBRANCH  18  19
ENDBRANCH  17  18
ENDBRANCH   2  17
TORSDOF 7
ENDMDL
MODEL      117
REMARK 921   NORMALIZED FREE ENERGY PREDICTED BY IDOCK:   -5.17 KCAL/MOL
REMARK 922        TOTAL FREE ENERGY PREDICTED BY IDOCK:   -8.45 KCAL/MOL
REMARK 923 INTER-LIGAND FREE ENERGY PREDICTED BY IDOCK:   -7.79 KCAL/MOL
REMARK 924 INTRA-LIGAND FREE ENERGY PREDICTED BY IDOCK:   -0.66 KCAL/MOL
REMARK 927      BINDING AFFINITY PREDICTED BY RF-SCORE:    0.00 PKD
ROOT
HETATM    1  C   UNL     1      -7.882  13.086  67.363  1.00  0.00    -0.166 C  
HETATM    2  C   UNL     1      -8.932  13.976  68.036  1.00  0.00    -0.182 C  
ENDROOT
BRANCH   2   3
HETATM    3  N   UNL     1      -9.777  13.225  68.978  1.00  0.00    -0.383 NA 
HETATM    4  H   UNL     1     -10.532  13.817  69.324  1.00  0.00     0.000 HD 
BRANCH   3   5
HETATM    5  C   UNL     1     -10.322  11.962  68.457  1.00  0.00    -0.218 C  
BRANCH   5   6
HETATM    6  C   UNL     1     -11.744  11.648  68.942  1.00  0.00    -0.397 C  
BRANCH   6   7
HETATM    7  C   UNL     1     -11.774  10.566  69.993  1.00  0.00    -0.394 A  
HETATM    8  C   UNL     1     -11.767   8.607  71.977  1.00  0.00    -0.369 A  
HETATM    9  C   UNL     1     -12.864   9.452  71.834  1.00  0.00    -0.412 A  
HETATM   10  O   UNL     1     -11.753   7.666  72.967  1.00  0.00    -0.608 OA 
HETATM   11  C   UNL     1     -10.675   8.713  71.130  1.00  0.00    -0.303 A  
HETATM   12  H   UNL     1     -13.897   8.622  73.380  1.00  0.00     0.000 HD 
HETATM   13  C   UNL     1     -12.880  10.430  70.844  1.00  0.00    -0.482 A  
HETATM   14  O   UNL     1     -13.908   9.289  72.704  1.00  0.00    -0.449 OA 
HETATM   15  C   UNL     1     -10.681   9.692  70.134  1.00  0.00    -0.321 A  
HETATM   16  H   UNL     1     -11.004   7.090  73.065  1.00  0.00     0.000 HD 
ENDBRANCH   6   7
ENDBRANCH   5   6
ENDBRANCH   3   5
ENDBRANCH   2   3
BRANCH   2  17
HETATM   17  C   UNL     1      -9.809  14.636  66.953  1.00  0.00    -0.252 C  
BRANCH  17  18
HETATM   18  C   UNL     1     -10.934  15.508  67.525  1.00  0.00    -0.316 C  
BRANCH  18  19
HETATM   19  C   UNL     1     -10.565  16.972  67.453  1.00  0.00    -0.289 A  
HETATM   20  C   UNL     1     -10.197  17.671  68.611  1.00  0.00    -0.377 A  
HETATM   21  C   UNL     1     -10.537  17.634  66.218  1.00  0.00    -0.215 A  
HETATM   22  C   UNL     1     -10.143  18.971  66.138  1.00  0.00    -0.462 A  
HETATM   23  H   UNL     1      -9.112  21.406  68.055  1.00  0.00     0.000 HD 
HETATM   24  C   UNL     1      -9.805  19.009  68.532  1.00  0.00    -0.473 A  
HETATM   25  C   UNL     1      -9.774  19.645  67.298  1.00  0.00    -0.356 A  
HETATM   26  O   UNL     1      -9.364  20.946  67.263  1.00  0.00    -0.369 OA 
ENDBRANCH  18  19
ENDBRANCH  17  18
ENDBRANCH   2  17
TORSDOF 7
ENDMDL
MODEL      118
REMARK 921   NORMALIZED FREE ENERGY PREDICTED BY IDOCK:   -5.17 KCAL/MOL
REMARK 922        TOTAL FREE ENERGY PREDICTED BY IDOCK:   -8.44 KCAL/MOL
REMARK 923 INTER-LIGAND FREE ENERGY PREDICTED BY IDOCK:   -7.88 KCAL/MOL
REMARK 924 INTRA-LIGAND FREE ENERGY PREDICTED BY IDOCK:   -0.56 KCAL/MOL
REMARK 927      BINDING AFFINITY PREDICTED BY RF-SCORE:    0.00 PKD
ROOT
HETATM    1  C   UNL     1      -9.617   7.125  66.469  1.00  0.00    -0.203 C  
HETATM    2  C   UNL     1     -10.685   7.422  67.528  1.00  0.00    -0.240 C  
ENDROOT
BRANCH   2   3
HETATM    3  N   UNL     1     -10.395   8.653  68.280  1.00  0.00    -0.220 NA 
HETATM    4  H   UNL     1      -9.387   8.774  68.381  1.00  0.00     0.000 HD 
BRANCH   3   5
HETATM    5  C   UNL     1     -10.999   9.877  67.731  1.00  0.00    -0.217 C  
BRANCH   5   6
HETATM    6  C   UNL     1     -10.011  10.780  66.982  1.00  0.00    -0.236 C  
BRANCH   6   7
HETATM    7  C   UNL     1     -10.681  11.625  65.926  1.00  0.00    -0.328 A  
HETATM    8  C   UNL     1     -11.953  13.115  63.943  1.00  0.00    -0.488 A  
HETATM    9  C   UNL     1     -12.336  13.255  65.275  1.00  0.00    -0.476 A  
HETATM   10  O   UNL     1     -12.596  13.825  62.969  1.00  0.00    -1.005 OA 
HETATM   11  C   UNL     1     -10.929  12.252  63.586  1.00  0.00    -0.532 A  
HETATM   12  H   UNL     1     -13.784  14.628  64.873  1.00  0.00     0.000 HD 
HETATM   13  C   UNL     1     -11.704  12.519  66.273  1.00  0.00    -0.462 A  
HETATM   14  O   UNL     1     -13.353  14.126  65.555  1.00  0.00    -0.656 OA 
HETATM   15  C   UNL     1     -10.289  11.509  64.581  1.00  0.00    -0.349 A  
HETATM   16  H   UNL     1     -12.336  13.729  62.061  1.00  0.00     0.000 HD 
ENDBRANCH   6   7
ENDBRANCH   5   6
ENDBRANCH   3   5
ENDBRANCH   2   3
BRANCH   2  17
HETATM   17  C   UNL     1     -10.786   6.225  68.495  1.00  0.00    -0.354 C  
BRANCH  17  18
HETATM   18  C   UNL     1     -11.604   6.527  69.757  1.00  0.00    -0.392 C  
BRANCH  18  19
HETATM   19  C   UNL     1     -11.068   5.752  70.939  1.00  0.00    -0.267 A  
HETATM   20  C   UNL     1     -11.496   6.050  72.240  1.00  0.00    -0.364 A  
HETATM   21  C   UNL     1     -10.173   4.691  70.742  1.00  0.00    -0.214 A  
HETATM   22  C   UNL     1      -9.717   3.935  71.824  1.00  0.00    -0.243 A  
HETATM   23  H   UNL     1     -10.061   3.728  75.065  1.00  0.00     0.000 HD 
HETATM   24  C   UNL     1     -11.040   5.296  73.323  1.00  0.00    -0.376 A  
HETATM   25  C   UNL     1     -10.161   4.242  73.107  1.00  0.00    -0.159 A  
HETATM   26  O   UNL     1      -9.757   3.518  74.190  1.00  0.00    -0.099 OA 
ENDBRANCH  18  19
ENDBRANCH  17  18
ENDBRANCH   2  17
TORSDOF 7
ENDMDL
MODEL      119
REMARK 921   NORMALIZED FREE ENERGY PREDICTED BY IDOCK:   -5.16 KCAL/MOL
REMARK 922        TOTAL FREE ENERGY PREDICTED BY IDOCK:   -8.44 KCAL/MOL
REMARK 923 INTER-LIGAND FREE ENERGY PREDICTED BY IDOCK:   -7.53 KCAL/MOL
REMARK 924 INTRA-LIGAND FREE ENERGY PREDICTED BY IDOCK:   -0.91 KCAL/MOL
REMARK 927      BINDING AFFINITY PREDICTED BY RF-SCORE:    0.00 PKD
ROOT
HETATM    1  C   UNL     1     -11.819  13.023  67.380  1.00  0.00    -0.411 C  
HETATM    2  C   UNL     1     -12.261  14.103  66.387  1.00  0.00    -0.446 C  
ENDROOT
BRANCH   2   3
HETATM    3  N   UNL     1     -12.910  13.530  65.196  1.00  0.00    -0.728 NA 
HETATM    4  H   UNL     1     -13.706  14.104  64.920  1.00  0.00     0.000 HD 
BRANCH   3   5
HETATM    5  C   UNL     1     -12.020  13.310  64.046  1.00  0.00    -0.465 C  
BRANCH   5   6
HETATM    6  C   UNL     1     -11.984  11.858  63.552  1.00  0.00    -0.567 C  
BRANCH   6   7
HETATM    7  C   UNL     1     -10.670  11.177  63.845  1.00  0.00    -0.407 A  
HETATM    8  C   UNL     1      -8.203   9.994  64.380  1.00  0.00    -0.165 A  
HETATM    9  C   UNL     1      -9.175  10.060  65.374  1.00  0.00    -0.210 A  
HETATM   10  O   UNL     1      -6.984   9.439  64.652  1.00  0.00    -0.090 OA 
HETATM   11  C   UNL     1      -8.449  10.496  63.112  1.00  0.00    -0.167 A  
HETATM   12  H   UNL     1      -8.020   9.144  66.778  1.00  0.00     0.000 HD 
HETATM   13  C   UNL     1     -10.411  10.644  65.117  1.00  0.00    -0.271 A  
HETATM   14  O   UNL     1      -8.863   9.543  66.602  1.00  0.00    -0.132 OA 
HETATM   15  C   UNL     1      -9.687  11.085  62.844  1.00  0.00    -0.353 A  
HETATM   16  H   UNL     1      -6.320   9.394  63.974  1.00  0.00     0.000 HD 
ENDBRANCH   6   7
ENDBRANCH   5   6
ENDBRANCH   3   5
ENDBRANCH   2   3
BRANCH   2  17
HETATM   17  C   UNL     1     -11.036  14.940  65.969  1.00  0.00    -0.334 C  
BRANCH  17  18
HETATM   18  C   UNL     1     -10.133  15.331  67.146  1.00  0.00    -0.240 C  
BRANCH  18  19
HETATM   19  C   UNL     1     -10.021  16.834  67.257  1.00  0.00    -0.272 A  
HETATM   20  C   UNL     1      -9.938  17.630  66.107  1.00  0.00    -0.281 A  
HETATM   21  C   UNL     1     -10.051  17.454  68.515  1.00  0.00    -0.352 A  
HETATM   22  C   UNL     1     -10.005  18.845  68.622  1.00  0.00    -0.470 A  
HETATM   23  H   UNL     1      -9.852  21.507  66.737  1.00  0.00     0.000 HD 
HETATM   24  C   UNL     1      -9.890  19.021  66.213  1.00  0.00    -0.417 A  
HETATM   25  C   UNL     1      -9.930  19.617  67.467  1.00  0.00    -0.388 A  
HETATM   26  O   UNL     1      -9.902  20.980  67.526  1.00  0.00    -0.369 OA 
ENDBRANCH  18  19
ENDBRANCH  17  18
ENDBRANCH   2  17
TORSDOF 7
ENDMDL
MODEL      120
REMARK 921   NORMALIZED FREE ENERGY PREDICTED BY IDOCK:   -5.16 KCAL/MOL
REMARK 922        TOTAL FREE ENERGY PREDICTED BY IDOCK:   -8.43 KCAL/MOL
REMARK 923 INTER-LIGAND FREE ENERGY PREDICTED BY IDOCK:   -7.39 KCAL/MOL
REMARK 924 INTRA-LIGAND FREE ENERGY PREDICTED BY IDOCK:   -1.04 KCAL/MOL
REMARK 927      BINDING AFFINITY PREDICTED BY RF-SCORE:    0.00 PKD
ROOT
HETATM    1  C   UNL     1     -11.263  11.538  66.938  1.00  0.00    -0.363 C  
HETATM    2  C   UNL     1      -9.827  11.984  67.235  1.00  0.00    -0.192 C  
ENDROOT
BRANCH   2   3
HETATM    3  N   UNL     1      -8.977  10.864  67.671  1.00  0.00    -0.140 NA 
HETATM    4  H   UNL     1      -8.198  11.212  68.231  1.00  0.00     0.000 HD 
BRANCH   3   5
HETATM    5  C   UNL     1      -9.679   9.792  68.393  1.00  0.00    -0.149 C  
BRANCH   5   6
HETATM    6  C   UNL     1      -9.343   9.720  69.888  1.00  0.00    -0.262 C  
BRANCH   6   7
HETATM    7  C   UNL     1     -10.563   9.502  70.749  1.00  0.00    -0.387 A  
HETATM    8  C   UNL     1     -12.864   9.091  72.269  1.00  0.00    -0.406 A  
HETATM    9  C   UNL     1     -11.838   8.150  72.288  1.00  0.00    -0.382 A  
HETATM   10  O   UNL     1     -14.002   8.875  72.992  1.00  0.00    -1.022 OA 
HETATM   11  C   UNL     1     -12.753  10.248  71.514  1.00  0.00    -0.557 A  
HETATM   12  H   UNL     1     -12.803   6.898  73.569  1.00  0.00     0.000 HD 
HETATM   13  C   UNL     1     -10.683   8.348  71.536  1.00  0.00    -0.313 A  
HETATM   14  O   UNL     1     -12.015   7.033  73.057  1.00  0.00     0.152 OA 
HETATM   15  C   UNL     1     -11.597  10.455  70.755  1.00  0.00    -0.450 A  
HETATM   16  H   UNL     1     -14.703   9.517  72.979  1.00  0.00     0.000 HD 
ENDBRANCH   6   7
ENDBRANCH   5   6
ENDBRANCH   3   5
ENDBRANCH   2   3
BRANCH   2  17
HETATM   17  C   UNL     1      -9.850  13.082  68.317  1.00  0.00    -0.225 C  
BRANCH  17  18
HETATM   18  C   UNL     1     -11.114  13.950  68.280  1.00  0.00    -0.280 C  
BRANCH  18  19
HETATM   19  C   UNL     1     -10.846  15.256  67.570  1.00  0.00    -0.304 A  
HETATM   20  C   UNL     1     -10.876  15.326  66.170  1.00  0.00    -0.320 A  
HETATM   21  C   UNL     1     -10.613  16.427  68.307  1.00  0.00    -0.318 A  
HETATM   22  C   UNL     1     -10.420  17.648  67.658  1.00  0.00    -0.372 A  
HETATM   23  H   UNL     1     -10.326  18.905  64.645  1.00  0.00     0.000 HD 
HETATM   24  C   UNL     1     -10.681  16.547  65.520  1.00  0.00    -0.267 A  
HETATM   25  C   UNL     1     -10.462  17.697  66.268  1.00  0.00    -0.292 A  
HETATM   26  O   UNL     1     -10.297  18.872  65.594  1.00  0.00    -0.545 OA 
ENDBRANCH  18  19
ENDBRANCH  17  18
ENDBRANCH   2  17
TORSDOF 7
ENDMDL
MODEL      121
REMARK 921   NORMALIZED FREE ENERGY PREDICTED BY IDOCK:   -5.14 KCAL/MOL
REMARK 922        TOTAL FREE ENERGY PREDICTED BY IDOCK:   -8.40 KCAL/MOL
REMARK 923 INTER-LIGAND FREE ENERGY PREDICTED BY IDOCK:   -7.03 KCAL/MOL
REMARK 924 INTRA-LIGAND FREE ENERGY PREDICTED BY IDOCK:   -1.37 KCAL/MOL
REMARK 927      BINDING AFFINITY PREDICTED BY RF-SCORE:    0.00 PKD
ROOT
HETATM    1  C   UNL     1      -8.775   8.289  71.325  1.00  0.00    -0.186 C  
HETATM    2  C   UNL     1      -9.794   9.221  70.661  1.00  0.00    -0.270 C  
ENDROOT
BRANCH   2   3
HETATM    3  N   UNL     1     -11.179   8.767  70.867  1.00  0.00    -0.261 NA 
HETATM    4  H   UNL     1     -11.206   8.027  71.568  1.00  0.00     0.000 HD 
BRANCH   3   5
HETATM    5  C   UNL     1     -12.139   9.827  71.212  1.00  0.00    -0.382 C  
BRANCH   5   6
HETATM    6  C   UNL     1     -12.259  10.931  70.153  1.00  0.00    -0.423 C  
BRANCH   6   7
HETATM    7  C   UNL     1     -12.508  12.291  70.757  1.00  0.00    -0.356 A  
HETATM    8  C   UNL     1     -12.916  14.784  71.936  1.00  0.00    -0.327 A  
HETATM    9  C   UNL     1     -12.223  14.687  70.733  1.00  0.00    -0.324 A  
HETATM   10  O   UNL     1     -13.091  16.003  72.528  1.00  0.00    -0.451 OA 
HETATM   11  C   UNL     1     -13.426  13.654  72.555  1.00  0.00    -0.675 A  
HETATM   12  H   UNL     1     -11.890  16.690  70.587  1.00  0.00     0.000 HD 
HETATM   13  C   UNL     1     -12.018  13.448  70.133  1.00  0.00    -0.396 A  
HETATM   14  O   UNL     1     -11.750  15.844  70.178  1.00  0.00    -0.332 OA 
HETATM   15  C   UNL     1     -13.224  12.405  71.961  1.00  0.00    -0.514 A  
HETATM   16  H   UNL     1     -13.564  16.070  73.349  1.00  0.00     0.000 HD 
ENDBRANCH   6   7
ENDBRANCH   5   6
ENDBRANCH   3   5
ENDBRANCH   2   3
BRANCH   2  17
HETATM   17  C   UNL     1      -9.489   9.314  69.153  1.00  0.00    -0.157 C  
BRANCH  17  18
HETATM   18  C   UNL     1      -8.558  10.478  68.788  1.00  0.00    -0.146 C  
BRANCH  18  19
HETATM   19  C   UNL     1      -9.260  11.460  67.879  1.00  0.00    -0.164 A  
HETATM   20  C   UNL     1     -10.379  11.066  67.133  1.00  0.00    -0.259 A  
HETATM   21  C   UNL     1      -8.830  12.794  67.812  1.00  0.00    -0.187 A  
HETATM   22  C   UNL     1      -9.509  13.720  67.018  1.00  0.00    -0.255 A  
HETATM   23  H   UNL     1     -12.086  13.905  65.020  1.00  0.00     0.000 HD 
HETATM   24  C   UNL     1     -11.057  11.991  66.336  1.00  0.00    -0.365 A  
HETATM   25  C   UNL     1     -10.622  13.309  66.290  1.00  0.00    -0.289 A  
HETATM   26  O   UNL     1     -11.326  14.185  65.517  1.00  0.00    -0.308 OA 
ENDBRANCH  18  19
ENDBRANCH  17  18
ENDBRANCH   2  17
TORSDOF 7
ENDMDL
MODEL      122
REMARK 921   NORMALIZED FREE ENERGY PREDICTED BY IDOCK:   -5.14 KCAL/MOL
REMARK 922        TOTAL FREE ENERGY PREDICTED BY IDOCK:   -8.40 KCAL/MOL
REMARK 923 INTER-LIGAND FREE ENERGY PREDICTED BY IDOCK:   -7.91 KCAL/MOL
REMARK 924 INTRA-LIGAND FREE ENERGY PREDICTED BY IDOCK:   -0.49 KCAL/MOL
REMARK 927      BINDING AFFINITY PREDICTED BY RF-SCORE:    0.00 PKD
ROOT
HETATM    1  C   UNL     1     -12.606  11.345  71.090  1.00  0.00    -0.490 C  
HETATM    2  C   UNL     1     -11.483  10.966  70.119  1.00  0.00    -0.319 C  
ENDROOT
BRANCH   2   3
HETATM    3  N   UNL     1     -11.991  10.672  68.769  1.00  0.00    -0.736 NA 
HETATM    4  H   UNL     1     -12.989  10.874  68.718  1.00  0.00     0.000 HD 
BRANCH   3   5
HETATM    5  C   UNL     1     -11.280  11.348  67.673  1.00  0.00    -0.283 C  
BRANCH   5   6
HETATM    6  C   UNL     1     -10.788  12.758  68.024  1.00  0.00    -0.254 C  
BRANCH   6   7
HETATM    7  C   UNL     1     -10.999  13.744  66.901  1.00  0.00    -0.296 A  
HETATM    8  C   UNL     1     -11.308  15.553  64.802  1.00  0.00    -0.357 A  
HETATM    9  C   UNL     1     -11.988  14.338  64.782  1.00  0.00    -0.440 A  
HETATM   10  O   UNL     1     -11.439  16.426  63.760  1.00  0.00    -1.590 OA 
HETATM   11  C   UNL     1     -10.487  15.889  65.866  1.00  0.00    -0.373 A  
HETATM   12  H   UNL     1     -12.881  14.693  62.988  1.00  0.00     0.000 HD 
HETATM   13  C   UNL     1     -11.844  13.429  65.826  1.00  0.00    -0.412 A  
HETATM   14  O   UNL     1     -12.783  14.073  63.700  1.00  0.00    -0.778 OA 
HETATM   15  C   UNL     1     -10.335  14.983  66.919  1.00  0.00    -0.266 A  
HETATM   16  H   UNL     1     -10.975  17.255  63.773  1.00  0.00     0.000 HD 
ENDBRANCH   6   7
ENDBRANCH   5   6
ENDBRANCH   3   5
ENDBRANCH   2   3
BRANCH   2  17
HETATM   17  C   UNL     1     -10.723   9.744  70.673  1.00  0.00    -0.394 C  
BRANCH  17  18
HETATM   18  C   UNL     1      -9.774   9.101  69.655  1.00  0.00    -0.183 C  
BRANCH  18  19
HETATM   19  C   UNL     1      -8.733   8.256  70.353  1.00  0.00    -0.139 A  
HETATM   20  C   UNL     1      -8.233   7.095  69.746  1.00  0.00    -0.131 A  
HETATM   21  C   UNL     1      -8.217   8.652  71.595  1.00  0.00    -0.199 A  
HETATM   22  C   UNL     1      -7.216   7.907  72.219  1.00  0.00    -0.096 A  
HETATM   23  H   UNL     1      -5.403   5.233  71.736  1.00  0.00     0.000 HD 
HETATM   24  C   UNL     1      -7.233   6.348  70.370  1.00  0.00    -0.083 A  
HETATM   25  C   UNL     1      -6.728   6.762  71.596  1.00  0.00    -0.061 A  
HETATM   26  O   UNL     1      -5.736   6.015  72.161  1.00  0.00    -0.030 OA 
ENDBRANCH  18  19
ENDBRANCH  17  18
ENDBRANCH   2  17
TORSDOF 7
ENDMDL
MODEL      123
REMARK 921   NORMALIZED FREE ENERGY PREDICTED BY IDOCK:   -5.13 KCAL/MOL
REMARK 922        TOTAL FREE ENERGY PREDICTED BY IDOCK:   -8.39 KCAL/MOL
REMARK 923 INTER-LIGAND FREE ENERGY PREDICTED BY IDOCK:   -7.31 KCAL/MOL
REMARK 924 INTRA-LIGAND FREE ENERGY PREDICTED BY IDOCK:   -1.09 KCAL/MOL
REMARK 927      BINDING AFFINITY PREDICTED BY RF-SCORE:    0.00 PKD
ROOT
HETATM    1  C   UNL     1      -8.205  10.818  69.227  1.00  0.00    -0.087 C  
HETATM    2  C   UNL     1      -7.566  11.948  68.412  1.00  0.00    -0.120 C  
ENDROOT
BRANCH   2   3
HETATM    3  N   UNL     1      -7.588  13.233  69.129  1.00  0.00    -0.320 NA 
HETATM    4  H   UNL     1      -6.659  13.653  69.127  1.00  0.00     0.000 HD 
BRANCH   3   5
HETATM    5  C   UNL     1      -8.584  14.201  68.645  1.00  0.00    -0.126 C  
BRANCH   5   6
HETATM    6  C   UNL     1      -8.179  15.668  68.844  1.00  0.00    -0.204 C  
BRANCH   6   7
HETATM    7  C   UNL     1      -8.950  16.610  67.954  1.00  0.00    -0.217 A  
HETATM    8  C   UNL     1     -10.304  18.393  66.292  1.00  0.00    -0.415 A  
HETATM    9  C   UNL     1     -10.197  17.051  65.936  1.00  0.00    -0.296 A  
HETATM   10  O   UNL     1     -10.944  19.270  65.464  1.00  0.00    -0.409 OA 
HETATM   11  C   UNL     1      -9.759  18.858  67.478  1.00  0.00    -0.360 A  
HETATM   12  H   UNL     1     -11.218  17.275  64.190  1.00  0.00     0.000 HD 
HETATM   13  C   UNL     1      -9.528  16.152  66.761  1.00  0.00    -0.256 A  
HETATM   14  O   UNL     1     -10.761  16.661  64.752  1.00  0.00    -0.721 OA 
HETATM   15  C   UNL     1      -9.084  17.964  68.313  1.00  0.00    -0.280 A  
HETATM   16  H   UNL     1     -11.017  20.186  65.706  1.00  0.00     0.000 HD 
ENDBRANCH   6   7
ENDBRANCH   5   6
ENDBRANCH   3   5
ENDBRANCH   2   3
BRANCH   2  17
HETATM   17  C   UNL     1      -8.305  12.083  67.065  1.00  0.00    -0.178 C  
BRANCH  17  18
HETATM   18  C   UNL     1      -9.714  11.477  67.078  1.00  0.00    -0.202 C  
BRANCH  18  19
HETATM   19  C   UNL     1     -10.559  12.064  65.971  1.00  0.00    -0.303 A  
HETATM   20  C   UNL     1     -11.562  13.000  66.260  1.00  0.00    -0.408 A  
HETATM   21  C   UNL     1     -10.314  11.717  64.635  1.00  0.00    -0.336 A  
HETATM   22  C   UNL     1     -11.053  12.299  63.603  1.00  0.00    -0.537 A  
HETATM   23  H   UNL     1     -13.444  14.475  63.143  1.00  0.00     0.000 HD 
HETATM   24  C   UNL     1     -12.303  13.581  65.229  1.00  0.00    -0.506 A  
HETATM   25  C   UNL     1     -12.039  13.231  63.911  1.00  0.00    -0.468 A  
HETATM   26  O   UNL     1     -12.772  13.838  62.933  1.00  0.00    -0.558 OA 
ENDBRANCH  18  19
ENDBRANCH  17  18
ENDBRANCH   2  17
TORSDOF 7
ENDMDL
MODEL      124
REMARK 921   NORMALIZED FREE ENERGY PREDICTED BY IDOCK:   -5.10 KCAL/MOL
REMARK 922        TOTAL FREE ENERGY PREDICTED BY IDOCK:   -8.35 KCAL/MOL
REMARK 923 INTER-LIGAND FREE ENERGY PREDICTED BY IDOCK:   -6.89 KCAL/MOL
REMARK 924 INTRA-LIGAND FREE ENERGY PREDICTED BY IDOCK:   -1.46 KCAL/MOL
REMARK 927      BINDING AFFINITY PREDICTED BY RF-SCORE:    0.00 PKD
ROOT
HETATM    1  C   UNL     1      -5.727  14.134  69.030  1.00  0.00    -0.088 C  
HETATM    2  C   UNL     1      -6.919  14.382  68.099  1.00  0.00    -0.124 C  
ENDROOT
BRANCH   2   3
HETATM    3  N   UNL     1      -7.112  13.285  67.137  1.00  0.00    -0.369 NA 
HETATM    4  H   UNL     1      -6.241  12.768  67.015  1.00  0.00     0.000 HD 
BRANCH   3   5
HETATM    5  C   UNL     1      -8.209  12.360  67.458  1.00  0.00    -0.173 C  
BRANCH   5   6
HETATM    6  C   UNL     1      -9.551  13.052  67.733  1.00  0.00    -0.208 C  
BRANCH   6   7
HETATM    7  C   UNL     1     -10.370  13.252  66.482  1.00  0.00    -0.285 A  
HETATM    8  C   UNL     1     -11.827  13.679  64.143  1.00  0.00    -0.422 A  
HETATM    9  C   UNL     1     -11.178  12.464  64.349  1.00  0.00    -0.332 A  
HETATM   10  O   UNL     1     -12.517  13.897  62.985  1.00  0.00    -1.099 OA 
HETATM   11  C   UNL     1     -11.775  14.682  65.098  1.00  0.00    -0.364 A  
HETATM   12  H   UNL     1     -11.770  11.673  62.570  1.00  0.00     0.000 HD 
HETATM   13  C   UNL     1     -10.452  12.239  65.515  1.00  0.00    -0.296 A  
HETATM   14  O   UNL     1     -11.274  11.519  63.365  1.00  0.00    -0.387 OA 
HETATM   15  C   UNL     1     -11.047  14.466  66.271  1.00  0.00    -0.331 A  
HETATM   16  H   UNL     1     -12.960  14.726  62.844  1.00  0.00     0.000 HD 
ENDBRANCH   6   7
ENDBRANCH   5   6
ENDBRANCH   3   5
ENDBRANCH   2   3
BRANCH   2  17
HETATM   17  C   UNL     1      -6.706  15.711  67.346  1.00  0.00    -0.218 C  
BRANCH  17  18
HETATM   18  C   UNL     1      -7.935  16.166  66.549  1.00  0.00    -0.294 C  
BRANCH  18  19
HETATM   19  C   UNL     1      -8.622  17.322  67.240  1.00  0.00    -0.214 A  
HETATM   20  C   UNL     1      -8.344  18.643  66.866  1.00  0.00    -0.269 A  
HETATM   21  C   UNL     1      -9.586  17.081  68.231  1.00  0.00    -0.273 A  
HETATM   22  C   UNL     1     -10.265  18.142  68.833  1.00  0.00    -0.304 A  
HETATM   23  H   UNL     1     -10.437  21.402  68.722  1.00  0.00     0.000 HD 
HETATM   24  C   UNL     1      -9.021  19.705  67.469  1.00  0.00    -0.383 A  
HETATM   25  C   UNL     1      -9.979  19.446  68.441  1.00  0.00    -0.437 A  
HETATM   26  O   UNL     1     -10.632  20.511  68.990  1.00  0.00    -0.021 OA 
ENDBRANCH  18  19
ENDBRANCH  17  18
ENDBRANCH   2  17
TORSDOF 7
ENDMDL
MODEL      125
REMARK 921   NORMALIZED FREE ENERGY PREDICTED BY IDOCK:   -5.09 KCAL/MOL
REMARK 922        TOTAL FREE ENERGY PREDICTED BY IDOCK:   -8.33 KCAL/MOL
REMARK 923 INTER-LIGAND FREE ENERGY PREDICTED BY IDOCK:   -6.66 KCAL/MOL
REMARK 924 INTRA-LIGAND FREE ENERGY PREDICTED BY IDOCK:   -1.67 KCAL/MOL
REMARK 927      BINDING AFFINITY PREDICTED BY RF-SCORE:    0.00 PKD
ROOT
HETATM    1  C   UNL     1      -9.737   4.876  69.898  1.00  0.00    -0.276 C  
HETATM    2  C   UNL     1      -9.327   5.819  68.762  1.00  0.00    -0.119 C  
ENDROOT
BRANCH   2   3
HETATM    3  N   UNL     1      -8.262   6.749  69.169  1.00  0.00    -0.120 NA 
HETATM    4  H   UNL     1      -8.115   7.454  68.447  1.00  0.00     0.000 HD 
BRANCH   3   5
HETATM    5  C   UNL     1      -8.462   7.396  70.475  1.00  0.00    -0.137 C  
BRANCH   5   6
HETATM    6  C   UNL     1      -9.075   8.800  70.389  1.00  0.00    -0.198 C  
BRANCH   6   7
HETATM    7  C   UNL     1     -10.409   8.896  71.088  1.00  0.00    -0.338 A  
HETATM    8  C   UNL     1     -12.833   9.071  72.454  1.00  0.00    -0.385 A  
HETATM    9  C   UNL     1     -12.380  10.148  71.696  1.00  0.00    -0.377 A  
HETATM   10  O   UNL     1     -14.007   9.168  73.145  1.00  0.00    -1.101 OA 
HETATM   11  C   UNL     1     -12.101   7.897  72.527  1.00  0.00    -0.298 A  
HETATM   12  H   UNL     1     -13.978  11.328  72.137  1.00  0.00     0.000 HD 
HETATM   13  C   UNL     1     -11.174  10.069  71.006  1.00  0.00    -0.387 A  
HETATM   14  O   UNL     1     -13.155  11.275  71.667  1.00  0.00    -0.451 OA 
HETATM   15  C   UNL     1     -10.888   7.808  71.839  1.00  0.00    -0.281 A  
HETATM   16  H   UNL     1     -14.317   8.434  73.662  1.00  0.00     0.000 HD 
ENDBRANCH   6   7
ENDBRANCH   5   6
ENDBRANCH   3   5
ENDBRANCH   2   3
BRANCH   2  17
HETATM   17  C   UNL     1     -10.563   6.609  68.287  1.00  0.00    -0.291 C  
BRANCH  17  18
HETATM   18  C   UNL     1     -10.462   7.085  66.832  1.00  0.00    -0.356 C  
BRANCH  18  19
HETATM   19  C   UNL     1     -10.041   8.535  66.771  1.00  0.00    -0.369 A  
HETATM   20  C   UNL     1     -10.795   9.523  67.419  1.00  0.00    -0.215 A  
HETATM   21  C   UNL     1      -8.861   8.901  66.107  1.00  0.00    -0.193 A  
HETATM   22  C   UNL     1      -8.437  10.232  66.095  1.00  0.00    -0.144 A  
HETATM   23  H   UNL     1      -9.326  13.162  67.229  1.00  0.00     0.000 HD 
HETATM   24  C   UNL     1     -10.372  10.854  67.405  1.00  0.00    -0.248 A  
HETATM   25  C   UNL     1      -9.196  11.196  66.751  1.00  0.00    -0.171 A  
HETATM   26  O   UNL     1      -8.808  12.504  66.781  1.00  0.00    -0.208 OA 
ENDBRANCH  18  19
ENDBRANCH  17  18
ENDBRANCH   2  17
TORSDOF 7
ENDMDL
MODEL      126
REMARK 921   NORMALIZED FREE ENERGY PREDICTED BY IDOCK:   -5.09 KCAL/MOL
REMARK 922        TOTAL FREE ENERGY PREDICTED BY IDOCK:   -8.33 KCAL/MOL
REMARK 923 INTER-LIGAND FREE ENERGY PREDICTED BY IDOCK:   -7.41 KCAL/MOL
REMARK 924 INTRA-LIGAND FREE ENERGY PREDICTED BY IDOCK:   -0.92 KCAL/MOL
REMARK 927      BINDING AFFINITY PREDICTED BY RF-SCORE:    0.00 PKD
ROOT
HETATM    1  C   UNL     1     -10.376  14.611  69.031  1.00  0.00    -0.237 C  
HETATM    2  C   UNL     1     -11.761  13.956  69.045  1.00  0.00    -0.338 C  
ENDROOT
BRANCH   2   3
HETATM    3  N   UNL     1     -11.808  12.774  69.922  1.00  0.00    -0.435 NA 
HETATM    4  H   UNL     1     -12.598  12.844  70.564  1.00  0.00     0.000 HD 
BRANCH   3   5
HETATM    5  C   UNL     1     -11.836  11.480  69.224  1.00  0.00    -0.348 C  
BRANCH   5   6
HETATM    6  C   UNL     1     -10.601  10.606  69.479  1.00  0.00    -0.265 C  
BRANCH   6   7
HETATM    7  C   UNL     1     -10.914   9.385  70.308  1.00  0.00    -0.305 A  
HETATM    8  C   UNL     1     -11.575   7.149  71.838  1.00  0.00    -0.278 A  
HETATM    9  C   UNL     1     -11.090   6.990  70.543  1.00  0.00    -0.280 A  
HETATM   10  O   UNL     1     -11.924   6.055  72.577  1.00  0.00    -0.482 OA 
HETATM   11  C   UNL     1     -11.719   8.412  72.392  1.00  0.00    -0.452 A  
HETATM   12  H   UNL     1     -11.202   4.958  70.588  1.00  0.00     0.000 HD 
HETATM   13  C   UNL     1     -10.753   8.099  69.772  1.00  0.00    -0.229 A  
HETATM   14  O   UNL     1     -10.972   5.714  70.062  1.00  0.00    -0.328 OA 
HETATM   15  C   UNL     1     -11.384   9.531  71.626  1.00  0.00    -0.411 A  
HETATM   16  H   UNL     1     -12.255   6.163  73.461  1.00  0.00     0.000 HD 
ENDBRANCH   6   7
ENDBRANCH   5   6
ENDBRANCH   3   5
ENDBRANCH   2   3
BRANCH   2  17
HETATM   17  C   UNL     1     -12.150  13.560  67.607  1.00  0.00    -0.321 C  
BRANCH  17  18
HETATM   18  C   UNL     1     -11.144  14.034  66.550  1.00  0.00    -0.315 C  
BRANCH  18  19
HETATM   19  C   UNL     1     -10.789  12.907  65.607  1.00  0.00    -0.296 A  
HETATM   20  C   UNL     1     -10.829  13.100  64.219  1.00  0.00    -0.430 A  
HETATM   21  C   UNL     1     -10.366  11.669  66.112  1.00  0.00    -0.280 A  
HETATM   22  C   UNL     1      -9.983  10.643  65.246  1.00  0.00    -0.356 A  
HETATM   23  H   UNL     1      -9.666  10.036  62.053  1.00  0.00     0.000 HD 
HETATM   24  C   UNL     1     -10.448  12.073  63.353  1.00  0.00    -0.474 A  
HETATM   25  C   UNL     1     -10.023  10.858  63.872  1.00  0.00    -0.343 A  
HETATM   26  O   UNL     1      -9.639   9.889  62.992  1.00  0.00    -0.204 OA 
ENDBRANCH  18  19
ENDBRANCH  17  18
ENDBRANCH   2  17
TORSDOF 7
ENDMDL
MODEL      127
REMARK 921   NORMALIZED FREE ENERGY PREDICTED BY IDOCK:   -5.08 KCAL/MOL
REMARK 922        TOTAL FREE ENERGY PREDICTED BY IDOCK:   -8.32 KCAL/MOL
REMARK 923 INTER-LIGAND FREE ENERGY PREDICTED BY IDOCK:   -7.28 KCAL/MOL
REMARK 924 INTRA-LIGAND FREE ENERGY PREDICTED BY IDOCK:   -1.05 KCAL/MOL
REMARK 927      BINDING AFFINITY PREDICTED BY RF-SCORE:    0.00 PKD
ROOT
HETATM    1  C   UNL     1      -8.341   7.074  67.725  1.00  0.00    -0.117 C  
HETATM    2  C   UNL     1      -9.446   8.060  68.117  1.00  0.00    -0.143 C  
ENDROOT
BRANCH   2   3
HETATM    3  N   UNL     1     -10.381   7.487  69.098  1.00  0.00    -0.209 NA 
HETATM    4  H   UNL     1     -10.277   6.473  69.132  1.00  0.00     0.000 HD 
BRANCH   3   5
HETATM    5  C   UNL     1     -10.289   8.051  70.453  1.00  0.00    -0.206 C  
BRANCH   5   6
HETATM    6  C   UNL     1     -11.635   8.503  71.035  1.00  0.00    -0.317 C  
BRANCH   6   7
HETATM    7  C   UNL     1     -11.858   9.989  70.900  1.00  0.00    -0.459 A  
HETATM    8  C   UNL     1     -12.311  12.721  70.577  1.00  0.00    -0.275 A  
HETATM    9  C   UNL     1     -12.928  12.029  71.616  1.00  0.00    -0.334 A  
HETATM   10  O   UNL     1     -12.556  14.053  70.404  1.00  0.00    -0.336 OA 
HETATM   11  C   UNL     1     -11.453  12.072  69.703  1.00  0.00    -0.322 A  
HETATM   12  H   UNL     1     -13.913  13.664  72.323  1.00  0.00     0.000 HD 
HETATM   13  C   UNL     1     -12.706  10.666  71.789  1.00  0.00    -0.489 A  
HETATM   14  O   UNL     1     -13.761  12.734  72.441  1.00  0.00    -0.546 OA 
HETATM   15  C   UNL     1     -11.223  10.704  69.868  1.00  0.00    -0.378 A  
HETATM   16  H   UNL     1     -12.135  14.526  69.695  1.00  0.00     0.000 HD 
ENDBRANCH   6   7
ENDBRANCH   5   6
ENDBRANCH   3   5
ENDBRANCH   2   3
BRANCH   2  17
HETATM   17  C   UNL     1     -10.211   8.494  66.850  1.00  0.00    -0.375 C  
BRANCH  17  18
HETATM   18  C   UNL     1      -9.338   9.243  65.836  1.00  0.00    -0.297 C  
BRANCH  18  19
HETATM   19  C   UNL     1      -9.974  10.559  65.451  1.00  0.00    -0.353 A  
HETATM   20  C   UNL     1     -10.173  11.562  66.410  1.00  0.00    -0.261 A  
HETATM   21  C   UNL     1     -10.326  10.811  64.117  1.00  0.00    -0.382 A  
HETATM   22  C   UNL     1     -10.862  12.045  63.745  1.00  0.00    -0.481 A  
HETATM   23  H   UNL     1     -11.671  14.929  65.048  1.00  0.00     0.000 HD 
HETATM   24  C   UNL     1     -10.711  12.796  66.039  1.00  0.00    -0.295 A  
HETATM   25  C   UNL     1     -11.045  13.030  64.711  1.00  0.00    -0.322 A  
HETATM   26  O   UNL     1     -11.547  14.256  64.388  1.00  0.00    -0.382 OA 
ENDBRANCH  18  19
ENDBRANCH  17  18
ENDBRANCH   2  17
TORSDOF 7
ENDMDL
MODEL      128
REMARK 921   NORMALIZED FREE ENERGY PREDICTED BY IDOCK:   -5.08 KCAL/MOL
REMARK 922        TOTAL FREE ENERGY PREDICTED BY IDOCK:   -8.32 KCAL/MOL
REMARK 923 INTER-LIGAND FREE ENERGY PREDICTED BY IDOCK:   -6.78 KCAL/MOL
REMARK 924 INTRA-LIGAND FREE ENERGY PREDICTED BY IDOCK:   -1.53 KCAL/MOL
REMARK 927      BINDING AFFINITY PREDICTED BY RF-SCORE:    0.00 PKD
ROOT
HETATM    1  C   UNL     1     -12.013  13.984  64.305  1.00  0.00    -0.463 C  
HETATM    2  C   UNL     1     -10.943  14.073  65.399  1.00  0.00    -0.321 C  
ENDROOT
BRANCH   2   3
HETATM    3  N   UNL     1      -9.801  13.183  65.134  1.00  0.00    -0.521 NA 
HETATM    4  H   UNL     1      -8.934  13.623  65.441  1.00  0.00     0.000 HD 
BRANCH   3   5
HETATM    5  C   UNL     1      -9.915  11.833  65.706  1.00  0.00    -0.238 C  
BRANCH   5   6
HETATM    6  C   UNL     1      -8.834  11.500  66.743  1.00  0.00    -0.183 C  
BRANCH   6   7
HETATM    7  C   UNL     1      -9.366  10.685  67.896  1.00  0.00    -0.154 A  
HETATM    8  C   UNL     1     -10.346   9.111  69.978  1.00  0.00    -0.207 A  
HETATM    9  C   UNL     1      -9.079   9.680  70.070  1.00  0.00    -0.237 A  
HETATM   10  O   UNL     1     -10.814   8.317  70.986  1.00  0.00    -0.224 OA 
HETATM   11  C   UNL     1     -11.143   9.330  68.866  1.00  0.00     0.042 A  
HETATM   12  H   UNL     1      -8.687   8.883  71.902  1.00  0.00     0.000 HD 
HETATM   13  C   UNL     1      -8.582  10.471  69.039  1.00  0.00    -0.160 A  
HETATM   14  O   UNL     1      -8.348   9.422  71.198  1.00  0.00    -0.310 OA 
HETATM   15  C   UNL     1     -10.653  10.122  67.824  1.00  0.00    -0.304 A  
HETATM   16  H   UNL     1     -11.678   7.928  70.924  1.00  0.00     0.000 HD 
ENDBRANCH   6   7
ENDBRANCH   5   6
ENDBRANCH   3   5
ENDBRANCH   2   3
BRANCH   2  17
HETATM   17  C   UNL     1     -11.579  13.723  66.760  1.00  0.00    -0.394 C  
BRANCH  17  18
HETATM   18  C   UNL     1     -11.214  14.710  67.876  1.00  0.00    -0.318 C  
BRANCH  18  19
HETATM   19  C   UNL     1     -11.866  14.308  69.179  1.00  0.00    -0.368 A  
HETATM   20  C   UNL     1     -12.611  15.236  69.919  1.00  0.00    -0.213 A  
HETATM   21  C   UNL     1     -11.776  12.985  69.637  1.00  0.00    -0.364 A  
HETATM   22  C   UNL     1     -12.423  12.594  70.810  1.00  0.00    -0.357 A  
HETATM   23  H   UNL     1     -14.334  13.824  73.156  1.00  0.00     0.000 HD 
HETATM   24  C   UNL     1     -13.257  14.846  71.094  1.00  0.00    -0.476 A  
HETATM   25  C   UNL     1     -13.164  13.529  71.526  1.00  0.00    -0.322 A  
HETATM   26  O   UNL     1     -13.827  13.185  72.667  1.00  0.00    -0.691 OA 
ENDBRANCH  18  19
ENDBRANCH  17  18
ENDBRANCH   2  17
TORSDOF 7
ENDMDL
MODEL      129
REMARK 921   NORMALIZED FREE ENERGY PREDICTED BY IDOCK:   -5.07 KCAL/MOL
REMARK 922        TOTAL FREE ENERGY PREDICTED BY IDOCK:   -8.31 KCAL/MOL
REMARK 923 INTER-LIGAND FREE ENERGY PREDICTED BY IDOCK:   -7.39 KCAL/MOL
REMARK 924 INTRA-LIGAND FREE ENERGY PREDICTED BY IDOCK:   -0.92 KCAL/MOL
REMARK 927      BINDING AFFINITY PREDICTED BY RF-SCORE:    0.00 PKD
ROOT
HETATM    1  C   UNL     1     -11.343  14.399  67.035  1.00  0.00    -0.357 C  
HETATM    2  C   UNL     1     -11.607  12.995  66.480  1.00  0.00    -0.356 C  
ENDROOT
BRANCH   2   3
HETATM    3  N   UNL     1     -12.034  12.054  67.528  1.00  0.00    -0.578 NA 
HETATM    4  H   UNL     1     -12.120  11.114  67.142  1.00  0.00     0.000 HD 
BRANCH   3   5
HETATM    5  C   UNL     1     -11.188  12.032  68.730  1.00  0.00    -0.263 C  
BRANCH   5   6
HETATM    6  C   UNL     1     -11.970  12.125  70.047  1.00  0.00    -0.391 C  
BRANCH   6   7
HETATM    7  C   UNL     1     -12.193  10.777  70.687  1.00  0.00    -0.474 A  
HETATM    8  C   UNL     1     -12.685   8.286  71.838  1.00  0.00    -0.342 A  
HETATM    9  C   UNL     1     -11.763   8.406  70.802  1.00  0.00    -0.202 A  
HETATM   10  O   UNL     1     -12.945   7.061  72.383  1.00  0.00    -0.500 OA 
HETATM   11  C   UNL     1     -13.356   9.397  72.324  1.00  0.00    -0.539 A  
HETATM   12  H   UNL     1     -11.312   6.421  70.769  1.00  0.00     0.000 HD 
HETATM   13  C   UNL     1     -11.507   9.645  70.223  1.00  0.00    -0.288 A  
HETATM   14  O   UNL     1     -11.137   7.267  70.374  1.00  0.00    -0.257 OA 
HETATM   15  C   UNL     1     -13.106  10.646  71.749  1.00  0.00    -0.571 A  
HETATM   16  H   UNL     1     -13.575   6.978  73.090  1.00  0.00     0.000 HD 
ENDBRANCH   6   7
ENDBRANCH   5   6
ENDBRANCH   3   5
ENDBRANCH   2   3
BRANCH   2  17
HETATM   17  C   UNL     1     -10.329  12.473  65.792  1.00  0.00    -0.288 C  
BRANCH  17  18
HETATM   18  C   UNL     1     -10.603  11.412  64.718  1.00  0.00    -0.377 C  
BRANCH  18  19
HETATM   19  C   UNL     1      -9.827  10.147  65.006  1.00  0.00    -0.392 A  
HETATM   20  C   UNL     1      -8.932   9.629  64.061  1.00  0.00    -0.261 A  
HETATM   21  C   UNL     1      -9.958   9.505  66.246  1.00  0.00    -0.344 A  
HETATM   22  C   UNL     1      -9.202   8.368  66.540  1.00  0.00    -0.238 A  
HETATM   23  H   UNL     1      -6.935   6.441  65.194  1.00  0.00     0.000 HD 
HETATM   24  C   UNL     1      -8.178   8.491  64.353  1.00  0.00    -0.153 A  
HETATM   25  C   UNL     1      -8.314   7.875  65.590  1.00  0.00    -0.142 A  
HETATM   26  O   UNL     1      -7.543   6.778  65.843  1.00  0.00    -0.081 OA 
ENDBRANCH  18  19
ENDBRANCH  17  18
ENDBRANCH   2  17
TORSDOF 7
ENDMDL
MODEL      130
REMARK 921   NORMALIZED FREE ENERGY PREDICTED BY IDOCK:   -5.07 KCAL/MOL
REMARK 922        TOTAL FREE ENERGY PREDICTED BY IDOCK:   -8.31 KCAL/MOL
REMARK 923 INTER-LIGAND FREE ENERGY PREDICTED BY IDOCK:   -7.65 KCAL/MOL
REMARK 924 INTRA-LIGAND FREE ENERGY PREDICTED BY IDOCK:   -0.66 KCAL/MOL
REMARK 927      BINDING AFFINITY PREDICTED BY RF-SCORE:    0.00 PKD
ROOT
HETATM    1  C   UNL     1     -10.678   8.229  71.957  1.00  0.00    -0.366 C  
HETATM    2  C   UNL     1     -12.195   8.027  71.867  1.00  0.00    -0.319 C  
ENDROOT
BRANCH   2   3
HETATM    3  N   UNL     1     -12.571   7.129  70.764  1.00  0.00    -0.600 NA 
HETATM    4  H   UNL     1     -13.047   7.655  70.030  1.00  0.00     0.000 HD 
BRANCH   3   5
HETATM    5  C   UNL     1     -11.466   6.347  70.190  1.00  0.00    -0.417 C  
BRANCH   5   6
HETATM    6  C   UNL     1     -11.130   6.710  68.738  1.00  0.00    -0.297 C  
BRANCH   6   7
HETATM    7  C   UNL     1     -10.524   5.557  67.975  1.00  0.00    -0.240 A  
HETATM    8  C   UNL     1      -9.353   3.481  66.530  1.00  0.00    -0.173 A  
HETATM    9  C   UNL     1      -9.194   3.545  67.911  1.00  0.00    -0.183 A  
HETATM   10  O   UNL     1      -8.755   2.479  65.819  1.00  0.00    -0.114 OA 
HETATM   11  C   UNL     1     -10.105   4.430  65.857  1.00  0.00    -0.262 A  
HETATM   12  H   UNL     1      -8.041   1.871  68.010  1.00  0.00     0.000 HD 
HETATM   13  C   UNL     1      -9.778   4.575  68.643  1.00  0.00    -0.203 A  
HETATM   14  O   UNL     1      -8.439   2.573  68.510  1.00  0.00    -0.063 OA 
HETATM   15  C   UNL     1     -10.695   5.468  66.583  1.00  0.00    -0.332 A  
HETATM   16  H   UNL     1      -8.863   2.435  64.876  1.00  0.00     0.000 HD 
ENDBRANCH   6   7
ENDBRANCH   5   6
ENDBRANCH   3   5
ENDBRANCH   2   3
BRANCH   2  17
HETATM   17  C   UNL     1     -12.879   9.397  71.690  1.00  0.00    -0.461 C  
BRANCH  17  18
HETATM   18  C   UNL     1     -12.198  10.290  70.645  1.00  0.00    -0.422 C  
BRANCH  18  19
HETATM   19  C   UNL     1     -12.524  11.745  70.890  1.00  0.00    -0.416 A  
HETATM   20  C   UNL     1     -13.316  12.123  71.983  1.00  0.00    -0.470 A  
HETATM   21  C   UNL     1     -11.995  12.739  70.054  1.00  0.00    -0.371 A  
HETATM   22  C   UNL     1     -12.246  14.088  70.308  1.00  0.00    -0.430 A  
HETATM   23  H   UNL     1     -13.817  15.992  72.446  1.00  0.00     0.000 HD 
HETATM   24  C   UNL     1     -13.570  13.473  72.236  1.00  0.00    -0.690 A  
HETATM   25  C   UNL     1     -13.028  14.443  71.402  1.00  0.00    -0.335 A  
HETATM   26  O   UNL     1     -13.283  15.750  71.698  1.00  0.00    -0.486 OA 
ENDBRANCH  18  19
ENDBRANCH  17  18
ENDBRANCH   2  17
TORSDOF 7
ENDMDL
MODEL      131
REMARK 921   NORMALIZED FREE ENERGY PREDICTED BY IDOCK:   -5.06 KCAL/MOL
REMARK 922        TOTAL FREE ENERGY PREDICTED BY IDOCK:   -8.29 KCAL/MOL
REMARK 923 INTER-LIGAND FREE ENERGY PREDICTED BY IDOCK:   -7.36 KCAL/MOL
REMARK 924 INTRA-LIGAND FREE ENERGY PREDICTED BY IDOCK:   -0.94 KCAL/MOL
REMARK 927      BINDING AFFINITY PREDICTED BY RF-SCORE:    0.00 PKD
ROOT
HETATM    1  C   UNL     1     -11.187  14.917  66.126  1.00  0.00    -0.325 C  
HETATM    2  C   UNL     1     -11.078  14.951  67.654  1.00  0.00    -0.311 C  
ENDROOT
BRANCH   2   3
HETATM    3  N   UNL     1      -9.698  14.737  68.118  1.00  0.00    -0.213 NA 
HETATM    4  H   UNL     1      -9.700  14.247  69.013  1.00  0.00     0.000 HD 
BRANCH   3   5
HETATM    5  C   UNL     1      -8.819  14.045  67.164  1.00  0.00    -0.228 C  
BRANCH   5   6
HETATM    6  C   UNL     1      -8.577  12.566  67.496  1.00  0.00    -0.183 C  
BRANCH   6   7
HETATM    7  C   UNL     1      -8.793  11.661  66.308  1.00  0.00    -0.164 A  
HETATM    8  C   UNL     1      -9.180  10.054  64.063  1.00  0.00    -0.272 A  
HETATM    9  C   UNL     1      -8.070   9.856  64.880  1.00  0.00    -0.145 A  
HETATM   10  O   UNL     1      -9.354   9.285  62.948  1.00  0.00    -0.524 OA 
HETATM   11  C   UNL     1     -10.114  11.034  64.360  1.00  0.00    -0.393 A  
HETATM   12  H   UNL     1      -7.327   8.328  63.759  1.00  0.00     0.000 HD 
HETATM   13  C   UNL     1      -7.870  10.650  66.006  1.00  0.00    -0.156 A  
HETATM   14  O   UNL     1      -7.191   8.869  64.527  1.00  0.00    -0.094 OA 
HETATM   15  C   UNL     1      -9.921  11.837  65.487  1.00  0.00    -0.273 A  
HETATM   16  H   UNL     1     -10.111   9.420  62.390  1.00  0.00     0.000 HD 
ENDBRANCH   6   7
ENDBRANCH   5   6
ENDBRANCH   3   5
ENDBRANCH   2   3
BRANCH   2  17
HETATM   17  C   UNL     1     -12.008  13.877  68.253  1.00  0.00    -0.392 C  
BRANCH  17  18
HETATM   18  C   UNL     1     -11.542  13.358  69.619  1.00  0.00    -0.334 C  
BRANCH  18  19
HETATM   19  C   UNL     1     -12.096  14.216  70.734  1.00  0.00    -0.419 A  
HETATM   20  C   UNL     1     -13.331  13.911  71.321  1.00  0.00    -0.314 A  
HETATM   21  C   UNL     1     -11.353  15.298  71.229  1.00  0.00    -0.416 A  
HETATM   22  C   UNL     1     -11.833  16.060  72.296  1.00  0.00    -0.628 A  
HETATM   23  H   UNL     1     -14.393  16.220  74.317  1.00  0.00     0.000 HD 
HETATM   24  C   UNL     1     -13.813  14.674  72.386  1.00  0.00    -0.580 A  
HETATM   25  C   UNL     1     -13.059  15.736  72.869  1.00  0.00    -0.521 A  
HETATM   26  O   UNL     1     -13.556  16.442  73.925  1.00  0.00    -0.472 OA 
ENDBRANCH  18  19
ENDBRANCH  17  18
ENDBRANCH   2  17
TORSDOF 7
ENDMDL
MODEL      132
REMARK 921   NORMALIZED FREE ENERGY PREDICTED BY IDOCK:   -5.05 KCAL/MOL
REMARK 922        TOTAL FREE ENERGY PREDICTED BY IDOCK:   -8.28 KCAL/MOL
REMARK 923 INTER-LIGAND FREE ENERGY PREDICTED BY IDOCK:   -6.47 KCAL/MOL
REMARK 924 INTRA-LIGAND FREE ENERGY PREDICTED BY IDOCK:   -1.81 KCAL/MOL
REMARK 927      BINDING AFFINITY PREDICTED BY RF-SCORE:    0.00 PKD
ROOT
HETATM    1  C   UNL     1     -10.717  19.414  67.113  1.00  0.00    -0.593 C  
HETATM    2  C   UNL     1     -10.188  18.052  67.577  1.00  0.00    -0.369 C  
ENDROOT
BRANCH   2   3
HETATM    3  N   UNL     1     -10.500  17.788  68.991  1.00  0.00    -0.415 NA 
HETATM    4  H   UNL     1     -11.366  18.259  69.254  1.00  0.00     0.000 HD 
BRANCH   3   5
HETATM    5  C   UNL     1     -10.565  16.365  69.360  1.00  0.00    -0.317 C  
BRANCH   5   6
HETATM    6  C   UNL     1     -11.898  15.690  69.015  1.00  0.00    -0.379 C  
BRANCH   6   7
HETATM    7  C   UNL     1     -11.749  14.608  67.973  1.00  0.00    -0.371 A  
HETATM    8  C   UNL     1     -11.393  12.632  66.039  1.00  0.00    -0.327 A  
HETATM    9  C   UNL     1     -11.629  12.277  67.364  1.00  0.00    -0.355 A  
HETATM   10  O   UNL     1     -11.190  11.663  65.098  1.00  0.00    -0.275 OA 
HETATM   11  C   UNL     1     -11.349  13.964  65.658  1.00  0.00    -0.310 A  
HETATM   12  H   UNL     1     -11.535  10.276  67.004  1.00  0.00     0.000 HD 
HETATM   13  C   UNL     1     -11.813  13.255  68.337  1.00  0.00    -0.395 A  
HETATM   14  O   UNL     1     -11.661  10.943  67.668  1.00  0.00    -0.531 OA 
HETATM   15  C   UNL     1     -11.532  14.953  66.627  1.00  0.00    -0.297 A  
HETATM   16  H   UNL     1     -11.029  11.905  64.193  1.00  0.00     0.000 HD 
ENDBRANCH   6   7
ENDBRANCH   5   6
ENDBRANCH   3   5
ENDBRANCH   2   3
BRANCH   2  17
HETATM   17  C   UNL     1      -8.663  17.998  67.355  1.00  0.00    -0.248 C  
BRANCH  17  18
HETATM   18  C   UNL     1      -8.207  16.779  66.544  1.00  0.00    -0.325 C  
BRANCH  18  19
HETATM   19  C   UNL     1      -7.751  15.667  67.461  1.00  0.00    -0.192 A  
HETATM   20  C   UNL     1      -8.079  14.333  67.182  1.00  0.00    -0.154 A  
HETATM   21  C   UNL     1      -6.950  15.954  68.576  1.00  0.00    -0.122 A  
HETATM   22  C   UNL     1      -6.478  14.927  69.396  1.00  0.00    -0.131 A  
HETATM   23  H   UNL     1      -6.580  11.673  69.654  1.00  0.00     0.000 HD 
HETATM   24  C   UNL     1      -7.609  13.305  68.003  1.00  0.00    -0.145 A  
HETATM   25  C   UNL     1      -6.809  13.609  69.096  1.00  0.00    -0.095 A  
HETATM   26  O   UNL     1      -6.354  12.573  69.859  1.00  0.00    -0.118 OA 
ENDBRANCH  18  19
ENDBRANCH  17  18
ENDBRANCH   2  17
TORSDOF 7
ENDMDL
MODEL      133
REMARK 921   NORMALIZED FREE ENERGY PREDICTED BY IDOCK:   -5.04 KCAL/MOL
REMARK 922        TOTAL FREE ENERGY PREDICTED BY IDOCK:   -8.26 KCAL/MOL
REMARK 923 INTER-LIGAND FREE ENERGY PREDICTED BY IDOCK:   -7.06 KCAL/MOL
REMARK 924 INTRA-LIGAND FREE ENERGY PREDICTED BY IDOCK:   -1.19 KCAL/MOL
REMARK 927      BINDING AFFINITY PREDICTED BY RF-SCORE:    0.00 PKD
ROOT
HETATM    1  C   UNL     1     -11.871  13.126  68.809  1.00  0.00    -0.361 C  
HETATM    2  C   UNL     1     -10.386  13.248  69.166  1.00  0.00     0.149 C  
ENDROOT
BRANCH   2   3
HETATM    3  N   UNL     1      -9.907  14.637  69.083  1.00  0.00    -0.364 NA 
HETATM    4  H   UNL     1      -9.482  14.809  68.172  1.00  0.00     0.000 HD 
BRANCH   3   5
HETATM    5  C   UNL     1     -10.919  15.665  69.370  1.00  0.00    -0.283 C  
BRANCH   5   6
HETATM    6  C   UNL     1     -11.407  16.427  68.131  1.00  0.00    -0.205 C  
BRANCH   6   7
HETATM    7  C   UNL     1     -10.512  17.588  67.773  1.00  0.00    -0.381 A  
HETATM    8  C   UNL     1      -8.928  19.785  67.111  1.00  0.00    -0.327 A  
HETATM    9  C   UNL     1      -8.794  19.178  68.357  1.00  0.00    -0.347 A  
HETATM   10  O   UNL     1      -8.171  20.878  66.799  1.00  0.00    -0.556 OA 
HETATM   11  C   UNL     1      -9.831  19.300  66.179  1.00  0.00    -0.429 A  
HETATM   12  H   UNL     1      -7.347  20.459  68.996  1.00  0.00     0.000 HD 
HETATM   13  C   UNL     1      -9.577  18.078  68.696  1.00  0.00    -0.335 A  
HETATM   14  O   UNL     1      -7.881  19.709  69.227  1.00  0.00    -0.290 OA 
HETATM   15  C   UNL     1     -10.622  18.196  66.510  1.00  0.00    -0.290 A  
HETATM   16  H   UNL     1      -8.262  21.292  65.949  1.00  0.00     0.000 HD 
ENDBRANCH   6   7
ENDBRANCH   5   6
ENDBRANCH   3   5
ENDBRANCH   2   3
BRANCH   2  17
HETATM   17  C   UNL     1      -9.561  12.349  68.224  1.00  0.00    -0.211 C  
BRANCH  17  18
HETATM   18  C   UNL     1      -8.948  13.106  67.038  1.00  0.00    -0.228 C  
BRANCH  18  19
HETATM   19  C   UNL     1      -9.964  13.281  65.933  1.00  0.00    -0.280 A  
HETATM   20  C   UNL     1     -10.603  12.169  65.369  1.00  0.00    -0.309 A  
HETATM   21  C   UNL     1     -10.317  14.566  65.495  1.00  0.00    -0.379 A  
HETATM   22  C   UNL     1     -11.296  14.738  64.515  1.00  0.00    -0.309 A  
HETATM   23  H   UNL     1     -13.327  12.981  62.657  1.00  0.00     0.000 HD 
HETATM   24  C   UNL     1     -11.581  12.340  64.387  1.00  0.00    -0.428 A  
HETATM   25  C   UNL     1     -11.924  13.621  63.973  1.00  0.00    -0.431 A  
HETATM   26  O   UNL     1     -12.898  13.744  63.026  1.00  0.00    -0.471 OA 
ENDBRANCH  18  19
ENDBRANCH  17  18
ENDBRANCH   2  17
TORSDOF 7
ENDMDL
MODEL      134
REMARK 921   NORMALIZED FREE ENERGY PREDICTED BY IDOCK:   -5.03 KCAL/MOL
REMARK 922        TOTAL FREE ENERGY PREDICTED BY IDOCK:   -8.25 KCAL/MOL
REMARK 923 INTER-LIGAND FREE ENERGY PREDICTED BY IDOCK:   -6.07 KCAL/MOL
REMARK 924 INTRA-LIGAND FREE ENERGY PREDICTED BY IDOCK:   -2.19 KCAL/MOL
REMARK 927      BINDING AFFINITY PREDICTED BY RF-SCORE:    0.00 PKD
ROOT
HETATM    1  C   UNL     1      -7.470   5.667  69.061  1.00  0.00    -0.083 C  
HETATM    2  C   UNL     1      -8.553   4.845  68.353  1.00  0.00    -0.097 C  
ENDROOT
BRANCH   2   3
HETATM    3  N   UNL     1      -8.751   5.270  66.958  1.00  0.00    -0.108 NA 
HETATM    4  H   UNL     1      -8.941   4.461  66.368  1.00  0.00     0.000 HD 
BRANCH   3   5
HETATM    5  C   UNL     1      -9.785   6.297  66.759  1.00  0.00    -0.156 C  
BRANCH   5   6
HETATM    6  C   UNL     1      -9.231   7.715  66.570  1.00  0.00    -0.220 C  
BRANCH   6   7
HETATM    7  C   UNL     1      -9.819   8.704  67.546  1.00  0.00    -0.234 A  
HETATM    8  C   UNL     1     -10.829  10.568  69.356  1.00  0.00    -0.249 A  
HETATM    9  C   UNL     1     -11.241  10.593  68.027  1.00  0.00    -0.307 A  
HETATM   10  O   UNL     1     -11.303  11.499  70.236  1.00  0.00    -0.499 OA 
HETATM   11  C   UNL     1      -9.930   9.612  69.804  1.00  0.00    -0.252 A  
HETATM   12  H   UNL     1     -12.468  12.197  68.278  1.00  0.00     0.000 HD 
HETATM   13  C   UNL     1     -10.746   9.664  67.116  1.00  0.00    -0.258 A  
HETATM   14  O   UNL     1     -12.131  11.563  67.656  1.00  0.00    -0.623 OA 
HETATM   15  C   UNL     1      -9.428   8.676  68.896  1.00  0.00    -0.146 A  
HETATM   16  H   UNL     1     -11.023  11.482  71.144  1.00  0.00     0.000 HD 
ENDBRANCH   6   7
ENDBRANCH   5   6
ENDBRANCH   3   5
ENDBRANCH   2   3
BRANCH   2  17
HETATM   17  C   UNL     1      -9.876   4.969  69.135  1.00  0.00    -0.262 C  
BRANCH  17  18
HETATM   18  C   UNL     1      -9.678   5.179  70.642  1.00  0.00    -0.257 C  
BRANCH  18  19
HETATM   19  C   UNL     1     -10.660   6.198  71.173  1.00  0.00    -0.300 A  
HETATM   20  C   UNL     1     -10.378   6.917  72.343  1.00  0.00    -0.226 A  
HETATM   21  C   UNL     1     -11.843   6.472  70.472  1.00  0.00    -0.393 A  
HETATM   22  C   UNL     1     -12.727   7.452  70.928  1.00  0.00    -0.162 A  
HETATM   23  H   UNL     1     -13.044   9.622  73.348  1.00  0.00     0.000 HD 
HETATM   24  C   UNL     1     -11.262   7.895  72.800  1.00  0.00    -0.466 A  
HETATM   25  C   UNL     1     -12.425   8.159  72.087  1.00  0.00    -0.322 A  
HETATM   26  O   UNL     1     -13.251   9.138  72.557  1.00  0.00    -0.444 OA 
ENDBRANCH  18  19
ENDBRANCH  17  18
ENDBRANCH   2  17
TORSDOF 7
ENDMDL
MODEL      135
REMARK 921   NORMALIZED FREE ENERGY PREDICTED BY IDOCK:   -4.99 KCAL/MOL
REMARK 922        TOTAL FREE ENERGY PREDICTED BY IDOCK:   -8.20 KCAL/MOL
REMARK 923 INTER-LIGAND FREE ENERGY PREDICTED BY IDOCK:   -7.02 KCAL/MOL
REMARK 924 INTRA-LIGAND FREE ENERGY PREDICTED BY IDOCK:   -1.19 KCAL/MOL
REMARK 927      BINDING AFFINITY PREDICTED BY RF-SCORE:    0.00 PKD
ROOT
HETATM    1  C   UNL     1      -8.109  12.746  67.689  1.00  0.00    -0.175 C  
HETATM    2  C   UNL     1      -8.951  11.590  68.241  1.00  0.00    -0.177 C  
ENDROOT
BRANCH   2   3
HETATM    3  N   UNL     1      -8.208  10.777  69.216  1.00  0.00    -0.318 NA 
HETATM    4  H   UNL     1      -7.719  11.381  69.877  1.00  0.00     0.000 HD 
BRANCH   3   5
HETATM    5  C   UNL     1      -9.012   9.780  69.940  1.00  0.00    -0.229 C  
BRANCH   5   6
HETATM    6  C   UNL     1      -8.441   8.357  69.884  1.00  0.00    -0.126 C  
BRANCH   6   7
HETATM    7  C   UNL     1      -9.115   7.500  68.841  1.00  0.00    -0.140 A  
HETATM    8  C   UNL     1     -10.423   5.976  66.907  1.00  0.00    -0.280 A  
HETATM    9  C   UNL     1      -9.192   6.560  66.620  1.00  0.00    -0.153 A  
HETATM   10  O   UNL     1     -11.076   5.253  65.950  1.00  0.00    -0.773 OA 
HETATM   11  C   UNL     1     -11.006   6.126  68.155  1.00  0.00    -0.398 A  
HETATM   12  H   UNL     1      -9.128   5.851  64.714  1.00  0.00     0.000 HD 
HETATM   13  C   UNL     1      -8.529   7.320  67.580  1.00  0.00    -0.119 A  
HETATM   14  O   UNL     1      -8.675   6.369  65.368  1.00  0.00    -0.122 OA 
HETATM   15  C   UNL     1     -10.348   6.887  69.125  1.00  0.00    -0.207 A  
HETATM   16  H   UNL     1     -11.916   4.854  66.145  1.00  0.00     0.000 HD 
ENDBRANCH   6   7
ENDBRANCH   5   6
ENDBRANCH   3   5
ENDBRANCH   2   3
BRANCH   2  17
HETATM   17  C   UNL     1      -9.428  10.706  67.071  1.00  0.00    -0.187 C  
BRANCH  17  18
HETATM   18  C   UNL     1     -10.949  10.724  66.871  1.00  0.00    -0.255 C  
BRANCH  18  19
HETATM   19  C   UNL     1     -11.367  11.931  66.063  1.00  0.00    -0.375 A  
HETATM   20  C   UNL     1     -11.161  11.967  64.677  1.00  0.00    -0.375 A  
HETATM   21  C   UNL     1     -12.015  13.008  66.685  1.00  0.00    -0.453 A  
HETATM   22  C   UNL     1     -12.455  14.101  65.935  1.00  0.00    -0.479 A  
HETATM   23  H   UNL     1     -12.535  15.160  62.847  1.00  0.00     0.000 HD 
HETATM   24  C   UNL     1     -11.598  13.060  63.927  1.00  0.00    -0.508 A  
HETATM   25  C   UNL     1     -12.247  14.113  64.560  1.00  0.00    -0.445 A  
HETATM   26  O   UNL     1     -12.677  15.152  63.787  1.00  0.00    -0.722 OA 
ENDBRANCH  18  19
ENDBRANCH  17  18
ENDBRANCH   2  17
TORSDOF 7
ENDMDL
MODEL      136
REMARK 921   NORMALIZED FREE ENERGY PREDICTED BY IDOCK:   -4.97 KCAL/MOL
REMARK 922        TOTAL FREE ENERGY PREDICTED BY IDOCK:   -8.17 KCAL/MOL
REMARK 923 INTER-LIGAND FREE ENERGY PREDICTED BY IDOCK:   -5.56 KCAL/MOL
REMARK 924 INTRA-LIGAND FREE ENERGY PREDICTED BY IDOCK:   -2.61 KCAL/MOL
REMARK 927      BINDING AFFINITY PREDICTED BY RF-SCORE:    0.00 PKD
ROOT
HETATM    1  C   UNL     1      -6.983   9.436  65.246  1.00  0.00    -0.091 C  
HETATM    2  C   UNL     1      -6.954   9.736  66.749  1.00  0.00    -0.085 C  
ENDROOT
BRANCH   2   3
HETATM    3  N   UNL     1      -8.165   9.257  67.435  1.00  0.00    -0.117 NA 
HETATM    4  H   UNL     1      -8.381   9.859  68.229  1.00  0.00     0.000 HD 
BRANCH   3   5
HETATM    5  C   UNL     1      -9.351   9.107  66.577  1.00  0.00    -0.190 C  
BRANCH   5   6
HETATM    6  C   UNL     1     -10.533   9.997  66.984  1.00  0.00    -0.302 C  
BRANCH   6   7
HETATM    7  C   UNL     1     -10.900  11.000  65.918  1.00  0.00    -0.183 A  
HETATM    8  C   UNL     1     -11.614  12.790  63.904  1.00  0.00    -0.452 A  
HETATM    9  C   UNL     1     -12.217  12.872  65.156  1.00  0.00    -0.470 A  
HETATM   10  O   UNL     1     -11.984  13.650  62.909  1.00  0.00    -0.676 OA 
HETATM   11  C   UNL     1     -10.642  11.836  63.644  1.00  0.00    -0.496 A  
HETATM   12  H   UNL     1     -13.406  14.444  64.649  1.00  0.00     0.000 HD 
HETATM   13  C   UNL     1     -11.865  11.986  66.169  1.00  0.00    -0.225 A  
HETATM   14  O   UNL     1     -13.166  13.840  65.341  1.00  0.00    -0.722 OA 
HETATM   15  C   UNL     1     -10.283  10.942  64.656  1.00  0.00    -0.411 A  
HETATM   16  H   UNL     1     -11.573  13.594  62.054  1.00  0.00     0.000 HD 
ENDBRANCH   6   7
ENDBRANCH   5   6
ENDBRANCH   3   5
ENDBRANCH   2   3
BRANCH   2  17
HETATM   17  C   UNL     1      -6.795  11.255  66.960  1.00  0.00    -0.126 C  
BRANCH  17  18
HETATM   18  C   UNL     1      -7.424  11.760  68.265  1.00  0.00    -0.103 C  
BRANCH  18  19
HETATM   19  C   UNL     1      -8.368  12.909  67.995  1.00  0.00    -0.169 A  
HETATM   20  C   UNL     1      -8.238  13.679  66.831  1.00  0.00     0.044 A  
HETATM   21  C   UNL     1      -9.418  13.185  68.882  1.00  0.00     0.231 A  
HETATM   22  C   UNL     1     -10.327  14.209  68.610  1.00  0.00    -0.243 A  
HETATM   23  H   UNL     1     -10.965  16.463  66.335  1.00  0.00     0.000 HD 
HETATM   24  C   UNL     1      -9.146  14.704  66.559  1.00  0.00    -0.267 A  
HETATM   25  C   UNL     1     -10.185  14.956  67.445  1.00  0.00    -0.234 A  
HETATM   26  O   UNL     1     -11.062  15.953  67.131  1.00  0.00    -0.270 OA 
ENDBRANCH  18  19
ENDBRANCH  17  18
ENDBRANCH   2  17
TORSDOF 7
ENDMDL
MODEL      137
REMARK 921   NORMALIZED FREE ENERGY PREDICTED BY IDOCK:   -4.97 KCAL/MOL
REMARK 922        TOTAL FREE ENERGY PREDICTED BY IDOCK:   -8.17 KCAL/MOL
REMARK 923 INTER-LIGAND FREE ENERGY PREDICTED BY IDOCK:   -7.58 KCAL/MOL
REMARK 924 INTRA-LIGAND FREE ENERGY PREDICTED BY IDOCK:   -0.59 KCAL/MOL
REMARK 927      BINDING AFFINITY PREDICTED BY RF-SCORE:    0.00 PKD
ROOT
HETATM    1  C   UNL     1     -10.529  13.292  66.641  1.00  0.00    -0.279 C  
HETATM    2  C   UNL     1     -10.054  13.703  68.039  1.00  0.00    -0.250 C  
ENDROOT
BRANCH   2   3
HETATM    3  N   UNL     1      -9.832  12.541  68.914  1.00  0.00    -0.422 NA 
HETATM    4  H   UNL     1     -10.256  12.704  69.828  1.00  0.00     0.000 HD 
BRANCH   3   5
HETATM    5  C   UNL     1     -10.286  11.253  68.369  1.00  0.00    -0.192 C  
BRANCH   5   6
HETATM    6  C   UNL     1     -10.500  10.165  69.430  1.00  0.00    -0.254 C  
BRANCH   6   7
HETATM    7  C   UNL     1     -10.530   8.776  68.841  1.00  0.00    -0.217 A  
HETATM    8  C   UNL     1     -10.506   6.221  67.726  1.00  0.00    -0.232 A  
HETATM    9  C   UNL     1     -10.569   6.379  69.108  1.00  0.00    -0.255 A  
HETATM   10  O   UNL     1     -10.466   4.969  67.183  1.00  0.00    -0.194 OA 
HETATM   11  C   UNL     1     -10.474   7.323  66.887  1.00  0.00    -0.369 A  
HETATM   12  H   UNL     1     -10.589   4.379  69.489  1.00  0.00     0.000 HD 
HETATM   13  C   UNL     1     -10.586   7.650  69.675  1.00  0.00    -0.243 A  
HETATM   14  O   UNL     1     -10.600   5.247  69.876  1.00  0.00    -0.306 OA 
HETATM   15  C   UNL     1     -10.490   8.604  67.446  1.00  0.00    -0.351 A  
HETATM   16  H   UNL     1     -10.424   4.860  66.240  1.00  0.00     0.000 HD 
ENDBRANCH   6   7
ENDBRANCH   5   6
ENDBRANCH   3   5
ENDBRANCH   2   3
BRANCH   2  17
HETATM   17  C   UNL     1     -11.095  14.649  68.670  1.00  0.00    -0.276 C  
BRANCH  17  18
HETATM   18  C   UNL     1     -12.219  13.913  69.411  1.00  0.00    -0.338 C  
BRANCH  18  19
HETATM   19  C   UNL     1     -12.469  14.541  70.763  1.00  0.00    -0.420 A  
HETATM   20  C   UNL     1     -11.738  15.664  71.173  1.00  0.00    -0.461 A  
HETATM   21  C   UNL     1     -13.473  14.036  71.602  1.00  0.00    -0.438 A  
HETATM   22  C   UNL     1     -13.747  14.645  72.828  1.00  0.00    -0.473 A  
HETATM   23  H   UNL     1     -12.763  17.166  74.656  1.00  0.00     0.000 HD 
HETATM   24  C   UNL     1     -12.010  16.273  72.400  1.00  0.00    -0.630 A  
HETATM   25  C   UNL     1     -13.015  15.764  73.213  1.00  0.00    -0.565 A  
HETATM   26  O   UNL     1     -13.262  16.402  74.393  1.00  0.00    -0.416 OA 
ENDBRANCH  18  19
ENDBRANCH  17  18
ENDBRANCH   2  17
TORSDOF 7
ENDMDL
MODEL      138
REMARK 921   NORMALIZED FREE ENERGY PREDICTED BY IDOCK:   -4.97 KCAL/MOL
REMARK 922        TOTAL FREE ENERGY PREDICTED BY IDOCK:   -8.16 KCAL/MOL
REMARK 923 INTER-LIGAND FREE ENERGY PREDICTED BY IDOCK:   -7.47 KCAL/MOL
REMARK 924 INTRA-LIGAND FREE ENERGY PREDICTED BY IDOCK:   -0.69 KCAL/MOL
REMARK 927      BINDING AFFINITY PREDICTED BY RF-SCORE:    0.00 PKD
ROOT
HETATM    1  C   UNL     1      -8.392   6.072  67.643  1.00  0.00    -0.108 C  
HETATM    2  C   UNL     1      -9.312   7.052  66.908  1.00  0.00    -0.153 C  
ENDROOT
BRANCH   2   3
HETATM    3  N   UNL     1      -8.564   8.150  66.276  1.00  0.00    -0.136 NA 
HETATM    4  H   UNL     1      -8.350   7.917  65.306  1.00  0.00     0.000 HD 
BRANCH   3   5
HETATM    5  C   UNL     1      -9.210   9.469  66.348  1.00  0.00    -0.166 C  
BRANCH   5   6
HETATM    6  C   UNL     1      -9.601  10.050  64.983  1.00  0.00    -0.362 C  
BRANCH   6   7
HETATM    7  C   UNL     1     -10.613  11.164  65.093  1.00  0.00    -0.319 A  
HETATM    8  C   UNL     1     -12.423  13.272  65.324  1.00  0.00    -0.489 A  
HETATM    9  C   UNL     1     -12.091  12.772  64.068  1.00  0.00    -0.457 A  
HETATM   10  O   UNL     1     -13.288  14.323  65.434  1.00  0.00    -0.649 OA 
HETATM   11  C   UNL     1     -11.877  12.723  66.474  1.00  0.00    -0.471 A  
HETATM   12  H   UNL     1     -13.282  14.082  63.063  1.00  0.00     0.000 HD 
HETATM   13  C   UNL     1     -11.192  11.717  63.941  1.00  0.00    -0.493 A  
HETATM   14  O   UNL     1     -12.669  13.362  62.977  1.00  0.00    -0.631 OA 
HETATM   15  C   UNL     1     -10.974  11.663  66.357  1.00  0.00    -0.345 A  
HETATM   16  H   UNL     1     -13.515  14.665  66.291  1.00  0.00     0.000 HD 
ENDBRANCH   6   7
ENDBRANCH   5   6
ENDBRANCH   3   5
ENDBRANCH   2   3
BRANCH   2  17
HETATM   17  C   UNL     1     -10.344   7.621  67.902  1.00  0.00    -0.270 C  
BRANCH  17  18
HETATM   18  C   UNL     1     -11.189   6.542  68.591  1.00  0.00    -0.302 C  
BRANCH  18  19
HETATM   19  C   UNL     1     -11.050   6.631  70.093  1.00  0.00    -0.384 A  
HETATM   20  C   UNL     1     -10.037   5.927  70.758  1.00  0.00    -0.253 A  
HETATM   21  C   UNL     1     -11.903   7.462  70.834  1.00  0.00    -0.320 A  
HETATM   22  C   UNL     1     -11.744   7.593  72.215  1.00  0.00    -0.371 A  
HETATM   23  H   UNL     1      -9.830   6.526  74.636  1.00  0.00     0.000 HD 
HETATM   24  C   UNL     1      -9.879   6.056  72.139  1.00  0.00    -0.181 A  
HETATM   25  C   UNL     1     -10.727   6.891  72.854  1.00  0.00    -0.277 A  
HETATM   26  O   UNL     1     -10.525   7.005  74.199  1.00  0.00    -0.335 OA 
ENDBRANCH  18  19
ENDBRANCH  17  18
ENDBRANCH   2  17
TORSDOF 7
ENDMDL
MODEL      139
REMARK 921   NORMALIZED FREE ENERGY PREDICTED BY IDOCK:   -4.97 KCAL/MOL
REMARK 922        TOTAL FREE ENERGY PREDICTED BY IDOCK:   -8.16 KCAL/MOL
REMARK 923 INTER-LIGAND FREE ENERGY PREDICTED BY IDOCK:   -7.66 KCAL/MOL
REMARK 924 INTRA-LIGAND FREE ENERGY PREDICTED BY IDOCK:   -0.50 KCAL/MOL
REMARK 927      BINDING AFFINITY PREDICTED BY RF-SCORE:    0.00 PKD
ROOT
HETATM    1  C   UNL     1      -7.779   8.967  65.781  1.00  0.00    -0.091 C  
HETATM    2  C   UNL     1      -9.083   8.769  66.562  1.00  0.00    -0.162 C  
ENDROOT
BRANCH   2   3
HETATM    3  N   UNL     1      -9.670   7.439  66.334  1.00  0.00    -0.390 NA 
HETATM    4  H   UNL     1      -9.414   7.096  65.409  1.00  0.00     0.000 HD 
BRANCH   3   5
HETATM    5  C   UNL     1      -9.348   6.431  67.356  1.00  0.00    -0.116 C  
BRANCH   5   6
HETATM    6  C   UNL     1     -10.563   5.641  67.860  1.00  0.00    -0.266 C  
BRANCH   6   7
HETATM    7  C   UNL     1     -10.730   5.725  69.357  1.00  0.00    -0.397 A  
HETATM    8  C   UNL     1     -10.963   5.916  72.129  1.00  0.00    -0.266 A  
HETATM    9  C   UNL     1     -11.798   6.667  71.305  1.00  0.00    -0.350 A  
HETATM   10  O   UNL     1     -11.059   6.032  73.486  1.00  0.00    -0.440 OA 
HETATM   11  C   UNL     1     -10.021   5.054  71.589  1.00  0.00    -0.249 A  
HETATM   12  H   UNL     1     -12.776   7.557  72.851  1.00  0.00     0.000 HD 
HETATM   13  C   UNL     1     -11.693   6.575  69.920  1.00  0.00    -0.349 A  
HETATM   14  O   UNL     1     -12.705   7.495  71.907  1.00  0.00    -0.316 OA 
HETATM   15  C   UNL     1      -9.908   4.956  70.200  1.00  0.00    -0.309 A  
HETATM   16  H   UNL     1     -10.490   5.520  74.049  1.00  0.00     0.000 HD 
ENDBRANCH   6   7
ENDBRANCH   5   6
ENDBRANCH   3   5
ENDBRANCH   2   3
BRANCH   2  17
HETATM   17  C   UNL     1     -10.088   9.866  66.158  1.00  0.00    -0.315 C  
BRANCH  17  18
HETATM   18  C   UNL     1      -9.785  10.499  64.794  1.00  0.00    -0.365 C  
BRANCH  18  19
HETATM   19  C   UNL     1     -10.582  11.770  64.606  1.00  0.00    -0.359 A  
HETATM   20  C   UNL     1     -10.318  12.899  65.392  1.00  0.00    -0.310 A  
HETATM   21  C   UNL     1     -11.561  11.848  63.605  1.00  0.00    -0.559 A  
HETATM   22  C   UNL     1     -12.262  13.037  63.388  1.00  0.00    -0.552 A  
HETATM   23  H   UNL     1     -12.432  16.095  64.522  1.00  0.00     0.000 HD 
HETATM   24  C   UNL     1     -11.019  14.088  65.177  1.00  0.00    -0.357 A  
HETATM   25  C   UNL     1     -11.979  14.149  64.175  1.00  0.00    -0.393 A  
HETATM   26  O   UNL     1     -12.625  15.335  63.985  1.00  0.00    -0.750 OA 
ENDBRANCH  18  19
ENDBRANCH  17  18
ENDBRANCH   2  17
TORSDOF 7
ENDMDL
MODEL      140
REMARK 921   NORMALIZED FREE ENERGY PREDICTED BY IDOCK:   -4.95 KCAL/MOL
REMARK 922        TOTAL FREE ENERGY PREDICTED BY IDOCK:   -8.14 KCAL/MOL
REMARK 923 INTER-LIGAND FREE ENERGY PREDICTED BY IDOCK:   -6.67 KCAL/MOL
REMARK 924 INTRA-LIGAND FREE ENERGY PREDICTED BY IDOCK:   -1.47 KCAL/MOL
REMARK 927      BINDING AFFINITY PREDICTED BY RF-SCORE:    0.00 PKD
ROOT
HETATM    1  C   UNL     1      -6.966  16.410  68.691  1.00  0.00    -0.159 C  
HETATM    2  C   UNL     1      -8.141  15.578  69.218  1.00  0.00    -0.248 C  
ENDROOT
BRANCH   2   3
HETATM    3  N   UNL     1      -7.958  14.139  68.968  1.00  0.00    -0.318 NA 
HETATM    4  H   UNL     1      -8.793  13.625  69.249  1.00  0.00     0.000 HD 
BRANCH   3   5
HETATM    5  C   UNL     1      -7.587  13.786  67.590  1.00  0.00    -0.181 C  
BRANCH   5   6
HETATM    6  C   UNL     1      -7.428  12.279  67.351  1.00  0.00    -0.160 C  
BRANCH   6   7
HETATM    7  C   UNL     1      -8.548  11.472  67.962  1.00  0.00    -0.150 A  
HETATM    8  C   UNL     1     -10.614   9.931  69.025  1.00  0.00    -0.220 A  
HETATM    9  C   UNL     1      -9.366   9.946  69.642  1.00  0.00    -0.228 A  
HETATM   10  O   UNL     1     -11.617   9.154  69.530  1.00  0.00    -0.419 OA 
HETATM   11  C   UNL     1     -10.853  10.690  67.890  1.00  0.00    -0.328 A  
HETATM   12  H   UNL     1      -9.909   8.650  71.114  1.00  0.00     0.000 HD 
HETATM   13  C   UNL     1      -8.329  10.716  69.123  1.00  0.00    -0.140 A  
HETATM   14  O   UNL     1      -9.202   9.174  70.760  1.00  0.00    -0.224 OA 
HETATM   15  C   UNL     1      -9.818  11.465  67.361  1.00  0.00    -0.199 A  
HETATM   16  H   UNL     1     -12.468   9.143  69.109  1.00  0.00     0.000 HD 
ENDBRANCH   6   7
ENDBRANCH   5   6
ENDBRANCH   3   5
ENDBRANCH   2   3
BRANCH   2  17
HETATM   17  C   UNL     1      -9.445  16.066  68.556  1.00  0.00    -0.216 C  
BRANCH  17  18
HETATM   18  C   UNL     1     -10.577  15.031  68.600  1.00  0.00    -0.237 C  
BRANCH  18  19
HETATM   19  C   UNL     1     -11.143  14.801  67.218  1.00  0.00    -0.334 A  
HETATM   20  C   UNL     1     -10.522  15.355  66.091  1.00  0.00    -0.325 A  
HETATM   21  C   UNL     1     -12.271  13.984  67.043  1.00  0.00    -0.387 A  
HETATM   22  C   UNL     1     -12.766  13.721  65.764  1.00  0.00    -0.494 A  
HETATM   23  H   UNL     1     -12.133  14.408  62.635  1.00  0.00     0.000 HD 
HETATM   24  C   UNL     1     -11.018  15.095  64.812  1.00  0.00    -0.394 A  
HETATM   25  C   UNL     1     -12.129  14.276  64.658  1.00  0.00    -0.463 A  
HETATM   26  O   UNL     1     -12.568  14.030  63.390  1.00  0.00    -0.845 OA 
ENDBRANCH  18  19
ENDBRANCH  17  18
ENDBRANCH   2  17
TORSDOF 7
ENDMDL
MODEL      141
REMARK 921   NORMALIZED FREE ENERGY PREDICTED BY IDOCK:   -4.95 KCAL/MOL
REMARK 922        TOTAL FREE ENERGY PREDICTED BY IDOCK:   -8.13 KCAL/MOL
REMARK 923 INTER-LIGAND FREE ENERGY PREDICTED BY IDOCK:   -7.08 KCAL/MOL
REMARK 924 INTRA-LIGAND FREE ENERGY PREDICTED BY IDOCK:   -1.05 KCAL/MOL
REMARK 927      BINDING AFFINITY PREDICTED BY RF-SCORE:    0.00 PKD
ROOT
HETATM    1  C   UNL     1      -8.594   8.665  68.097  1.00  0.00    -0.141 C  
HETATM    2  C   UNL     1      -9.799   9.608  68.011  1.00  0.00    -0.150 C  
ENDROOT
BRANCH   2   3
HETATM    3  N   UNL     1     -10.887   9.204  68.916  1.00  0.00    -0.408 NA 
HETATM    4  H   UNL     1     -10.970   8.187  68.933  1.00  0.00     0.000 HD 
BRANCH   3   5
HETATM    5  C   UNL     1     -10.786   9.728  70.287  1.00  0.00    -0.301 C  
BRANCH   5   6
HETATM    6  C   UNL     1     -12.137  10.089  70.919  1.00  0.00    -0.448 C  
BRANCH   6   7
HETATM    7  C   UNL     1     -12.415  11.572  70.889  1.00  0.00    -0.464 A  
HETATM    8  C   UNL     1     -12.981  14.299  70.767  1.00  0.00    -0.304 A  
HETATM    9  C   UNL     1     -13.405  13.546  71.859  1.00  0.00    -0.443 A  
HETATM   10  O   UNL     1     -13.282  15.629  70.696  1.00  0.00    -0.703 OA 
HETATM   11  C   UNL     1     -12.259  13.714  69.739  1.00  0.00    -0.350 A  
HETATM   12  H   UNL     1     -14.303  15.119  72.788  1.00  0.00     0.000 HD 
HETATM   13  C   UNL     1     -13.124  12.185  71.931  1.00  0.00    -0.475 A  
HETATM   14  O   UNL     1     -14.111  14.190  72.838  1.00  0.00    -0.546 OA 
HETATM   15  C   UNL     1     -11.973  12.347  69.802  1.00  0.00    -0.359 A  
HETATM   16  H   UNL     1     -12.993  16.143  69.951  1.00  0.00     0.000 HD 
ENDBRANCH   6   7
ENDBRANCH   5   6
ENDBRANCH   3   5
ENDBRANCH   2   3
BRANCH   2  17
HETATM   17  C   UNL     1     -10.309   9.647  66.557  1.00  0.00    -0.264 C  
BRANCH  17  18
HETATM   18  C   UNL     1      -9.497  10.579  65.648  1.00  0.00    -0.259 C  
BRANCH  18  19
HETATM   19  C   UNL     1      -9.339  11.941  66.284  1.00  0.00    -0.234 A  
HETATM   20  C   UNL     1     -10.386  12.872  66.243  1.00  0.00    -0.278 A  
HETATM   21  C   UNL     1      -8.160  12.270  66.967  1.00  0.00    -0.141 A  
HETATM   22  C   UNL     1      -8.029  13.506  67.604  1.00  0.00    -0.177 A  
HETATM   23  H   UNL     1      -9.727  16.241  68.153  1.00  0.00     0.000 HD 
HETATM   24  C   UNL     1     -10.256  14.108  66.879  1.00  0.00    -0.267 A  
HETATM   25  C   UNL     1      -9.084  14.412  67.559  1.00  0.00    -0.195 A  
HETATM   26  O   UNL     1      -9.006  15.622  68.184  1.00  0.00    -0.176 OA 
ENDBRANCH  18  19
ENDBRANCH  17  18
ENDBRANCH   2  17
TORSDOF 7
ENDMDL
MODEL      142
REMARK 921   NORMALIZED FREE ENERGY PREDICTED BY IDOCK:   -4.94 KCAL/MOL
REMARK 922        TOTAL FREE ENERGY PREDICTED BY IDOCK:   -8.13 KCAL/MOL
REMARK 923 INTER-LIGAND FREE ENERGY PREDICTED BY IDOCK:   -7.55 KCAL/MOL
REMARK 924 INTRA-LIGAND FREE ENERGY PREDICTED BY IDOCK:   -0.58 KCAL/MOL
REMARK 927      BINDING AFFINITY PREDICTED BY RF-SCORE:    0.00 PKD
ROOT
HETATM    1  C   UNL     1     -12.068  13.775  70.033  1.00  0.00    -0.416 C  
HETATM    2  C   UNL     1     -12.187  12.293  69.660  1.00  0.00    -0.111 C  
ENDROOT
BRANCH   2   3
HETATM    3  N   UNL     1     -11.595  11.414  70.681  1.00  0.00    -0.411 NA 
HETATM    4  H   UNL     1     -12.148  11.448  71.538  1.00  0.00     0.000 HD 
BRANCH   3   5
HETATM    5  C   UNL     1     -11.397  10.017  70.263  1.00  0.00    -0.308 C  
BRANCH   5   6
HETATM    6  C   UNL     1     -12.228   9.002  71.058  1.00  0.00    -0.275 C  
BRANCH   6   7
HETATM    7  C   UNL     1     -11.376   8.088  71.904  1.00  0.00    -0.336 A  
HETATM    8  C   UNL     1      -9.819   6.447  73.534  1.00  0.00    -0.185 A  
HETATM    9  C   UNL     1     -10.999   5.961  72.978  1.00  0.00    -0.268 A  
HETATM   10  O   UNL     1      -9.071   5.652  74.354  1.00  0.00    -0.120 OA 
HETATM   11  C   UNL     1      -9.392   7.740  73.274  1.00  0.00    -0.331 A  
HETATM   12  H   UNL     1     -10.824   4.123  73.834  1.00  0.00     0.000 HD 
HETATM   13  C   UNL     1     -11.781   6.770  72.159  1.00  0.00    -0.332 A  
HETATM   14  O   UNL     1     -11.358   4.675  73.275  1.00  0.00    -0.312 OA 
HETATM   15  C   UNL     1     -10.171   8.560  72.454  1.00  0.00    -0.369 A  
HETATM   16  H   UNL     1      -8.266   5.984  74.734  1.00  0.00     0.000 HD 
ENDBRANCH   6   7
ENDBRANCH   5   6
ENDBRANCH   3   5
ENDBRANCH   2   3
BRANCH   2  17
HETATM   17  C   UNL     1     -11.503  12.056  68.299  1.00  0.00    -0.361 C  
BRANCH  17  18
HETATM   18  C   UNL     1     -10.254  12.921  68.084  1.00  0.00    -0.239 C  
BRANCH  18  19
HETATM   19  C   UNL     1     -10.489  13.936  66.989  1.00  0.00    -0.278 A  
HETATM   20  C   UNL     1     -11.366  13.655  65.933  1.00  0.00    -0.317 A  
HETATM   21  C   UNL     1      -9.870  15.193  67.046  1.00  0.00    -0.233 A  
HETATM   22  C   UNL     1     -10.126  16.156  66.068  1.00  0.00    -0.372 A  
HETATM   23  H   UNL     1     -11.901  16.574  63.358  1.00  0.00     0.000 HD 
HETATM   24  C   UNL     1     -11.621  14.617  64.953  1.00  0.00    -0.405 A  
HETATM   25  C   UNL     1     -11.006  15.859  65.032  1.00  0.00    -0.412 A  
HETATM   26  O   UNL     1     -11.300  16.777  64.066  1.00  0.00    -1.153 OA 
ENDBRANCH  18  19
ENDBRANCH  17  18
ENDBRANCH   2  17
TORSDOF 7
ENDMDL
MODEL      143
REMARK 921   NORMALIZED FREE ENERGY PREDICTED BY IDOCK:   -4.94 KCAL/MOL
REMARK 922        TOTAL FREE ENERGY PREDICTED BY IDOCK:   -8.12 KCAL/MOL
REMARK 923 INTER-LIGAND FREE ENERGY PREDICTED BY IDOCK:   -6.49 KCAL/MOL
REMARK 924 INTRA-LIGAND FREE ENERGY PREDICTED BY IDOCK:   -1.63 KCAL/MOL
REMARK 927      BINDING AFFINITY PREDICTED BY RF-SCORE:    0.00 PKD
ROOT
HETATM    1  C   UNL     1      -9.805  17.388  66.247  1.00  0.00    -0.291 C  
HETATM    2  C   UNL     1      -9.921  15.999  66.884  1.00  0.00    -0.251 C  
ENDROOT
BRANCH   2   3
HETATM    3  N   UNL     1     -11.187  15.333  66.538  1.00  0.00    -0.281 NA 
HETATM    4  H   UNL     1     -11.907  16.028  66.340  1.00  0.00     0.000 HD 
BRANCH   3   5
HETATM    5  C   UNL     1     -11.102  14.364  65.436  1.00  0.00    -0.331 C  
BRANCH   5   6
HETATM    6  C   UNL     1     -11.796  13.026  65.724  1.00  0.00    -0.453 C  
BRANCH   6   7
HETATM    7  C   UNL     1     -11.136  12.259  66.844  1.00  0.00    -0.341 A  
HETATM    8  C   UNL     1      -9.968  10.776  68.896  1.00  0.00    -0.202 A  
HETATM    9  C   UNL     1      -9.225  11.113  67.769  1.00  0.00    -0.153 A  
HETATM   10  O   UNL     1      -9.404  10.026  69.888  1.00  0.00    -0.277 OA 
HETATM   11  C   UNL     1     -11.287  11.185  69.025  1.00  0.00    -0.343 A  
HETATM   12  H   UNL     1      -7.539  10.171  68.411  1.00  0.00     0.000 HD 
HETATM   13  C   UNL     1      -9.797  11.857  66.740  1.00  0.00    -0.214 A  
HETATM   14  O   UNL     1      -7.929  10.678  67.709  1.00  0.00    -0.108 OA 
HETATM   15  C   UNL     1     -11.870  11.931  67.998  1.00  0.00    -0.323 A  
HETATM   16  H   UNL     1      -9.911   9.796  70.658  1.00  0.00     0.000 HD 
ENDBRANCH   6   7
ENDBRANCH   5   6
ENDBRANCH   3   5
ENDBRANCH   2   3
BRANCH   2  17
HETATM   17  C   UNL     1      -9.797  16.132  68.415  1.00  0.00    -0.222 C  
BRANCH  17  18
HETATM   18  C   UNL     1     -10.123  14.836  69.169  1.00  0.00    -0.201 C  
BRANCH  18  19
HETATM   19  C   UNL     1     -11.218  15.070  70.184  1.00  0.00    -0.291 A  
HETATM   20  C   UNL     1     -10.912  15.542  71.468  1.00  0.00    -0.151 A  
HETATM   21  C   UNL     1     -12.561  14.865  69.835  1.00  0.00    -0.205 A  
HETATM   22  C   UNL     1     -13.582  15.132  70.750  1.00  0.00    -0.299 A  
HETATM   23  H   UNL     1     -14.000  16.226  73.799  1.00  0.00     0.000 HD 
HETATM   24  C   UNL     1     -11.931  15.808  72.384  1.00  0.00    -0.600 A  
HETATM   25  C   UNL     1     -13.256  15.608  72.016  1.00  0.00    -0.457 A  
HETATM   26  O   UNL     1     -14.222  15.901  72.934  1.00  0.00    -0.497 OA 
ENDBRANCH  18  19
ENDBRANCH  17  18
ENDBRANCH   2  17
TORSDOF 7
ENDMDL
MODEL      144
REMARK 921   NORMALIZED FREE ENERGY PREDICTED BY IDOCK:   -4.93 KCAL/MOL
REMARK 922        TOTAL FREE ENERGY PREDICTED BY IDOCK:   -8.11 KCAL/MOL
REMARK 923 INTER-LIGAND FREE ENERGY PREDICTED BY IDOCK:   -5.40 KCAL/MOL
REMARK 924 INTRA-LIGAND FREE ENERGY PREDICTED BY IDOCK:   -2.71 KCAL/MOL
REMARK 927      BINDING AFFINITY PREDICTED BY RF-SCORE:    0.00 PKD
ROOT
HETATM    1  C   UNL     1      -6.108   6.787  72.618  1.00  0.00    -0.045 C  
HETATM    2  C   UNL     1      -7.119   6.313  73.668  1.00  0.00    -0.083 C  
ENDROOT
BRANCH   2   3
HETATM    3  N   UNL     1      -7.590   4.944  73.407  1.00  0.00    -0.087 NA 
HETATM    4  H   UNL     1      -8.462   4.771  73.907  1.00  0.00     0.000 HD 
BRANCH   3   5
HETATM    5  C   UNL     1      -7.744   4.596  71.986  1.00  0.00    -0.091 C  
BRANCH   5   6
HETATM    6  C   UNL     1      -9.197   4.358  71.554  1.00  0.00    -0.190 C  
BRANCH   6   7
HETATM    7  C   UNL     1      -9.619   5.256  70.417  1.00  0.00    -0.241 A  
HETATM    8  C   UNL     1     -10.428   6.970  68.372  1.00  0.00    -0.201 A  
HETATM    9  C   UNL     1      -9.074   6.729  68.586  1.00  0.00    -0.127 A  
HETATM   10  O   UNL     1     -10.822   7.831  67.388  1.00  0.00    -0.483 OA 
HETATM   11  C   UNL     1     -11.391   6.352  69.155  1.00  0.00    -0.366 A  
HETATM   12  H   UNL     1      -8.462   7.955  67.081  1.00  0.00     0.000 HD 
HETATM   13  C   UNL     1      -8.659   5.871  69.601  1.00  0.00    -0.121 A  
HETATM   14  O   UNL     1      -8.179   7.371  67.774  1.00  0.00    -0.117 OA 
HETATM   15  C   UNL     1     -10.985   5.490  70.177  1.00  0.00    -0.208 A  
HETATM   16  H   UNL     1     -11.746   7.996  67.242  1.00  0.00     0.000 HD 
ENDBRANCH   6   7
ENDBRANCH   5   6
ENDBRANCH   3   5
ENDBRANCH   2   3
BRANCH   2  17
HETATM   17  C   UNL     1      -8.315   7.286  73.697  1.00  0.00    -0.169 C  
BRANCH  17  18
HETATM   18  C   UNL     1      -8.350   8.246  72.501  1.00  0.00    -0.235 C  
BRANCH  18  19
HETATM   19  C   UNL     1      -9.775   8.537  72.091  1.00  0.00    -0.387 A  
HETATM   20  C   UNL     1     -10.848   7.966  72.788  1.00  0.00    -0.451 A  
HETATM   21  C   UNL     1     -10.041   9.423  71.037  1.00  0.00    -0.353 A  
HETATM   22  C   UNL     1     -11.355   9.740  70.689  1.00  0.00    -0.401 A  
HETATM   23  H   UNL     1     -14.423   9.074  71.591  1.00  0.00     0.000 HD 
HETATM   24  C   UNL     1     -12.164   8.280  72.440  1.00  0.00    -0.412 A  
HETATM   25  C   UNL     1     -12.406   9.168  71.399  1.00  0.00    -0.333 A  
HETATM   26  O   UNL     1     -13.705   9.464  71.106  1.00  0.00    -0.304 OA 
ENDBRANCH  18  19
ENDBRANCH  17  18
ENDBRANCH   2  17
TORSDOF 7
ENDMDL
MODEL      145
REMARK 921   NORMALIZED FREE ENERGY PREDICTED BY IDOCK:   -4.92 KCAL/MOL
REMARK 922        TOTAL FREE ENERGY PREDICTED BY IDOCK:   -8.10 KCAL/MOL
REMARK 923 INTER-LIGAND FREE ENERGY PREDICTED BY IDOCK:   -6.41 KCAL/MOL
REMARK 924 INTRA-LIGAND FREE ENERGY PREDICTED BY IDOCK:   -1.68 KCAL/MOL
REMARK 927      BINDING AFFINITY PREDICTED BY RF-SCORE:    0.00 PKD
ROOT
HETATM    1  C   UNL     1      -6.323  17.427  68.921  1.00  0.00    -0.202 C  
HETATM    2  C   UNL     1      -7.626  17.186  68.149  1.00  0.00    -0.208 C  
ENDROOT
BRANCH   2   3
HETATM    3  N   UNL     1      -8.750  16.865  69.043  1.00  0.00    -0.205 NA 
HETATM    4  H   UNL     1      -8.749  17.492  69.847  1.00  0.00     0.000 HD 
BRANCH   3   5
HETATM    5  C   UNL     1     -10.075  16.863  68.404  1.00  0.00    -0.304 C  
BRANCH   5   6
HETATM    6  C   UNL     1     -10.758  15.489  68.387  1.00  0.00    -0.263 C  
BRANCH   6   7
HETATM    7  C   UNL     1     -11.226  15.090  67.009  1.00  0.00    -0.328 A  
HETATM    8  C   UNL     1     -12.010  14.330  64.443  1.00  0.00    -0.456 A  
HETATM    9  C   UNL     1     -12.433  13.596  65.548  1.00  0.00    -0.503 A  
HETATM   10  O   UNL     1     -12.371  13.941  63.185  1.00  0.00    -1.122 OA 
HETATM   11  C   UNL     1     -11.212  15.453  64.600  1.00  0.00    -0.374 A  
HETATM   12  H   UNL     1     -13.480  12.246  64.442  1.00  0.00     0.000 HD 
HETATM   13  C   UNL     1     -12.051  13.969  66.833  1.00  0.00    -0.465 A  
HETATM   14  O   UNL     1     -13.220  12.501  65.319  1.00  0.00    -0.417 OA 
HETATM   15  C   UNL     1     -10.823  15.835  65.886  1.00  0.00    -0.272 A  
HETATM   16  H   UNL     1     -12.082  14.442  62.431  1.00  0.00     0.000 HD 
ENDBRANCH   6   7
ENDBRANCH   5   6
ENDBRANCH   3   5
ENDBRANCH   2   3
BRANCH   2  17
HETATM   17  C   UNL     1      -7.412  16.041  67.139  1.00  0.00    -0.253 C  
BRANCH  17  18
HETATM   18  C   UNL     1      -6.376  15.007  67.598  1.00  0.00    -0.156 C  
BRANCH  18  19
HETATM   19  C   UNL     1      -7.041  13.688  67.919  1.00  0.00    -0.151 A  
HETATM   20  C   UNL     1      -8.164  13.263  67.197  1.00  0.00    -0.123 A  
HETATM   21  C   UNL     1      -6.509  12.851  68.910  1.00  0.00    -0.091 A  
HETATM   22  C   UNL     1      -7.086  11.607  69.173  1.00  0.00    -0.090 A  
HETATM   23  H   UNL     1      -9.537   9.707  68.150  1.00  0.00     0.000 HD 
HETATM   24  C   UNL     1      -8.743  12.019  67.461  1.00  0.00    -0.166 A  
HETATM   25  C   UNL     1      -8.196  11.200  68.440  1.00  0.00    -0.144 A  
HETATM   26  O   UNL     1      -8.779   9.985  68.651  1.00  0.00    -0.119 OA 
ENDBRANCH  18  19
ENDBRANCH  17  18
ENDBRANCH   2  17
TORSDOF 7
ENDMDL
MODEL      146
REMARK 921   NORMALIZED FREE ENERGY PREDICTED BY IDOCK:   -4.92 KCAL/MOL
REMARK 922        TOTAL FREE ENERGY PREDICTED BY IDOCK:   -8.10 KCAL/MOL
REMARK 923 INTER-LIGAND FREE ENERGY PREDICTED BY IDOCK:   -7.38 KCAL/MOL
REMARK 924 INTRA-LIGAND FREE ENERGY PREDICTED BY IDOCK:   -0.72 KCAL/MOL
REMARK 927      BINDING AFFINITY PREDICTED BY RF-SCORE:    0.00 PKD
ROOT
HETATM    1  C   UNL     1     -11.160  11.326  66.442  1.00  0.00    -0.257 C  
HETATM    2  C   UNL     1     -10.813  12.625  67.179  1.00  0.00    -0.253 C  
ENDROOT
BRANCH   2   3
HETATM    3  N   UNL     1      -9.626  13.285  66.613  1.00  0.00    -0.257 NA 
HETATM    4  H   UNL     1      -9.123  12.640  66.003  1.00  0.00     0.000 HD 
BRANCH   3   5
HETATM    5  C   UNL     1      -9.890  14.548  65.908  1.00  0.00    -0.321 C  
BRANCH   5   6
HETATM    6  C   UNL     1     -10.737  15.546  66.709  1.00  0.00    -0.305 C  
BRANCH   6   7
HETATM    7  C   UNL     1     -10.074  16.895  66.843  1.00  0.00    -0.289 A  
HETATM    8  C   UNL     1      -8.859  19.399  67.006  1.00  0.00    -0.300 A  
HETATM    9  C   UNL     1     -10.105  19.189  67.590  1.00  0.00    -0.377 A  
HETATM   10  O   UNL     1      -8.277  20.633  67.063  1.00  0.00    -0.502 OA 
HETATM   11  C   UNL     1      -8.198  18.370  66.354  1.00  0.00    -0.280 A  
HETATM   12  H   UNL     1     -10.280  21.100  68.268  1.00  0.00     0.000 HD 
HETATM   13  C   UNL     1     -10.719  17.942  67.518  1.00  0.00    -0.333 A  
HETATM   14  O   UNL     1     -10.699  20.249  68.219  1.00  0.00    -0.170 OA 
HETATM   15  C   UNL     1      -8.806  17.114  66.276  1.00  0.00    -0.266 A  
HETATM   16  H   UNL     1      -7.427  20.777  66.665  1.00  0.00     0.000 HD 
ENDBRANCH   6   7
ENDBRANCH   5   6
ENDBRANCH   3   5
ENDBRANCH   2   3
BRANCH   2  17
HETATM   17  C   UNL     1     -10.584  12.315  68.672  1.00  0.00    -0.249 C  
BRANCH  17  18
HETATM   18  C   UNL     1     -11.884  12.176  69.474  1.00  0.00    -0.386 C  
BRANCH  18  19
HETATM   19  C   UNL     1     -11.848  10.936  70.338  1.00  0.00    -0.449 A  
HETATM   20  C   UNL     1     -10.701  10.132  70.384  1.00  0.00    -0.329 A  
HETATM   21  C   UNL     1     -12.947  10.604  71.143  1.00  0.00    -0.483 A  
HETATM   22  C   UNL     1     -12.900   9.492  71.986  1.00  0.00    -0.499 A  
HETATM   23  H   UNL     1     -10.866   7.095  72.871  1.00  0.00     0.000 HD 
HETATM   24  C   UNL     1     -10.654   9.018  71.225  1.00  0.00    -0.378 A  
HETATM   25  C   UNL     1     -11.749   8.711  72.023  1.00  0.00    -0.369 A  
HETATM   26  O   UNL     1     -11.652   7.627  72.845  1.00  0.00    -0.325 OA 
ENDBRANCH  18  19
ENDBRANCH  17  18
ENDBRANCH   2  17
TORSDOF 7
ENDMDL
MODEL      147
REMARK 921   NORMALIZED FREE ENERGY PREDICTED BY IDOCK:   -4.90 KCAL/MOL
REMARK 922        TOTAL FREE ENERGY PREDICTED BY IDOCK:   -8.07 KCAL/MOL
REMARK 923 INTER-LIGAND FREE ENERGY PREDICTED BY IDOCK:   -6.39 KCAL/MOL
REMARK 924 INTRA-LIGAND FREE ENERGY PREDICTED BY IDOCK:   -1.68 KCAL/MOL
REMARK 927      BINDING AFFINITY PREDICTED BY RF-SCORE:    0.00 PKD
ROOT
HETATM    1  C   UNL     1     -11.057  14.715  66.599  1.00  0.00    -0.334 C  
HETATM    2  C   UNL     1     -11.138  14.665  68.129  1.00  0.00    -0.274 C  
ENDROOT
BRANCH   2   3
HETATM    3  N   UNL     1      -9.825  14.424  68.748  1.00  0.00    -0.274 NA 
HETATM    4  H   UNL     1      -9.876  13.625  69.380  1.00  0.00     0.000 HD 
BRANCH   3   5
HETATM    5  C   UNL     1      -8.712  14.251  67.802  1.00  0.00    -0.179 C  
BRANCH   5   6
HETATM    6  C   UNL     1      -7.840  13.019  68.081  1.00  0.00    -0.145 C  
BRANCH   6   7
HETATM    7  C   UNL     1      -8.397  11.761  67.460  1.00  0.00    -0.154 A  
HETATM    8  C   UNL     1      -9.471   9.424  66.384  1.00  0.00    -0.201 A  
HETATM    9  C   UNL     1      -9.796  10.661  65.832  1.00  0.00    -0.243 A  
HETATM   10  O   UNL     1     -10.020   8.283  65.873  1.00  0.00    -0.449 OA 
HETATM   11  C   UNL     1      -8.601   9.334  67.459  1.00  0.00    -0.116 A  
HETATM   12  H   UNL     1     -11.025   9.875  64.412  1.00  0.00     0.000 HD 
HETATM   13  C   UNL     1      -9.262  11.833  66.359  1.00  0.00    -0.223 A  
HETATM   14  O   UNL     1     -10.660  10.674  64.771  1.00  0.00    -0.291 OA 
HETATM   15  C   UNL     1      -8.060  10.505  67.995  1.00  0.00    -0.111 A  
HETATM   16  H   UNL     1      -9.799   7.439  66.250  1.00  0.00     0.000 HD 
ENDBRANCH   6   7
ENDBRANCH   5   6
ENDBRANCH   3   5
ENDBRANCH   2   3
BRANCH   2  17
HETATM   17  C   UNL     1     -12.130  13.562  68.548  1.00  0.00    -0.303 C  
BRANCH  17  18
HETATM   18  C   UNL     1     -12.255  13.399  70.069  1.00  0.00    -0.367 C  
BRANCH  18  19
HETATM   19  C   UNL     1     -12.148  11.943  70.461  1.00  0.00    -0.422 A  
HETATM   20  C   UNL     1     -12.919  11.430  71.513  1.00  0.00    -0.505 A  
HETATM   21  C   UNL     1     -11.311  11.077  69.743  1.00  0.00    -0.366 A  
HETATM   22  C   UNL     1     -11.249   9.720  70.064  1.00  0.00    -0.297 A  
HETATM   23  H   UNL     1     -12.548   7.572  72.154  1.00  0.00     0.000 HD 
HETATM   24  C   UNL     1     -12.857  10.073  71.836  1.00  0.00    -0.524 A  
HETATM   25  C   UNL     1     -12.029   9.229  71.107  1.00  0.00    -0.322 A  
HETATM   26  O   UNL     1     -12.015   7.907  71.442  1.00  0.00    -0.291 OA 
ENDBRANCH  18  19
ENDBRANCH  17  18
ENDBRANCH   2  17
TORSDOF 7
ENDMDL
MODEL      148
REMARK 921   NORMALIZED FREE ENERGY PREDICTED BY IDOCK:   -4.90 KCAL/MOL
REMARK 922        TOTAL FREE ENERGY PREDICTED BY IDOCK:   -8.06 KCAL/MOL
REMARK 923 INTER-LIGAND FREE ENERGY PREDICTED BY IDOCK:   -5.61 KCAL/MOL
REMARK 924 INTRA-LIGAND FREE ENERGY PREDICTED BY IDOCK:   -2.45 KCAL/MOL
REMARK 927      BINDING AFFINITY PREDICTED BY RF-SCORE:    0.00 PKD
ROOT
HETATM    1  C   UNL     1      -9.733   9.174  65.972  1.00  0.00    -0.358 C  
HETATM    2  C   UNL     1     -10.151   8.586  67.324  1.00  0.00    -0.251 C  
ENDROOT
BRANCH   2   3
HETATM    3  N   UNL     1     -11.135   7.501  67.177  1.00  0.00    -0.493 NA 
HETATM    4  H   UNL     1     -11.448   7.440  66.209  1.00  0.00     0.000 HD 
BRANCH   3   5
HETATM    5  C   UNL     1     -10.686   6.182  67.649  1.00  0.00    -0.308 C  
BRANCH   5   6
HETATM    6  C   UNL     1     -11.001   5.906  69.125  1.00  0.00    -0.382 C  
BRANCH   6   7
HETATM    7  C   UNL     1      -9.765   5.605  69.937  1.00  0.00    -0.222 A  
HETATM    8  C   UNL     1      -7.473   5.133  71.453  1.00  0.00    -0.091 A  
HETATM    9  C   UNL     1      -8.711   4.676  71.898  1.00  0.00    -0.122 A  
HETATM   10  O   UNL     1      -6.355   4.925  72.210  1.00  0.00    -0.031 OA 
HETATM   11  C   UNL     1      -7.357   5.809  70.249  1.00  0.00    -0.076 A  
HETATM   12  H   UNL     1      -7.966   3.859  73.607  1.00  0.00     0.000 HD 
HETATM   13  C   UNL     1      -9.860   4.902  71.147  1.00  0.00    -0.261 A  
HETATM   14  O   UNL     1      -8.750   4.013  73.095  1.00  0.00    -0.095 OA 
HETATM   15  C   UNL     1      -8.506   6.043  69.488  1.00  0.00    -0.119 A  
HETATM   16  H   UNL     1      -5.511   5.237  71.907  1.00  0.00     0.000 HD 
ENDBRANCH   6   7
ENDBRANCH   5   6
ENDBRANCH   3   5
ENDBRANCH   2   3
BRANCH   2  17
HETATM   17  C   UNL     1     -10.731   9.708  68.208  1.00  0.00    -0.262 C  
BRANCH  17  18
HETATM   18  C   UNL     1      -9.783  10.153  69.330  1.00  0.00    -0.247 C  
BRANCH  18  19
HETATM   19  C   UNL     1     -10.068   9.391  70.604  1.00  0.00    -0.356 A  
HETATM   20  C   UNL     1     -11.383   9.049  70.951  1.00  0.00    -0.351 A  
HETATM   21  C   UNL     1      -9.014   8.974  71.429  1.00  0.00    -0.243 A  
HETATM   22  C   UNL     1      -9.267   8.222  72.578  1.00  0.00    -0.339 A  
HETATM   23  H   UNL     1     -11.763   6.907  74.222  1.00  0.00     0.000 HD 
HETATM   24  C   UNL     1     -11.636   8.299  72.101  1.00  0.00    -0.428 A  
HETATM   25  C   UNL     1     -10.578   7.886  72.900  1.00  0.00    -0.368 A  
HETATM   26  O   UNL     1     -10.868   7.136  74.003  1.00  0.00    -0.210 OA 
ENDBRANCH  18  19
ENDBRANCH  17  18
ENDBRANCH   2  17
TORSDOF 7
ENDMDL
MODEL      149
REMARK 921   NORMALIZED FREE ENERGY PREDICTED BY IDOCK:   -4.89 KCAL/MOL
REMARK 922        TOTAL FREE ENERGY PREDICTED BY IDOCK:   -8.06 KCAL/MOL
REMARK 923 INTER-LIGAND FREE ENERGY PREDICTED BY IDOCK:   -7.25 KCAL/MOL
REMARK 924 INTRA-LIGAND FREE ENERGY PREDICTED BY IDOCK:   -0.81 KCAL/MOL
REMARK 927      BINDING AFFINITY PREDICTED BY RF-SCORE:    0.00 PKD
ROOT
HETATM    1  C   UNL     1     -12.945  14.200  70.805  1.00  0.00    -0.337 C  
HETATM    2  C   UNL     1     -11.792  14.331  69.804  1.00  0.00    -0.324 C  
ENDROOT
BRANCH   2   3
HETATM    3  N   UNL     1     -12.222  14.949  68.539  1.00  0.00    -0.597 NA 
HETATM    4  H   UNL     1     -13.053  15.520  68.691  1.00  0.00     0.000 HD 
BRANCH   3   5
HETATM    5  C   UNL     1     -11.189  15.732  67.844  1.00  0.00    -0.313 C  
BRANCH   5   6
HETATM    6  C   UNL     1     -10.868  17.075  68.513  1.00  0.00    -0.310 C  
BRANCH   6   7
HETATM    7  C   UNL     1      -9.385  17.312  68.658  1.00  0.00    -0.267 A  
HETATM    8  C   UNL     1      -6.632  17.712  68.851  1.00  0.00    -0.228 A  
HETATM    9  C   UNL     1      -7.484  18.798  68.673  1.00  0.00    -0.313 A  
HETATM   10  O   UNL     1      -5.282  17.905  68.917  1.00  0.00    -0.164 OA 
HETATM   11  C   UNL     1      -7.135  16.424  68.952  1.00  0.00    -0.195 A  
HETATM   12  H   UNL     1      -5.979  20.168  68.647  1.00  0.00     0.000 HD 
HETATM   13  C   UNL     1      -8.860  18.611  68.580  1.00  0.00    -0.361 A  
HETATM   14  O   UNL     1      -6.918  20.041  68.583  1.00  0.00    -0.312 OA 
HETATM   15  C   UNL     1      -8.515  16.226  68.859  1.00  0.00    -0.253 A  
HETATM   16  H   UNL     1      -4.700  17.164  69.038  1.00  0.00     0.000 HD 
ENDBRANCH   6   7
ENDBRANCH   5   6
ENDBRANCH   3   5
ENDBRANCH   2   3
BRANCH   2  17
HETATM   17  C   UNL     1     -11.195  12.935  69.533  1.00  0.00    -0.143 C  
BRANCH  17  18
HETATM   18  C   UNL     1     -12.255  11.839  69.370  1.00  0.00    -0.219 C  
BRANCH  18  19
HETATM   19  C   UNL     1     -11.992  10.694  70.321  1.00  0.00    -0.425 A  
HETATM   20  C   UNL     1     -10.749  10.046  70.328  1.00  0.00    -0.367 A  
HETATM   21  C   UNL     1     -12.972  10.302  71.244  1.00  0.00    -0.517 A  
HETATM   22  C   UNL     1     -12.715   9.283  72.163  1.00  0.00    -0.465 A  
HETATM   23  H   UNL     1     -10.323   7.243  73.049  1.00  0.00     0.000 HD 
HETATM   24  C   UNL     1     -10.492   9.025  71.246  1.00  0.00    -0.381 A  
HETATM   25  C   UNL     1     -11.472   8.657  72.159  1.00  0.00    -0.373 A  
HETATM   26  O   UNL     1     -11.172   7.670  73.052  1.00  0.00    -0.384 OA 
ENDBRANCH  18  19
ENDBRANCH  17  18
ENDBRANCH   2  17
TORSDOF 7
ENDMDL
MODEL      150
REMARK 921   NORMALIZED FREE ENERGY PREDICTED BY IDOCK:   -4.89 KCAL/MOL
REMARK 922        TOTAL FREE ENERGY PREDICTED BY IDOCK:   -8.06 KCAL/MOL
REMARK 923 INTER-LIGAND FREE ENERGY PREDICTED BY IDOCK:   -5.71 KCAL/MOL
REMARK 924 INTRA-LIGAND FREE ENERGY PREDICTED BY IDOCK:   -2.35 KCAL/MOL
REMARK 927      BINDING AFFINITY PREDICTED BY RF-SCORE:    0.00 PKD
ROOT
HETATM    1  C   UNL     1      -6.927  17.407  66.719  1.00  0.00    -0.246 C  
HETATM    2  C   UNL     1      -7.906  16.254  66.968  1.00  0.00    -0.218 C  
ENDROOT
BRANCH   2   3
HETATM    3  N   UNL     1      -8.886  16.576  68.018  1.00  0.00    -0.194 NA 
HETATM    4  H   UNL     1      -8.572  17.382  68.558  1.00  0.00     0.000 HD 
BRANCH   3   5
HETATM    5  C   UNL     1     -10.262  16.791  67.543  1.00  0.00    -0.289 C  
BRANCH   5   6
HETATM    6  C   UNL     1     -11.343  16.283  68.506  1.00  0.00    -0.330 C  
BRANCH   6   7
HETATM    7  C   UNL     1     -11.539  14.789  68.425  1.00  0.00    -0.350 A  
HETATM    8  C   UNL     1     -11.975  12.038  68.317  1.00  0.00    -0.179 A  
HETATM    9  C   UNL     1     -12.034  12.800  67.153  1.00  0.00    -0.284 A  
HETATM   10  O   UNL     1     -12.216  10.694  68.267  1.00  0.00    -0.799 OA 
HETATM   11  C   UNL     1     -11.683  12.627  69.537  1.00  0.00    -0.374 A  
HETATM   12  H   UNL     1     -12.476  11.214  65.956  1.00  0.00     0.000 HD 
HETATM   13  C   UNL     1     -11.814  14.173  67.195  1.00  0.00    -0.454 A  
HETATM   14  O   UNL     1     -12.326  12.151  65.984  1.00  0.00    -0.550 OA 
HETATM   15  C   UNL     1     -11.461  14.005  69.589  1.00  0.00    -0.317 A  
HETATM   16  H   UNL     1     -12.176  10.174  69.061  1.00  0.00     0.000 HD 
ENDBRANCH   6   7
ENDBRANCH   5   6
ENDBRANCH   3   5
ENDBRANCH   2   3
BRANCH   2  17
HETATM   17  C   UNL     1      -7.113  14.990  67.357  1.00  0.00    -0.206 C  
BRANCH  17  18
HETATM   18  C   UNL     1      -7.752  14.197  68.504  1.00  0.00    -0.138 C  
BRANCH  18  19
HETATM   19  C   UNL     1      -8.173  12.823  68.034  1.00  0.00    -0.168 A  
HETATM   20  C   UNL     1      -8.565  12.613  66.705  1.00  0.00    -0.035 A  
HETATM   21  C   UNL     1      -8.127  11.731  68.913  1.00  0.00     0.029 A  
HETATM   22  C   UNL     1      -8.461  10.449  68.470  1.00  0.00    -0.129 A  
HETATM   23  H   UNL     1      -9.413   8.896  65.760  1.00  0.00     0.000 HD 
HETATM   24  C   UNL     1      -8.900  11.332  66.262  1.00  0.00    -0.194 A  
HETATM   25  C   UNL     1      -8.839  10.262  67.145  1.00  0.00    -0.136 A  
HETATM   26  O   UNL     1      -9.155   9.024  66.666  1.00  0.00    -0.147 OA 
ENDBRANCH  18  19
ENDBRANCH  17  18
ENDBRANCH   2  17
TORSDOF 7
ENDMDL
MODEL      151
REMARK 921   NORMALIZED FREE ENERGY PREDICTED BY IDOCK:   -4.88 KCAL/MOL
REMARK 922        TOTAL FREE ENERGY PREDICTED BY IDOCK:   -8.03 KCAL/MOL
REMARK 923 INTER-LIGAND FREE ENERGY PREDICTED BY IDOCK:   -6.95 KCAL/MOL
REMARK 924 INTRA-LIGAND FREE ENERGY PREDICTED BY IDOCK:   -1.09 KCAL/MOL
REMARK 927      BINDING AFFINITY PREDICTED BY RF-SCORE:    0.00 PKD
ROOT
HETATM    1  C   UNL     1      -9.345  10.261  64.287  1.00  0.00    -0.328 C  
HETATM    2  C   UNL     1     -10.046  11.050  65.399  1.00  0.00    -0.269 C  
ENDROOT
BRANCH   2   3
HETATM    3  N   UNL     1      -9.784  12.495  65.304  1.00  0.00    -0.457 NA 
HETATM    4  H   UNL     1      -9.110  12.682  64.562  1.00  0.00     0.000 HD 
BRANCH   3   5
HETATM    5  C   UNL     1     -10.979  13.336  65.126  1.00  0.00    -0.299 C  
BRANCH   5   6
HETATM    6  C   UNL     1     -12.049  13.138  66.208  1.00  0.00    -0.460 C  
BRANCH   6   7
HETATM    7  C   UNL     1     -11.818  14.007  67.419  1.00  0.00    -0.445 A  
HETATM    8  C   UNL     1     -11.457  15.663  69.633  1.00  0.00    -0.340 A  
HETATM    9  C   UNL     1     -11.896  14.353  69.806  1.00  0.00    -0.320 A  
HETATM   10  O   UNL     1     -11.307  16.481  70.716  1.00  0.00    -0.521 OA 
HETATM   11  C   UNL     1     -11.177  16.157  68.369  1.00  0.00    -0.358 A  
HETATM   12  H   UNL     1     -12.029  14.503  71.831  1.00  0.00     0.000 HD 
HETATM   13  C   UNL     1     -12.075  13.517  68.708  1.00  0.00    -0.305 A  
HETATM   14  O   UNL     1     -12.151  13.932  71.082  1.00  0.00    -0.344 OA 
HETATM   15  C   UNL     1     -11.355  15.325  67.260  1.00  0.00    -0.269 A  
HETATM   16  H   UNL     1     -11.008  17.376  70.599  1.00  0.00     0.000 HD 
ENDBRANCH   6   7
ENDBRANCH   5   6
ENDBRANCH   3   5
ENDBRANCH   2   3
BRANCH   2  17
HETATM   17  C   UNL     1      -9.580  10.519  66.769  1.00  0.00    -0.205 C  
BRANCH  17  18
HETATM   18  C   UNL     1     -10.737  10.143  67.704  1.00  0.00    -0.339 C  
BRANCH  18  19
HETATM   19  C   UNL     1     -10.653   8.687  68.100  1.00  0.00    -0.189 A  
HETATM   20  C   UNL     1     -10.577   7.686  67.122  1.00  0.00    -0.410 A  
HETATM   21  C   UNL     1     -10.597   8.325  69.454  1.00  0.00    -0.203 A  
HETATM   22  C   UNL     1     -10.462   6.986  69.826  1.00  0.00    -0.235 A  
HETATM   23  H   UNL     1     -10.175   4.022  68.484  1.00  0.00     0.000 HD 
HETATM   24  C   UNL     1     -10.445   6.346  67.494  1.00  0.00    -0.290 A  
HETATM   25  C   UNL     1     -10.381   6.008  68.839  1.00  0.00    -0.218 A  
HETATM   26  O   UNL     1     -10.230   4.690  69.158  1.00  0.00    -0.143 OA 
ENDBRANCH  18  19
ENDBRANCH  17  18
ENDBRANCH   2  17
TORSDOF 7
ENDMDL
MODEL      152
REMARK 921   NORMALIZED FREE ENERGY PREDICTED BY IDOCK:   -4.87 KCAL/MOL
REMARK 922        TOTAL FREE ENERGY PREDICTED BY IDOCK:   -8.03 KCAL/MOL
REMARK 923 INTER-LIGAND FREE ENERGY PREDICTED BY IDOCK:   -7.40 KCAL/MOL
REMARK 924 INTRA-LIGAND FREE ENERGY PREDICTED BY IDOCK:   -0.63 KCAL/MOL
REMARK 927      BINDING AFFINITY PREDICTED BY RF-SCORE:    0.00 PKD
ROOT
HETATM    1  C   UNL     1     -10.454   9.727  68.528  1.00  0.00    -0.239 C  
HETATM    2  C   UNL     1     -11.242  10.428  69.639  1.00  0.00    -0.277 C  
ENDROOT
BRANCH   2   3
HETATM    3  N   UNL     1     -12.164   9.513  70.330  1.00  0.00    -0.466 NA 
HETATM    4  H   UNL     1     -12.528   8.820  69.675  1.00  0.00     0.000 HD 
BRANCH   3   5
HETATM    5  C   UNL     1     -11.609   8.844  71.517  1.00  0.00    -0.318 C  
BRANCH   5   6
HETATM    6  C   UNL     1     -12.118   7.412  71.724  1.00  0.00    -0.345 C  
BRANCH   6   7
HETATM    7  C   UNL     1     -11.300   6.390  70.974  1.00  0.00    -0.386 A  
HETATM    8  C   UNL     1      -9.838   4.441  69.618  1.00  0.00    -0.202 A  
HETATM    9  C   UNL     1     -10.602   5.361  68.906  1.00  0.00    -0.127 A  
HETATM   10  O   UNL     1      -9.145   3.469  68.955  1.00  0.00    -0.117 OA 
HETATM   11  C   UNL     1      -9.777   4.489  71.002  1.00  0.00    -0.259 A  
HETATM   12  H   UNL     1     -10.116   4.587  67.087  1.00  0.00     0.000 HD 
HETATM   13  C   UNL     1     -11.332   6.341  69.572  1.00  0.00    -0.475 A  
HETATM   14  O   UNL     1     -10.614   5.255  67.542  1.00  0.00    -0.171 OA 
HETATM   15  C   UNL     1     -10.507   5.468  71.680  1.00  0.00    -0.292 A  
HETATM   16  H   UNL     1      -8.623   2.840  69.441  1.00  0.00     0.000 HD 
ENDBRANCH   6   7
ENDBRANCH   5   6
ENDBRANCH   3   5
ENDBRANCH   2   3
BRANCH   2  17
HETATM   17  C   UNL     1     -12.027  11.611  69.036  1.00  0.00    -0.368 C  
BRANCH  17  18
HETATM   18  C   UNL     1     -11.127  12.689  68.419  1.00  0.00    -0.297 C  
BRANCH  18  19
HETATM   19  C   UNL     1     -11.551  12.991  67.000  1.00  0.00    -0.413 A  
HETATM   20  C   UNL     1     -11.889  14.297  66.619  1.00  0.00    -0.442 A  
HETATM   21  C   UNL     1     -11.562  11.974  66.034  1.00  0.00    -0.371 A  
HETATM   22  C   UNL     1     -11.898  12.257  64.708  1.00  0.00    -0.428 A  
HETATM   23  H   UNL     1     -12.760  14.777  62.818  1.00  0.00     0.000 HD 
HETATM   24  C   UNL     1     -12.227  14.580  65.295  1.00  0.00    -0.321 A  
HETATM   25  C   UNL     1     -12.223  13.562  64.350  1.00  0.00    -0.390 A  
HETATM   26  O   UNL     1     -12.539  13.886  63.063  1.00  0.00    -0.694 OA 
ENDBRANCH  18  19
ENDBRANCH  17  18
ENDBRANCH   2  17
TORSDOF 7
ENDMDL
MODEL      153
REMARK 921   NORMALIZED FREE ENERGY PREDICTED BY IDOCK:   -4.87 KCAL/MOL
REMARK 922        TOTAL FREE ENERGY PREDICTED BY IDOCK:   -8.03 KCAL/MOL
REMARK 923 INTER-LIGAND FREE ENERGY PREDICTED BY IDOCK:   -7.30 KCAL/MOL
REMARK 924 INTRA-LIGAND FREE ENERGY PREDICTED BY IDOCK:   -0.73 KCAL/MOL
REMARK 927      BINDING AFFINITY PREDICTED BY RF-SCORE:    0.00 PKD
ROOT
HETATM    1  C   UNL     1      -8.559  13.960  66.748  1.00  0.00    -0.066 C  
HETATM    2  C   UNL     1     -10.046  14.325  66.817  1.00  0.00    -0.264 C  
ENDROOT
BRANCH   2   3
HETATM    3  N   UNL     1     -10.880  13.411  66.020  1.00  0.00    -0.273 NA 
HETATM    4  H   UNL     1     -10.298  12.877  65.375  1.00  0.00     0.000 HD 
BRANCH   3   5
HETATM    5  C   UNL     1     -11.735  12.504  66.802  1.00  0.00    -0.384 C  
BRANCH   5   6
HETATM    6  C   UNL     1     -11.047  11.907  68.037  1.00  0.00    -0.293 C  
BRANCH   6   7
HETATM    7  C   UNL     1     -11.786  12.210  69.317  1.00  0.00    -0.386 A  
HETATM    8  C   UNL     1     -13.218  12.795  71.636  1.00  0.00    -0.317 A  
HETATM    9  C   UNL     1     -12.887  11.477  71.335  1.00  0.00    -0.384 A  
HETATM   10  O   UNL     1     -13.943  13.078  72.759  1.00  0.00    -0.745 OA 
HETATM   11  C   UNL     1     -12.829  13.833  70.804  1.00  0.00    -0.302 A  
HETATM   12  H   UNL     1     -13.792  10.711  72.989  1.00  0.00     0.000 HD 
HETATM   13  C   UNL     1     -12.168  11.175  70.182  1.00  0.00    -0.417 A  
HETATM   14  O   UNL     1     -13.302  10.504  72.202  1.00  0.00    -0.437 OA 
HETATM   15  C   UNL     1     -12.108  13.539  69.644  1.00  0.00    -0.365 A  
HETATM   16  H   UNL     1     -14.170  13.978  72.965  1.00  0.00     0.000 HD 
ENDBRANCH   6   7
ENDBRANCH   5   6
ENDBRANCH   3   5
ENDBRANCH   2   3
BRANCH   2  17
HETATM   17  C   UNL     1     -10.237  15.775  66.327  1.00  0.00    -0.317 C  
BRANCH  17  18
HETATM   18  C   UNL     1      -9.816  16.828  67.360  1.00  0.00    -0.252 C  
BRANCH  18  19
HETATM   19  C   UNL     1      -8.839  17.810  66.754  1.00  0.00    -0.275 A  
HETATM   20  C   UNL     1      -9.186  19.159  66.603  1.00  0.00    -0.367 A  
HETATM   21  C   UNL     1      -7.553  17.390  66.383  1.00  0.00    -0.342 A  
HETATM   22  C   UNL     1      -6.627  18.303  65.876  1.00  0.00    -0.306 A  
HETATM   23  H   UNL     1      -6.356  21.482  65.176  1.00  0.00     0.000 HD 
HETATM   24  C   UNL     1      -8.261  20.073  66.094  1.00  0.00    -0.302 A  
HETATM   25  C   UNL     1      -6.989  19.640  65.741  1.00  0.00    -0.293 A  
HETATM   26  O   UNL     1      -6.109  20.569  65.268  1.00  0.00    -0.213 OA 
ENDBRANCH  18  19
ENDBRANCH  17  18
ENDBRANCH   2  17
TORSDOF 7
ENDMDL
MODEL      154
REMARK 921   NORMALIZED FREE ENERGY PREDICTED BY IDOCK:   -4.87 KCAL/MOL
REMARK 922        TOTAL FREE ENERGY PREDICTED BY IDOCK:   -8.02 KCAL/MOL
REMARK 923 INTER-LIGAND FREE ENERGY PREDICTED BY IDOCK:   -7.16 KCAL/MOL
REMARK 924 INTRA-LIGAND FREE ENERGY PREDICTED BY IDOCK:   -0.86 KCAL/MOL
REMARK 927      BINDING AFFINITY PREDICTED BY RF-SCORE:    0.00 PKD
ROOT
HETATM    1  C   UNL     1     -12.101  13.114  70.115  1.00  0.00    -0.392 C  
HETATM    2  C   UNL     1     -11.874  11.685  69.610  1.00  0.00    -0.352 C  
ENDROOT
BRANCH   2   3
HETATM    3  N   UNL     1     -11.046  10.894  70.535  1.00  0.00    -0.402 NA 
HETATM    4  H   UNL     1     -11.629  10.480  71.262  1.00  0.00     0.000 HD 
BRANCH   3   5
HETATM    5  C   UNL     1     -10.216   9.858  69.901  1.00  0.00    -0.257 C  
BRANCH   5   6
HETATM    6  C   UNL     1     -10.859   8.465  69.883  1.00  0.00    -0.207 C  
BRANCH   6   7
HETATM    7  C   UNL     1     -10.478   7.664  68.663  1.00  0.00    -0.203 A  
HETATM    8  C   UNL     1      -9.855   6.180  66.387  1.00  0.00    -0.092 A  
HETATM    9  C   UNL     1      -9.470   7.515  66.476  1.00  0.00    -0.179 A  
HETATM   10  O   UNL     1      -9.574   5.461  65.260  1.00  0.00    -0.364 OA 
HETATM   11  C   UNL     1     -10.533   5.565  67.428  1.00  0.00    -0.284 A  
HETATM   12  H   UNL     1      -8.596   7.544  64.638  1.00  0.00     0.000 HD 
HETATM   13  C   UNL     1      -9.772   8.264  67.609  1.00  0.00    -0.201 A  
HETATM   14  O   UNL     1      -8.802   8.055  65.411  1.00  0.00    -0.126 OA 
HETATM   15  C   UNL     1     -10.841   6.309  68.570  1.00  0.00    -0.394 A  
HETATM   16  H   UNL     1      -9.836   4.550  65.199  1.00  0.00     0.000 HD 
ENDBRANCH   6   7
ENDBRANCH   5   6
ENDBRANCH   3   5
ENDBRANCH   2   3
BRANCH   2  17
HETATM   17  C   UNL     1     -11.208  11.737  68.221  1.00  0.00    -0.313 C  
BRANCH  17  18
HETATM   18  C   UNL     1     -10.186  12.871  68.075  1.00  0.00    -0.229 C  
BRANCH  18  19
HETATM   19  C   UNL     1     -10.569  13.795  66.942  1.00  0.00    -0.276 A  
HETATM   20  C   UNL     1     -11.697  13.527  66.155  1.00  0.00    -0.397 A  
HETATM   21  C   UNL     1      -9.828  14.960  66.698  1.00  0.00    -0.272 A  
HETATM   22  C   UNL     1     -10.210  15.846  65.689  1.00  0.00    -0.406 A  
HETATM   23  H   UNL     1     -12.528  16.221  63.419  1.00  0.00     0.000 HD 
HETATM   24  C   UNL     1     -12.079  14.411  65.144  1.00  0.00    -0.395 A  
HETATM   25  C   UNL     1     -11.338  15.565  64.924  1.00  0.00    -0.335 A  
HETATM   26  O   UNL     1     -11.757  16.413  63.941  1.00  0.00    -1.085 OA 
ENDBRANCH  18  19
ENDBRANCH  17  18
ENDBRANCH   2  17
TORSDOF 7
ENDMDL
MODEL      155
REMARK 921   NORMALIZED FREE ENERGY PREDICTED BY IDOCK:   -4.86 KCAL/MOL
REMARK 922        TOTAL FREE ENERGY PREDICTED BY IDOCK:   -8.02 KCAL/MOL
REMARK 923 INTER-LIGAND FREE ENERGY PREDICTED BY IDOCK:   -7.29 KCAL/MOL
REMARK 924 INTRA-LIGAND FREE ENERGY PREDICTED BY IDOCK:   -0.73 KCAL/MOL
REMARK 927      BINDING AFFINITY PREDICTED BY RF-SCORE:    0.00 PKD
ROOT
HETATM    1  C   UNL     1     -11.609  13.397  66.063  1.00  0.00    -0.375 C  
HETATM    2  C   UNL     1     -10.855  13.853  67.317  1.00  0.00    -0.286 C  
ENDROOT
BRANCH   2   3
HETATM    3  N   UNL     1     -10.104  12.754  67.945  1.00  0.00    -0.224 NA 
HETATM    4  H   UNL     1     -10.643  11.889  67.898  1.00  0.00     0.000 HD 
BRANCH   3   5
HETATM    5  C   UNL     1      -8.751  12.538  67.411  1.00  0.00    -0.189 C  
BRANCH   5   6
HETATM    6  C   UNL     1      -8.607  11.262  66.570  1.00  0.00    -0.170 C  
BRANCH   6   7
HETATM    7  C   UNL     1      -9.173  10.045  67.259  1.00  0.00    -0.159 A  
HETATM    8  C   UNL     1     -10.179   7.747  68.475  1.00  0.00    -0.204 A  
HETATM    9  C   UNL     1      -9.242   8.534  69.139  1.00  0.00    -0.150 A  
HETATM   10  O   UNL     1     -10.651   6.606  69.060  1.00  0.00    -0.203 OA 
HETATM   11  C   UNL     1     -10.638   8.099  67.215  1.00  0.00    -0.344 A  
HETATM   12  H   UNL     1      -9.181   7.340  70.786  1.00  0.00     0.000 HD 
HETATM   13  C   UNL     1      -8.736   9.685  68.543  1.00  0.00    -0.120 A  
HETATM   14  O   UNL     1      -8.836   8.126  70.380  1.00  0.00    -0.137 OA 
HETATM   15  C   UNL     1     -10.136   9.254  66.609  1.00  0.00    -0.341 A  
HETATM   16  H   UNL     1     -11.291   6.069  68.607  1.00  0.00     0.000 HD 
ENDBRANCH   6   7
ENDBRANCH   5   6
ENDBRANCH   3   5
ENDBRANCH   2   3
BRANCH   2  17
HETATM   17  C   UNL     1     -11.860  14.447  68.324  1.00  0.00    -0.361 C  
BRANCH  17  18
HETATM   18  C   UNL     1     -12.122  13.541  69.534  1.00  0.00    -0.352 C  
BRANCH  18  19
HETATM   19  C   UNL     1     -12.332  14.364  70.784  1.00  0.00    -0.417 A  
HETATM   20  C   UNL     1     -13.134  13.883  71.828  1.00  0.00    -0.458 A  
HETATM   21  C   UNL     1     -11.684  15.599  70.935  1.00  0.00    -0.423 A  
HETATM   22  C   UNL     1     -11.829  16.338  72.110  1.00  0.00    -0.585 A  
HETATM   23  H   UNL     1     -13.321  16.178  75.011  1.00  0.00     0.000 HD 
HETATM   24  C   UNL     1     -13.282  14.623  73.002  1.00  0.00    -0.587 A  
HETATM   25  C   UNL     1     -12.624  15.839  73.137  1.00  0.00    -0.494 A  
HETATM   26  O   UNL     1     -12.778  16.520  74.309  1.00  0.00    -0.708 OA 
ENDBRANCH  18  19
ENDBRANCH  17  18
ENDBRANCH   2  17
TORSDOF 7
ENDMDL
MODEL      156
REMARK 921   NORMALIZED FREE ENERGY PREDICTED BY IDOCK:   -4.85 KCAL/MOL
REMARK 922        TOTAL FREE ENERGY PREDICTED BY IDOCK:   -7.99 KCAL/MOL
REMARK 923 INTER-LIGAND FREE ENERGY PREDICTED BY IDOCK:   -6.71 KCAL/MOL
REMARK 924 INTRA-LIGAND FREE ENERGY PREDICTED BY IDOCK:   -1.28 KCAL/MOL
REMARK 927      BINDING AFFINITY PREDICTED BY RF-SCORE:    0.00 PKD
ROOT
HETATM    1  C   UNL     1     -12.628  12.536  70.888  1.00  0.00    -0.331 C  
HETATM    2  C   UNL     1     -11.886  11.690  69.848  1.00  0.00    -0.358 C  
ENDROOT
BRANCH   2   3
HETATM    3  N   UNL     1     -11.108  10.605  70.468  1.00  0.00    -0.441 NA 
HETATM    4  H   UNL     1     -11.720   9.823  70.701  1.00  0.00     0.000 HD 
BRANCH   3   5
HETATM    5  C   UNL     1      -9.959  10.131  69.680  1.00  0.00    -0.232 C  
BRANCH   5   6
HETATM    6  C   UNL     1     -10.345   9.306  68.446  1.00  0.00    -0.244 C  
BRANCH   6   7
HETATM    7  C   UNL     1      -9.467   9.598  67.254  1.00  0.00    -0.175 A  
HETATM    8  C   UNL     1      -7.903  10.194  65.025  1.00  0.00    -0.140 A  
HETATM    9  C   UNL     1      -7.461  10.538  66.299  1.00  0.00    -0.133 A  
HETATM   10  O   UNL     1      -7.148  10.511  63.931  1.00  0.00    -0.324 OA 
HETATM   11  C   UNL     1      -9.110   9.538  64.845  1.00  0.00    -0.276 A  
HETATM   12  H   UNL     1      -5.732  11.384  65.638  1.00  0.00     0.000 HD 
HETATM   13  C   UNL     1      -8.232  10.241  67.419  1.00  0.00    -0.114 A  
HETATM   14  O   UNL     1      -6.258  11.181  66.402  1.00  0.00    -0.128 OA 
HETATM   15  C   UNL     1      -9.892   9.236  65.963  1.00  0.00    -0.363 A  
HETATM   16  H   UNL     1      -7.449  10.276  63.061  1.00  0.00     0.000 HD 
ENDBRANCH   6   7
ENDBRANCH   5   6
ENDBRANCH   3   5
ENDBRANCH   2   3
BRANCH   2  17
HETATM   17  C   UNL     1     -10.955  12.601  69.023  1.00  0.00    -0.240 C  
BRANCH  17  18
HETATM   18  C   UNL     1     -11.655  13.849  68.471  1.00  0.00    -0.367 C  
BRANCH  18  19
HETATM   19  C   UNL     1     -11.806  13.757  66.970  1.00  0.00    -0.445 A  
HETATM   20  C   UNL     1     -12.124  12.536  66.359  1.00  0.00    -0.279 A  
HETATM   21  C   UNL     1     -11.681  14.906  66.175  1.00  0.00    -0.178 A  
HETATM   22  C   UNL     1     -11.876  14.838  64.794  1.00  0.00    -0.425 A  
HETATM   23  H   UNL     1     -12.636  12.677  62.466  1.00  0.00     0.000 HD 
HETATM   24  C   UNL     1     -12.316  12.467  64.978  1.00  0.00    -0.522 A  
HETATM   25  C   UNL     1     -12.198  13.618  64.209  1.00  0.00    -0.396 A  
HETATM   26  O   UNL     1     -12.415  13.511  62.866  1.00  0.00    -0.601 OA 
ENDBRANCH  18  19
ENDBRANCH  17  18
ENDBRANCH   2  17
TORSDOF 7
ENDMDL
MODEL      157
REMARK 921   NORMALIZED FREE ENERGY PREDICTED BY IDOCK:   -4.85 KCAL/MOL
REMARK 922        TOTAL FREE ENERGY PREDICTED BY IDOCK:   -7.99 KCAL/MOL
REMARK 923 INTER-LIGAND FREE ENERGY PREDICTED BY IDOCK:   -7.30 KCAL/MOL
REMARK 924 INTRA-LIGAND FREE ENERGY PREDICTED BY IDOCK:   -0.69 KCAL/MOL
REMARK 927      BINDING AFFINITY PREDICTED BY RF-SCORE:    0.00 PKD
ROOT
HETATM    1  C   UNL     1      -9.407  10.967  67.870  1.00  0.00    -0.160 C  
HETATM    2  C   UNL     1     -10.798  11.574  67.655  1.00  0.00    -0.227 C  
ENDROOT
BRANCH   2   3
HETATM    3  N   UNL     1     -11.872  10.678  68.111  1.00  0.00    -0.788 NA 
HETATM    4  H   UNL     1     -11.503   9.741  68.275  1.00  0.00     0.000 HD 
BRANCH   3   5
HETATM    5  C   UNL     1     -12.614  11.143  69.293  1.00  0.00     0.267 C  
BRANCH   5   6
HETATM    6  C   UNL     1     -11.821  11.057  70.603  1.00  0.00    -0.434 C  
BRANCH   6   7
HETATM    7  C   UNL     1     -11.870   9.682  71.223  1.00  0.00    -0.460 A  
HETATM    8  C   UNL     1     -11.981   7.110  72.292  1.00  0.00    -0.218 A  
HETATM    9  C   UNL     1     -10.762   7.778  72.208  1.00  0.00    -0.269 A  
HETATM   10  O   UNL     1     -12.030   5.839  72.791  1.00  0.00    -0.527 OA 
HETATM   11  C   UNL     1     -13.153   7.714  71.866  1.00  0.00    -0.292 A  
HETATM   12  H   UNL     1      -9.691   6.244  73.009  1.00  0.00     0.000 HD 
HETATM   13  C   UNL     1     -10.697   9.064  71.680  1.00  0.00    -0.441 A  
HETATM   14  O   UNL     1      -9.646   7.122  72.649  1.00  0.00    -0.144 OA 
HETATM   15  C   UNL     1     -13.097   9.005  71.334  1.00  0.00    -0.337 A  
HETATM   16  H   UNL     1     -12.861   5.382  72.848  1.00  0.00     0.000 HD 
ENDBRANCH   6   7
ENDBRANCH   5   6
ENDBRANCH   3   5
ENDBRANCH   2   3
BRANCH   2  17
HETATM   17  C   UNL     1     -10.983  11.900  66.159  1.00  0.00    -0.352 C  
BRANCH  17  18
HETATM   18  C   UNL     1     -11.982  13.035  65.900  1.00  0.00    -0.491 C  
BRANCH  18  19
HETATM   19  C   UNL     1     -11.483  14.333  66.494  1.00  0.00    -0.368 A  
HETATM   20  C   UNL     1     -11.805  14.684  67.812  1.00  0.00    -0.359 A  
HETATM   21  C   UNL     1     -10.647  15.177  65.748  1.00  0.00    -0.364 A  
HETATM   22  C   UNL     1     -10.137  16.349  66.310  1.00  0.00    -0.346 A  
HETATM   23  H   UNL     1     -10.194  18.023  69.113  1.00  0.00     0.000 HD 
HETATM   24  C   UNL     1     -11.297  15.857  68.374  1.00  0.00    -0.361 A  
HETATM   25  C   UNL     1     -10.464  16.675  67.622  1.00  0.00    -0.320 A  
HETATM   26  O   UNL     1      -9.972  17.800  68.217  1.00  0.00    -0.314 OA 
ENDBRANCH  18  19
ENDBRANCH  17  18
ENDBRANCH   2  17
TORSDOF 7
ENDMDL
MODEL      158
REMARK 921   NORMALIZED FREE ENERGY PREDICTED BY IDOCK:   -4.84 KCAL/MOL
REMARK 922        TOTAL FREE ENERGY PREDICTED BY IDOCK:   -7.98 KCAL/MOL
REMARK 923 INTER-LIGAND FREE ENERGY PREDICTED BY IDOCK:   -7.42 KCAL/MOL
REMARK 924 INTRA-LIGAND FREE ENERGY PREDICTED BY IDOCK:   -0.56 KCAL/MOL
REMARK 927      BINDING AFFINITY PREDICTED BY RF-SCORE:    0.00 PKD
ROOT
HETATM    1  C   UNL     1      -8.633  10.049  67.607  1.00  0.00    -0.118 C  
HETATM    2  C   UNL     1      -9.685  11.024  68.147  1.00  0.00    -0.174 C  
ENDROOT
BRANCH   2   3
HETATM    3  N   UNL     1      -9.992  10.779  69.566  1.00  0.00    -0.431 NA 
HETATM    4  H   UNL     1      -9.781  11.609  70.119  1.00  0.00     0.000 HD 
BRANCH   3   5
HETATM    5  C   UNL     1     -11.365  10.326  69.838  1.00  0.00    -0.290 C  
BRANCH   5   6
HETATM    6  C   UNL     1     -11.681  10.151  71.329  1.00  0.00    -0.426 C  
BRANCH   6   7
HETATM    7  C   UNL     1     -11.569   8.716  71.783  1.00  0.00    -0.403 A  
HETATM    8  C   UNL     1     -11.362   6.041  72.540  1.00  0.00    -0.300 A  
HETATM    9  C   UNL     1     -10.303   6.915  72.769  1.00  0.00    -0.213 A  
HETATM   10  O   UNL     1     -11.249   4.725  72.886  1.00  0.00    -0.243 OA 
HETATM   11  C   UNL     1     -12.536   6.487  71.952  1.00  0.00    -0.291 A  
HETATM   12  H   UNL     1      -9.112   5.493  73.607  1.00  0.00     0.000 HD 
HETATM   13  C   UNL     1     -10.398   8.253  72.399  1.00  0.00    -0.402 A  
HETATM   14  O   UNL     1      -9.176   6.406  73.355  1.00  0.00    -0.131 OA 
HETATM   15  C   UNL     1     -12.640   7.828  71.577  1.00  0.00    -0.356 A  
HETATM   16  H   UNL     1     -11.972   4.128  72.729  1.00  0.00     0.000 HD 
ENDBRANCH   6   7
ENDBRANCH   5   6
ENDBRANCH   3   5
ENDBRANCH   2   3
BRANCH   2  17
HETATM   17  C   UNL     1     -10.969  10.905  67.302  1.00  0.00    -0.355 C  
BRANCH  17  18
HETATM   18  C   UNL     1     -10.720  11.021  65.792  1.00  0.00    -0.216 C  
BRANCH  18  19
HETATM   19  C   UNL     1     -11.173  12.367  65.277  1.00  0.00    -0.359 A  
HETATM   20  C   UNL     1     -10.764  13.548  65.913  1.00  0.00    -0.279 A  
HETATM   21  C   UNL     1     -11.968  12.452  64.125  1.00  0.00    -0.518 A  
HETATM   22  C   UNL     1     -12.344  13.695  63.612  1.00  0.00    -0.328 A  
HETATM   23  H   UNL     1     -11.959  16.882  64.212  1.00  0.00     0.000 HD 
HETATM   24  C   UNL     1     -11.141  14.791  65.401  1.00  0.00    -0.359 A  
HETATM   25  C   UNL     1     -11.921  14.855  64.253  1.00  0.00    -0.338 A  
HETATM   26  O   UNL     1     -12.248  16.090  63.775  1.00  0.00    -0.895 OA 
ENDBRANCH  18  19
ENDBRANCH  17  18
ENDBRANCH   2  17
TORSDOF 7
ENDMDL
MODEL      159
REMARK 921   NORMALIZED FREE ENERGY PREDICTED BY IDOCK:   -4.84 KCAL/MOL
REMARK 922        TOTAL FREE ENERGY PREDICTED BY IDOCK:   -7.98 KCAL/MOL
REMARK 923 INTER-LIGAND FREE ENERGY PREDICTED BY IDOCK:   -7.15 KCAL/MOL
REMARK 924 INTRA-LIGAND FREE ENERGY PREDICTED BY IDOCK:   -0.83 KCAL/MOL
REMARK 927      BINDING AFFINITY PREDICTED BY RF-SCORE:    0.00 PKD
ROOT
HETATM    1  C   UNL     1     -10.391   9.458  69.574  1.00  0.00    -0.223 C  
HETATM    2  C   UNL     1     -11.530   9.349  70.594  1.00  0.00    -0.284 C  
ENDROOT
BRANCH   2   3
HETATM    3  N   UNL     1     -12.263   8.078  70.474  1.00  0.00    -0.469 NA 
HETATM    4  H   UNL     1     -11.888   7.528  69.701  1.00  0.00     0.000 HD 
BRANCH   3   5
HETATM    5  C   UNL     1     -12.307   7.265  71.700  1.00  0.00    -0.352 C  
BRANCH   5   6
HETATM    6  C   UNL     1     -11.655   7.934  72.917  1.00  0.00    -0.303 C  
BRANCH   6   7
HETATM    7  C   UNL     1     -10.350   7.286  73.307  1.00  0.00    -0.389 A  
HETATM    8  C   UNL     1      -7.946   6.034  73.963  1.00  0.00    -0.103 A  
HETATM    9  C   UNL     1      -7.942   7.332  73.460  1.00  0.00    -0.110 A  
HETATM   10  O   UNL     1      -6.767   5.412  74.258  1.00  0.00    -0.074 OA 
HETATM   11  C   UNL     1      -9.138   5.354  74.162  1.00  0.00    -0.118 A  
HETATM   12  H   UNL     1      -5.915   7.509  73.514  1.00  0.00     0.000 HD 
HETATM   13  C   UNL     1      -9.136   7.968  73.133  1.00  0.00    -0.341 A  
HETATM   14  O   UNL     1      -6.730   7.943  73.291  1.00  0.00    -0.077 OA 
HETATM   15  C   UNL     1     -10.341   5.984  73.837  1.00  0.00    -0.293 A  
HETATM   16  H   UNL     1      -6.769   4.526  74.601  1.00  0.00     0.000 HD 
ENDBRANCH   6   7
ENDBRANCH   5   6
ENDBRANCH   3   5
ENDBRANCH   2   3
BRANCH   2  17
HETATM   17  C   UNL     1     -12.497  10.535  70.403  1.00  0.00    -0.392 C  
BRANCH  17  18
HETATM   18  C   UNL     1     -11.788  11.854  70.072  1.00  0.00    -0.407 C  
BRANCH  18  19
HETATM   19  C   UNL     1     -12.447  13.010  70.789  1.00  0.00    -0.384 A  
HETATM   20  C   UNL     1     -13.368  12.778  71.820  1.00  0.00    -0.436 A  
HETATM   21  C   UNL     1     -12.104  14.331  70.465  1.00  0.00    -0.413 A  
HETATM   22  C   UNL     1     -12.667  15.402  71.161  1.00  0.00    -0.503 A  
HETATM   23  H   UNL     1     -14.751  15.992  73.605  1.00  0.00     0.000 HD 
HETATM   24  C   UNL     1     -13.932  13.848  72.515  1.00  0.00    -0.565 A  
HETATM   25  C   UNL     1     -13.573  15.149  72.186  1.00  0.00    -0.455 A  
HETATM   26  O   UNL     1     -14.132  16.165  72.905  1.00  0.00    -0.456 OA 
ENDBRANCH  18  19
ENDBRANCH  17  18
ENDBRANCH   2  17
TORSDOF 7
ENDMDL
MODEL      160
REMARK 921   NORMALIZED FREE ENERGY PREDICTED BY IDOCK:   -4.83 KCAL/MOL
REMARK 922        TOTAL FREE ENERGY PREDICTED BY IDOCK:   -7.98 KCAL/MOL
REMARK 923 INTER-LIGAND FREE ENERGY PREDICTED BY IDOCK:   -7.23 KCAL/MOL
REMARK 924 INTRA-LIGAND FREE ENERGY PREDICTED BY IDOCK:   -0.75 KCAL/MOL
REMARK 927      BINDING AFFINITY PREDICTED BY RF-SCORE:    0.00 PKD
ROOT
HETATM    1  C   UNL     1      -9.707  10.642  69.370  1.00  0.00    -0.141 C  
HETATM    2  C   UNL     1     -11.047  10.103  68.856  1.00  0.00    -0.207 C  
ENDROOT
BRANCH   2   3
HETATM    3  N   UNL     1     -10.871   9.110  67.784  1.00  0.00    -0.484 NA 
HETATM    4  H   UNL     1     -10.486   9.556  66.951  1.00  0.00     0.000 HD 
BRANCH   3   5
HETATM    5  C   UNL     1     -10.065   7.935  68.148  1.00  0.00    -0.191 C  
BRANCH   5   6
HETATM    6  C   UNL     1     -10.889   6.665  68.401  1.00  0.00    -0.320 C  
BRANCH   6   7
HETATM    7  C   UNL     1     -10.937   6.285  69.861  1.00  0.00    -0.435 A  
HETATM    8  C   UNL     1     -11.099   5.545  72.544  1.00  0.00    -0.270 A  
HETATM    9  C   UNL     1     -10.133   4.973  71.719  1.00  0.00    -0.200 A  
HETATM   10  O   UNL     1     -11.195   5.161  73.851  1.00  0.00    -0.410 OA 
HETATM   11  C   UNL     1     -11.978   6.498  72.053  1.00  0.00    -0.372 A  
HETATM   12  H   UNL     1      -9.362   3.791  73.186  1.00  0.00     0.000 HD 
HETATM   13  C   UNL     1     -10.041   5.339  70.380  1.00  0.00    -0.324 A  
HETATM   14  O   UNL     1      -9.298   4.041  72.272  1.00  0.00    -0.117 OA 
HETATM   15  C   UNL     1     -11.893   6.871  70.709  1.00  0.00    -0.427 A  
HETATM   16  H   UNL     1     -11.854   5.551  74.414  1.00  0.00     0.000 HD 
ENDBRANCH   6   7
ENDBRANCH   5   6
ENDBRANCH   3   5
ENDBRANCH   2   3
BRANCH   2  17
HETATM   17  C   UNL     1     -11.906  11.279  68.349  1.00  0.00    -0.331 C  
BRANCH  17  18
HETATM   18  C   UNL     1     -11.409  12.649  68.828  1.00  0.00    -0.333 C  
BRANCH  18  19
HETATM   19  C   UNL     1     -11.207  13.584  67.658  1.00  0.00    -0.304 A  
HETATM   20  C   UNL     1     -11.986  13.454  66.500  1.00  0.00    -0.452 A  
HETATM   21  C   UNL     1     -10.271  14.625  67.738  1.00  0.00    -0.229 A  
HETATM   22  C   UNL     1     -10.119  15.526  66.682  1.00  0.00    -0.275 A  
HETATM   23  H   UNL     1     -11.345  16.157  63.721  1.00  0.00     0.000 HD 
HETATM   24  C   UNL     1     -11.833  14.354  65.443  1.00  0.00    -0.366 A  
HETATM   25  C   UNL     1     -10.908  15.385  65.545  1.00  0.00    -0.374 A  
HETATM   26  O   UNL     1     -10.806  16.254  64.498  1.00  0.00    -0.668 OA 
ENDBRANCH  18  19
ENDBRANCH  17  18
ENDBRANCH   2  17
TORSDOF 7
ENDMDL
MODEL      161
REMARK 921   NORMALIZED FREE ENERGY PREDICTED BY IDOCK:   -4.83 KCAL/MOL
REMARK 922        TOTAL FREE ENERGY PREDICTED BY IDOCK:   -7.96 KCAL/MOL
REMARK 923 INTER-LIGAND FREE ENERGY PREDICTED BY IDOCK:   -7.17 KCAL/MOL
REMARK 924 INTRA-LIGAND FREE ENERGY PREDICTED BY IDOCK:   -0.79 KCAL/MOL
REMARK 927      BINDING AFFINITY PREDICTED BY RF-SCORE:    0.00 PKD
ROOT
HETATM    1  C   UNL     1     -11.790  14.059  66.200  1.00  0.00    -0.422 C  
HETATM    2  C   UNL     1     -11.231  14.099  67.626  1.00  0.00    -0.297 C  
ENDROOT
BRANCH   2   3
HETATM    3  N   UNL     1      -9.973  13.345  67.752  1.00  0.00    -0.227 NA 
HETATM    4  H   UNL     1      -9.774  12.848  66.884  1.00  0.00     0.000 HD 
BRANCH   3   5
HETATM    5  C   UNL     1      -8.805  14.142  68.158  1.00  0.00    -0.183 C  
BRANCH   5   6
HETATM    6  C   UNL     1      -8.274  15.077  67.062  1.00  0.00    -0.246 C  
BRANCH   6   7
HETATM    7  C   UNL     1      -8.758  16.497  67.225  1.00  0.00    -0.204 A  
HETATM    8  C   UNL     1      -9.573  19.147  67.517  1.00  0.00    -0.310 A  
HETATM    9  C   UNL     1      -9.940  18.425  66.385  1.00  0.00    -0.386 A  
HETATM   10  O   UNL     1      -9.949  20.454  67.646  1.00  0.00    -0.415 OA 
HETATM   11  C   UNL     1      -8.817  18.559  68.519  1.00  0.00    -0.351 A  
HETATM   12  H   UNL     1     -10.959  19.972  65.542  1.00  0.00     0.000 HD 
HETATM   13  C   UNL     1      -9.542  17.100  66.231  1.00  0.00    -0.273 A  
HETATM   14  O   UNL     1     -10.688  19.068  65.437  1.00  0.00    -0.520 OA 
HETATM   15  C   UNL     1      -8.412  17.230  68.374  1.00  0.00    -0.254 A  
HETATM   16  H   UNL     1      -9.698  20.947  68.419  1.00  0.00     0.000 HD 
ENDBRANCH   6   7
ENDBRANCH   5   6
ENDBRANCH   3   5
ENDBRANCH   2   3
BRANCH   2  17
HETATM   17  C   UNL     1     -12.284  13.533  68.600  1.00  0.00    -0.172 C  
BRANCH  17  18
HETATM   18  C   UNL     1     -11.764  13.368  70.034  1.00  0.00    -0.297 C  
BRANCH  18  19
HETATM   19  C   UNL     1     -12.042  11.973  70.547  1.00  0.00    -0.402 A  
HETATM   20  C   UNL     1     -13.012  11.758  71.535  1.00  0.00    -0.446 A  
HETATM   21  C   UNL     1     -11.366  10.872  70.001  1.00  0.00    -0.386 A  
HETATM   22  C   UNL     1     -11.659   9.576  70.430  1.00  0.00    -0.268 A  
HETATM   23  H   UNL     1     -13.626   8.001  72.508  1.00  0.00     0.000 HD 
HETATM   24  C   UNL     1     -13.304  10.462  71.966  1.00  0.00    -0.440 A  
HETATM   25  C   UNL     1     -12.631   9.383  71.407  1.00  0.00    -0.348 A  
HETATM   26  O   UNL     1     -12.961   8.133  71.841  1.00  0.00    -0.324 OA 
ENDBRANCH  18  19
ENDBRANCH  17  18
ENDBRANCH   2  17
TORSDOF 7
ENDMDL
MODEL      162
REMARK 921   NORMALIZED FREE ENERGY PREDICTED BY IDOCK:   -4.80 KCAL/MOL
REMARK 922        TOTAL FREE ENERGY PREDICTED BY IDOCK:   -7.93 KCAL/MOL
REMARK 923 INTER-LIGAND FREE ENERGY PREDICTED BY IDOCK:   -6.90 KCAL/MOL
REMARK 924 INTRA-LIGAND FREE ENERGY PREDICTED BY IDOCK:   -1.03 KCAL/MOL
REMARK 927      BINDING AFFINITY PREDICTED BY RF-SCORE:    0.00 PKD
ROOT
HETATM    1  C   UNL     1     -13.760  14.952  71.662  1.00  0.00    -0.527 C  
HETATM    2  C   UNL     1     -12.868  14.262  70.625  1.00  0.00    -0.314 C  
ENDROOT
BRANCH   2   3
HETATM    3  N   UNL     1     -12.225  13.052  71.162  1.00  0.00    -0.368 NA 
HETATM    4  H   UNL     1     -12.531  12.888  72.121  1.00  0.00     0.000 HD 
BRANCH   3   5
HETATM    5  C   UNL     1     -12.410  11.836  70.356  1.00  0.00    -0.277 C  
BRANCH   5   6
HETATM    6  C   UNL     1     -12.728  10.581  71.181  1.00  0.00    -0.518 C  
BRANCH   6   7
HETATM    7  C   UNL     1     -11.534   9.672  71.338  1.00  0.00    -0.455 A  
HETATM    8  C   UNL     1      -9.375   7.927  71.600  1.00  0.00    -0.148 A  
HETATM    9  C   UNL     1      -9.335   8.949  70.655  1.00  0.00    -0.212 A  
HETATM   10  O   UNL     1      -8.329   7.056  71.708  1.00  0.00    -0.110 OA 
HETATM   11  C   UNL     1     -10.472   7.772  72.432  1.00  0.00    -0.321 A  
HETATM   12  H   UNL     1      -7.490   8.444  69.962  1.00  0.00     0.000 HD 
HETATM   13  C   UNL     1     -10.406   9.828  70.520  1.00  0.00    -0.348 A  
HETATM   14  O   UNL     1      -8.220   9.044  69.869  1.00  0.00    -0.106 OA 
HETATM   15  C   UNL     1     -11.552   8.649  72.303  1.00  0.00    -0.424 A  
HETATM   16  H   UNL     1      -8.355   6.358  72.352  1.00  0.00     0.000 HD 
ENDBRANCH   6   7
ENDBRANCH   5   6
ENDBRANCH   3   5
ENDBRANCH   2   3
BRANCH   2  17
HETATM   17  C   UNL     1     -11.796  15.256  70.135  1.00  0.00    -0.356 C  
BRANCH  17  18
HETATM   18  C   UNL     1     -11.747  15.398  68.608  1.00  0.00    -0.371 C  
BRANCH  18  19
HETATM   19  C   UNL     1     -11.289  14.110  67.965  1.00  0.00    -0.324 A  
HETATM   20  C   UNL     1     -12.080  13.476  66.996  1.00  0.00    -0.401 A  
HETATM   21  C   UNL     1     -10.042  13.559  68.295  1.00  0.00    -0.247 A  
HETATM   22  C   UNL     1      -9.588  12.399  67.663  1.00  0.00    -0.193 A  
HETATM   23  H   UNL     1     -10.517  10.252  65.384  1.00  0.00     0.000 HD 
HETATM   24  C   UNL     1     -11.628  12.315  66.366  1.00  0.00    -0.445 A  
HETATM   25  C   UNL     1     -10.385  11.791  66.699  1.00  0.00    -0.218 A  
HETATM   26  O   UNL     1      -9.973  10.668  66.043  1.00  0.00    -0.220 OA 
ENDBRANCH  18  19
ENDBRANCH  17  18
ENDBRANCH   2  17
TORSDOF 7
ENDMDL
MODEL      163
REMARK 921   NORMALIZED FREE ENERGY PREDICTED BY IDOCK:   -4.80 KCAL/MOL
REMARK 922        TOTAL FREE ENERGY PREDICTED BY IDOCK:   -7.93 KCAL/MOL
REMARK 923 INTER-LIGAND FREE ENERGY PREDICTED BY IDOCK:   -6.89 KCAL/MOL
REMARK 924 INTRA-LIGAND FREE ENERGY PREDICTED BY IDOCK:   -1.04 KCAL/MOL
REMARK 927      BINDING AFFINITY PREDICTED BY RF-SCORE:    0.00 PKD
ROOT
HETATM    1  C   UNL     1     -11.791  12.999  65.694  1.00  0.00    -0.445 C  
HETATM    2  C   UNL     1     -11.058  13.509  66.939  1.00  0.00    -0.296 C  
ENDROOT
BRANCH   2   3
HETATM    3  N   UNL     1     -10.088  12.530  67.453  1.00  0.00    -0.209 NA 
HETATM    4  H   UNL     1     -10.209  12.409  68.459  1.00  0.00     0.000 HD 
BRANCH   3   5
HETATM    5  C   UNL     1     -10.105  11.222  66.780  1.00  0.00    -0.219 C  
BRANCH   5   6
HETATM    6  C   UNL     1     -10.761  10.104  67.602  1.00  0.00    -0.339 C  
BRANCH   6   7
HETATM    7  C   UNL     1      -9.915   9.670  68.773  1.00  0.00    -0.184 A  
HETATM    8  C   UNL     1      -8.305   8.939  70.929  1.00  0.00    -0.182 A  
HETATM    9  C   UNL     1      -9.649   9.243  71.133  1.00  0.00    -0.234 A  
HETATM   10  O   UNL     1      -7.511   8.608  71.990  1.00  0.00    -0.199 OA 
HETATM   11  C   UNL     1      -7.753   8.977  69.658  1.00  0.00    -0.075 A  
HETATM   12  H   UNL     1      -9.571   8.935  73.143  1.00  0.00     0.000 HD 
HETATM   13  C   UNL     1     -10.462   9.604  70.063  1.00  0.00    -0.301 A  
HETATM   14  O   UNL     1     -10.126   9.182  72.413  1.00  0.00    -0.008 OA 
HETATM   15  C   UNL     1      -8.562   9.340  68.578  1.00  0.00    -0.128 A  
HETATM   16  H   UNL     1      -6.594   8.401  71.852  1.00  0.00     0.000 HD 
ENDBRANCH   6   7
ENDBRANCH   5   6
ENDBRANCH   3   5
ENDBRANCH   2   3
BRANCH   2  17
HETATM   17  C   UNL     1     -12.091  13.851  68.032  1.00  0.00    -0.318 C  
BRANCH  17  18
HETATM   18  C   UNL     1     -11.858  13.100  69.349  1.00  0.00    -0.383 C  
BRANCH  18  19
HETATM   19  C   UNL     1     -12.237  13.963  70.531  1.00  0.00    -0.443 A  
HETATM   20  C   UNL     1     -11.872  15.316  70.571  1.00  0.00    -0.363 A  
HETATM   21  C   UNL     1     -13.003  13.431  71.578  1.00  0.00    -0.429 A  
HETATM   22  C   UNL     1     -13.404  14.237  72.646  1.00  0.00    -0.619 A  
HETATM   23  H   UNL     1     -13.175  17.324  73.687  1.00  0.00     0.000 HD 
HETATM   24  C   UNL     1     -12.271  16.122  71.639  1.00  0.00    -0.424 A  
HETATM   25  C   UNL     1     -13.038  15.579  72.662  1.00  0.00    -0.459 A  
HETATM   26  O   UNL     1     -13.424  16.407  73.676  1.00  0.00    -0.631 OA 
ENDBRANCH  18  19
ENDBRANCH  17  18
ENDBRANCH   2  17
TORSDOF 7
ENDMDL
MODEL      164
REMARK 921   NORMALIZED FREE ENERGY PREDICTED BY IDOCK:   -4.80 KCAL/MOL
REMARK 922        TOTAL FREE ENERGY PREDICTED BY IDOCK:   -7.93 KCAL/MOL
REMARK 923 INTER-LIGAND FREE ENERGY PREDICTED BY IDOCK:   -7.28 KCAL/MOL
REMARK 924 INTRA-LIGAND FREE ENERGY PREDICTED BY IDOCK:   -0.65 KCAL/MOL
REMARK 927      BINDING AFFINITY PREDICTED BY RF-SCORE:    0.00 PKD
ROOT
HETATM    1  C   UNL     1     -11.173  13.666  65.955  1.00  0.00    -0.311 C  
HETATM    2  C   UNL     1     -10.530  13.674  67.346  1.00  0.00    -0.251 C  
ENDROOT
BRANCH   2   3
HETATM    3  N   UNL     1     -10.274  12.314  67.847  1.00  0.00    -0.196 NA 
HETATM    4  H   UNL     1     -11.006  11.679  67.529  1.00  0.00     0.000 HD 
BRANCH   3   5
HETATM    5  C   UNL     1      -8.950  11.766  67.516  1.00  0.00    -0.168 C  
BRANCH   5   6
HETATM    6  C   UNL     1      -8.939  10.247  67.295  1.00  0.00    -0.140 C  
BRANCH   6   7
HETATM    7  C   UNL     1      -9.384   9.479  68.514  1.00  0.00    -0.138 A  
HETATM    8  C   UNL     1     -10.256   8.124  70.790  1.00  0.00    -0.194 A  
HETATM    9  C   UNL     1     -10.616   7.667  69.525  1.00  0.00    -0.227 A  
HETATM   10  O   UNL     1     -10.706   7.475  71.904  1.00  0.00    -0.213 OA 
HETATM   11  C   UNL     1      -9.448   9.241  70.938  1.00  0.00    -0.330 A  
HETATM   12  H   UNL     1     -11.709   6.103  70.234  1.00  0.00     0.000 HD 
HETATM   13  C   UNL     1     -10.183   8.333  68.382  1.00  0.00    -0.242 A  
HETATM   14  O   UNL     1     -11.413   6.557  69.454  1.00  0.00    -0.355 OA 
HETATM   15  C   UNL     1      -9.009   9.917  69.797  1.00  0.00    -0.242 A  
HETATM   16  H   UNL     1     -10.460   7.787  72.768  1.00  0.00     0.000 HD 
ENDBRANCH   6   7
ENDBRANCH   5   6
ENDBRANCH   3   5
ENDBRANCH   2   3
BRANCH   2  17
HETATM   17  C   UNL     1     -11.448  14.432  68.325  1.00  0.00    -0.333 C  
BRANCH  17  18
HETATM   18  C   UNL     1     -12.047  13.537  69.419  1.00  0.00    -0.340 C  
BRANCH  18  19
HETATM   19  C   UNL     1     -12.213  14.308  70.708  1.00  0.00    -0.423 A  
HETATM   20  C   UNL     1     -11.470  15.472  70.944  1.00  0.00    -0.410 A  
HETATM   21  C   UNL     1     -13.153  13.893  71.663  1.00  0.00    -0.446 A  
HETATM   22  C   UNL     1     -13.352  14.632  72.831  1.00  0.00    -0.585 A  
HETATM   23  H   UNL     1     -12.277  17.341  74.304  1.00  0.00     0.000 HD 
HETATM   24  C   UNL     1     -11.666  16.210  72.113  1.00  0.00    -0.569 A  
HETATM   25  C   UNL     1     -12.609  15.789  73.042  1.00  0.00    -0.483 A  
HETATM   26  O   UNL     1     -12.784  16.551  74.160  1.00  0.00    -0.683 OA 
ENDBRANCH  18  19
ENDBRANCH  17  18
ENDBRANCH   2  17
TORSDOF 7
ENDMDL
MODEL      165
REMARK 921   NORMALIZED FREE ENERGY PREDICTED BY IDOCK:   -4.79 KCAL/MOL
REMARK 922        TOTAL FREE ENERGY PREDICTED BY IDOCK:   -7.91 KCAL/MOL
REMARK 923 INTER-LIGAND FREE ENERGY PREDICTED BY IDOCK:   -6.82 KCAL/MOL
REMARK 924 INTRA-LIGAND FREE ENERGY PREDICTED BY IDOCK:   -1.09 KCAL/MOL
REMARK 927      BINDING AFFINITY PREDICTED BY RF-SCORE:    0.00 PKD
ROOT
HETATM    1  C   UNL     1     -10.527  11.051  63.462  1.00  0.00    -0.365 C  
HETATM    2  C   UNL     1     -11.130  12.143  64.352  1.00  0.00    -0.333 C  
ENDROOT
BRANCH   2   3
HETATM    3  N   UNL     1     -10.273  13.337  64.425  1.00  0.00    -0.602 NA 
HETATM    4  H   UNL     1      -9.727  13.431  63.569  1.00  0.00     0.000 HD 
BRANCH   3   5
HETATM    5  C   UNL     1     -10.978  14.595  64.717  1.00  0.00    -0.386 C  
BRANCH   5   6
HETATM    6  C   UNL     1     -10.102  15.662  65.388  1.00  0.00    -0.370 C  
BRANCH   6   7
HETATM    7  C   UNL     1     -10.484  15.906  66.827  1.00  0.00    -0.309 A  
HETATM    8  C   UNL     1     -11.134  16.301  69.509  1.00  0.00    -0.330 A  
HETATM    9  C   UNL     1     -10.498  17.309  68.790  1.00  0.00    -0.340 A  
HETATM   10  O   UNL     1     -11.427  16.484  70.830  1.00  0.00    -0.566 OA 
HETATM   11  C   UNL     1     -11.468  15.099  68.904  1.00  0.00    -0.337 A  
HETATM   12  H   UNL     1     -10.422  18.595  70.366  1.00  0.00     0.000 HD 
HETATM   13  C   UNL     1     -10.174  17.124  67.449  1.00  0.00    -0.321 A  
HETATM   14  O   UNL     1     -10.200  18.469  69.451  1.00  0.00    -0.163 OA 
HETATM   15  C   UNL     1     -11.146  14.904  67.558  1.00  0.00    -0.319 A  
HETATM   16  H   UNL     1     -11.860  15.796  71.322  1.00  0.00     0.000 HD 
ENDBRANCH   6   7
ENDBRANCH   5   6
ENDBRANCH   3   5
ENDBRANCH   2   3
BRANCH   2  17
HETATM   17  C   UNL     1     -11.363  11.574  65.766  1.00  0.00    -0.160 C  
BRANCH  17  18
HETATM   18  C   UNL     1     -10.080  11.464  66.599  1.00  0.00    -0.247 C  
BRANCH  18  19
HETATM   19  C   UNL     1     -10.172  10.311  67.573  1.00  0.00    -0.254 A  
HETATM   20  C   UNL     1     -10.034   8.990  67.127  1.00  0.00    -0.286 A  
HETATM   21  C   UNL     1     -10.345  10.555  68.943  1.00  0.00    -0.226 A  
HETATM   22  C   UNL     1     -10.374   9.497  69.854  1.00  0.00    -0.265 A  
HETATM   23  H   UNL     1     -10.129   6.242  69.933  1.00  0.00     0.000 HD 
HETATM   24  C   UNL     1     -10.064   7.932  68.037  1.00  0.00    -0.235 A  
HETATM   25  C   UNL     1     -10.227   8.193  69.391  1.00  0.00    -0.211 A  
HETATM   26  O   UNL     1     -10.230   7.132  70.249  1.00  0.00    -0.194 OA 
ENDBRANCH  18  19
ENDBRANCH  17  18
ENDBRANCH   2  17
TORSDOF 7
ENDMDL
MODEL      166
REMARK 921   NORMALIZED FREE ENERGY PREDICTED BY IDOCK:   -4.79 KCAL/MOL
REMARK 922        TOTAL FREE ENERGY PREDICTED BY IDOCK:   -7.91 KCAL/MOL
REMARK 923 INTER-LIGAND FREE ENERGY PREDICTED BY IDOCK:   -7.27 KCAL/MOL
REMARK 924 INTRA-LIGAND FREE ENERGY PREDICTED BY IDOCK:   -0.63 KCAL/MOL
REMARK 927      BINDING AFFINITY PREDICTED BY RF-SCORE:    0.00 PKD
ROOT
HETATM    1  C   UNL     1     -10.534   9.466  70.087  1.00  0.00    -0.280 C  
HETATM    2  C   UNL     1     -11.721  10.351  70.484  1.00  0.00    -0.344 C  
ENDROOT
BRANCH   2   3
HETATM    3  N   UNL     1     -12.924   9.561  70.794  1.00  0.00    -0.550 NA 
HETATM    4  H   UNL     1     -13.145   8.938  70.017  1.00  0.00     0.000 HD 
BRANCH   3   5
HETATM    5  C   UNL     1     -12.864   8.800  72.052  1.00  0.00    -0.390 C  
BRANCH   5   6
HETATM    6  C   UNL     1     -13.178   7.306  71.894  1.00  0.00    -0.289 C  
BRANCH   6   7
HETATM    7  C   UNL     1     -11.935   6.462  71.755  1.00  0.00    -0.370 A  
HETATM    8  C   UNL     1      -9.595   4.973  71.477  1.00  0.00    -0.158 A  
HETATM    9  C   UNL     1     -10.173   5.136  72.733  1.00  0.00    -0.179 A  
HETATM   10  O   UNL     1      -8.434   4.266  71.345  1.00  0.00    -0.094 OA 
HETATM   11  C   UNL     1     -10.179   5.528  70.349  1.00  0.00    -0.321 A  
HETATM   12  H   UNL     1      -8.745   4.054  73.699  1.00  0.00     0.000 HD 
HETATM   13  C   UNL     1     -11.343   5.874  72.882  1.00  0.00    -0.266 A  
HETATM   14  O   UNL     1      -9.544   4.558  73.801  1.00  0.00    -0.122 OA 
HETATM   15  C   UNL     1     -11.354   6.272  70.489  1.00  0.00    -0.428 A  
HETATM   16  H   UNL     1      -8.039   4.154  70.488  1.00  0.00     0.000 HD 
ENDBRANCH   6   7
ENDBRANCH   5   6
ENDBRANCH   3   5
ENDBRANCH   2   3
BRANCH   2  17
HETATM   17  C   UNL     1     -12.021  11.341  69.341  1.00  0.00    -0.410 C  
BRANCH  17  18
HETATM   18  C   UNL     1     -10.763  11.828  68.609  1.00  0.00    -0.252 C  
BRANCH  18  19
HETATM   19  C   UNL     1     -11.105  12.299  67.214  1.00  0.00    -0.326 A  
HETATM   20  C   UNL     1     -10.917  11.455  66.111  1.00  0.00    -0.294 A  
HETATM   21  C   UNL     1     -11.663  13.570  67.014  1.00  0.00    -0.424 A  
HETATM   22  C   UNL     1     -12.033  13.989  65.735  1.00  0.00    -0.417 A  
HETATM   23  H   UNL     1     -12.082  12.910  62.653  1.00  0.00     0.000 HD 
HETATM   24  C   UNL     1     -11.285  11.874  64.831  1.00  0.00    -0.350 A  
HETATM   25  C   UNL     1     -11.845  13.133  64.654  1.00  0.00    -0.370 A  
HETATM   26  O   UNL     1     -12.210  13.495  63.390  1.00  0.00    -0.641 OA 
ENDBRANCH  18  19
ENDBRANCH  17  18
ENDBRANCH   2  17
TORSDOF 7
ENDMDL
MODEL      167
REMARK 921   NORMALIZED FREE ENERGY PREDICTED BY IDOCK:   -4.78 KCAL/MOL
REMARK 922        TOTAL FREE ENERGY PREDICTED BY IDOCK:   -7.90 KCAL/MOL
REMARK 923 INTER-LIGAND FREE ENERGY PREDICTED BY IDOCK:   -7.17 KCAL/MOL
REMARK 924 INTRA-LIGAND FREE ENERGY PREDICTED BY IDOCK:   -0.74 KCAL/MOL
REMARK 927      BINDING AFFINITY PREDICTED BY RF-SCORE:    0.00 PKD
ROOT
HETATM    1  C   UNL     1     -12.346  15.526  70.217  1.00  0.00    -0.431 C  
HETATM    2  C   UNL     1     -11.418  14.309  70.126  1.00  0.00    -0.191 C  
ENDROOT
BRANCH   2   3
HETATM    3  N   UNL     1     -10.012  14.696  69.933  1.00  0.00    -0.375 NA 
HETATM    4  H   UNL     1      -9.463  13.890  69.634  1.00  0.00     0.000 HD 
BRANCH   3   5
HETATM    5  C   UNL     1      -9.795  15.824  69.014  1.00  0.00    -0.240 C  
BRANCH   5   6
HETATM    6  C   UNL     1      -8.318  16.179  68.796  1.00  0.00    -0.231 C  
BRANCH   6   7
HETATM    7  C   UNL     1      -8.132  17.335  67.845  1.00  0.00    -0.210 A  
HETATM    8  C   UNL     1      -7.751  19.515  66.150  1.00  0.00    -0.313 A  
HETATM    9  C   UNL     1      -7.053  18.331  65.931  1.00  0.00    -0.256 A  
HETATM   10  O   UNL     1      -7.543  20.592  65.335  1.00  0.00    -0.520 OA 
HETATM   11  C   UNL     1      -8.654  19.624  67.196  1.00  0.00    -0.357 A  
HETATM   12  H   UNL     1      -6.052  19.042  64.307  1.00  0.00     0.000 HD 
HETATM   13  C   UNL     1      -7.239  17.235  66.768  1.00  0.00    -0.249 A  
HETATM   14  O   UNL     1      -6.179  18.295  64.878  1.00  0.00    -0.295 OA 
HETATM   15  C   UNL     1      -8.847  18.529  68.042  1.00  0.00    -0.317 A  
HETATM   16  H   UNL     1      -8.019  21.401  65.485  1.00  0.00     0.000 HD 
ENDBRANCH   6   7
ENDBRANCH   5   6
ENDBRANCH   3   5
ENDBRANCH   2   3
BRANCH   2  17
HETATM   17  C   UNL     1     -11.880  13.404  68.966  1.00  0.00    -0.378 C  
BRANCH  17  18
HETATM   18  C   UNL     1     -12.330  14.185  67.724  1.00  0.00    -0.050 C  
BRANCH  18  19
HETATM   19  C   UNL     1     -11.726  13.591  66.472  1.00  0.00    -0.408 A  
HETATM   20  C   UNL     1     -10.469  12.974  66.511  1.00  0.00    -0.284 A  
HETATM   21  C   UNL     1     -12.442  13.607  65.266  1.00  0.00    -0.517 A  
HETATM   22  C   UNL     1     -11.914  13.011  64.119  1.00  0.00    -0.494 A  
HETATM   23  H   UNL     1      -9.272  11.365  63.133  1.00  0.00     0.000 HD 
HETATM   24  C   UNL     1      -9.939  12.379  65.364  1.00  0.00    -0.253 A  
HETATM   25  C   UNL     1     -10.668  12.396  64.181  1.00  0.00    -0.379 A  
HETATM   26  O   UNL     1     -10.123  11.785  63.090  1.00  0.00    -0.418 OA 
ENDBRANCH  18  19
ENDBRANCH  17  18
ENDBRANCH   2  17
TORSDOF 7
ENDMDL
MODEL      168
REMARK 921   NORMALIZED FREE ENERGY PREDICTED BY IDOCK:   -4.78 KCAL/MOL
REMARK 922        TOTAL FREE ENERGY PREDICTED BY IDOCK:   -7.90 KCAL/MOL
REMARK 923 INTER-LIGAND FREE ENERGY PREDICTED BY IDOCK:   -6.96 KCAL/MOL
REMARK 924 INTRA-LIGAND FREE ENERGY PREDICTED BY IDOCK:   -0.94 KCAL/MOL
REMARK 927      BINDING AFFINITY PREDICTED BY RF-SCORE:    0.00 PKD
ROOT
HETATM    1  C   UNL     1     -12.920  11.656  71.970  1.00  0.00    -0.365 C  
HETATM    2  C   UNL     1     -12.910  10.746  70.737  1.00  0.00    -0.320 C  
ENDROOT
BRANCH   2   3
HETATM    3  N   UNL     1     -13.031   9.324  71.095  1.00  0.00    -0.496 NA 
HETATM    4  H   UNL     1     -13.214   8.765  70.261  1.00  0.00     0.000 HD 
BRANCH   3   5
HETATM    5  C   UNL     1     -11.890   8.767  71.838  1.00  0.00    -0.367 C  
BRANCH   5   6
HETATM    6  C   UNL     1     -11.511   7.339  71.423  1.00  0.00    -0.294 C  
BRANCH   6   7
HETATM    7  C   UNL     1     -10.852   7.283  70.067  1.00  0.00    -0.271 A  
HETATM    8  C   UNL     1      -9.561   7.165  67.599  1.00  0.00    -0.130 A  
HETATM    9  C   UNL     1     -10.463   6.169  67.963  1.00  0.00    -0.228 A  
HETATM   10  O   UNL     1      -8.908   7.092  66.402  1.00  0.00    -0.135 OA 
HETATM   11  C   UNL     1      -9.305   8.234  68.444  1.00  0.00    -0.136 A  
HETATM   12  H   UNL     1     -10.222   5.110  66.241  1.00  0.00     0.000 HD 
HETATM   13  C   UNL     1     -11.116   6.220  69.190  1.00  0.00    -0.457 A  
HETATM   14  O   UNL     1     -10.667   5.145  67.079  1.00  0.00    -0.197 OA 
HETATM   15  C   UNL     1      -9.956   8.294  69.678  1.00  0.00    -0.193 A  
HETATM   16  H   UNL     1      -8.292   7.772  66.153  1.00  0.00     0.000 HD 
ENDBRANCH   6   7
ENDBRANCH   5   6
ENDBRANCH   3   5
ENDBRANCH   2   3
BRANCH   2  17
HETATM   17  C   UNL     1     -11.609  10.981  69.943  1.00  0.00    -0.416 C  
BRANCH  17  18
HETATM   18  C   UNL     1     -11.418  12.437  69.499  1.00  0.00    -0.309 C  
BRANCH  18  19
HETATM   19  C   UNL     1     -11.458  12.546  67.992  1.00  0.00    -0.368 A  
HETATM   20  C   UNL     1     -10.922  11.529  67.190  1.00  0.00    -0.338 A  
HETATM   21  C   UNL     1     -12.077  13.644  67.379  1.00  0.00    -0.375 A  
HETATM   22  C   UNL     1     -12.167  13.723  65.988  1.00  0.00    -0.495 A  
HETATM   23  H   UNL     1     -11.356  12.027  63.317  1.00  0.00     0.000 HD 
HETATM   24  C   UNL     1     -11.010  11.608  65.799  1.00  0.00    -0.329 A  
HETATM   25  C   UNL     1     -11.636  12.699  65.210  1.00  0.00    -0.351 A  
HETATM   26  O   UNL     1     -11.718  12.727  63.848  1.00  0.00    -0.386 OA 
ENDBRANCH  18  19
ENDBRANCH  17  18
ENDBRANCH   2  17
TORSDOF 7
ENDMDL
MODEL      169
REMARK 921   NORMALIZED FREE ENERGY PREDICTED BY IDOCK:   -4.76 KCAL/MOL
REMARK 922        TOTAL FREE ENERGY PREDICTED BY IDOCK:   -7.87 KCAL/MOL
REMARK 923 INTER-LIGAND FREE ENERGY PREDICTED BY IDOCK:   -6.89 KCAL/MOL
REMARK 924 INTRA-LIGAND FREE ENERGY PREDICTED BY IDOCK:   -0.99 KCAL/MOL
REMARK 927      BINDING AFFINITY PREDICTED BY RF-SCORE:    0.00 PKD
ROOT
HETATM    1  C   UNL     1      -7.119  12.923  67.268  1.00  0.00    -0.071 C  
HETATM    2  C   UNL     1      -8.280  12.999  68.266  1.00  0.00    -0.150 C  
ENDROOT
BRANCH   2   3
HETATM    3  N   UNL     1      -8.999  11.720  68.380  1.00  0.00    -0.208 NA 
HETATM    4  H   UNL     1      -8.509  11.097  69.022  1.00  0.00     0.000 HD 
BRANCH   3   5
HETATM    5  C   UNL     1     -10.415  11.832  68.764  1.00  0.00    -0.198 C  
BRANCH   5   6
HETATM    6  C   UNL     1     -11.207  10.526  68.618  1.00  0.00    -0.328 C  
BRANCH   6   7
HETATM    7  C   UNL     1     -11.226   9.712  69.889  1.00  0.00    -0.244 A  
HETATM    8  C   UNL     1     -11.332   8.171  72.210  1.00  0.00    -0.364 A  
HETATM    9  C   UNL     1     -10.316   7.965  71.282  1.00  0.00    -0.191 A  
HETATM   10  O   UNL     1     -11.399   7.397  73.333  1.00  0.00    -0.589 OA 
HETATM   11  C   UNL     1     -12.292   9.151  72.006  1.00  0.00    -0.448 A  
HETATM   12  H   UNL     1      -9.446   6.460  72.340  1.00  0.00     0.000 HD 
HETATM   13  C   UNL     1     -10.251   8.732  70.122  1.00  0.00    -0.207 A  
HETATM   14  O   UNL     1      -9.402   6.983  71.549  1.00  0.00    -0.154 OA 
HETATM   15  C   UNL     1     -12.236   9.925  70.845  1.00  0.00    -0.420 A  
HETATM   16  H   UNL     1     -12.094   7.537  73.967  1.00  0.00     0.000 HD 
ENDBRANCH   6   7
ENDBRANCH   5   6
ENDBRANCH   3   5
ENDBRANCH   2   3
BRANCH   2  17
HETATM   17  C   UNL     1      -9.252  14.113  67.830  1.00  0.00    -0.193 C  
BRANCH  17  18
HETATM   18  C   UNL     1      -9.173  14.442  66.333  1.00  0.00    -0.242 C  
BRANCH  18  19
HETATM   19  C   UNL     1     -10.264  13.726  65.570  1.00  0.00    -0.332 A  
HETATM   20  C   UNL     1     -11.608  13.881  65.936  1.00  0.00    -0.348 A  
HETATM   21  C   UNL     1      -9.946  12.938  64.454  1.00  0.00    -0.159 A  
HETATM   22  C   UNL     1     -10.954  12.320  63.711  1.00  0.00    -0.495 A  
HETATM   23  H   UNL     1     -14.207  12.041  63.634  1.00  0.00     0.000 HD 
HETATM   24  C   UNL     1     -12.616  13.261  65.195  1.00  0.00    -0.512 A  
HETATM   25  C   UNL     1     -12.282  12.493  64.087  1.00  0.00    -0.467 A  
HETATM   26  O   UNL     1     -13.299  11.923  63.378  1.00  0.00    -0.569 OA 
ENDBRANCH  18  19
ENDBRANCH  17  18
ENDBRANCH   2  17
TORSDOF 7
ENDMDL
MODEL      170
REMARK 921   NORMALIZED FREE ENERGY PREDICTED BY IDOCK:   -4.76 KCAL/MOL
REMARK 922        TOTAL FREE ENERGY PREDICTED BY IDOCK:   -7.87 KCAL/MOL
REMARK 923 INTER-LIGAND FREE ENERGY PREDICTED BY IDOCK:   -5.91 KCAL/MOL
REMARK 924 INTRA-LIGAND FREE ENERGY PREDICTED BY IDOCK:   -1.96 KCAL/MOL
REMARK 927      BINDING AFFINITY PREDICTED BY RF-SCORE:    0.00 PKD
ROOT
HETATM    1  C   UNL     1      -7.263   8.549  65.383  1.00  0.00    -0.083 C  
HETATM    2  C   UNL     1      -8.782   8.360  65.289  1.00  0.00    -0.113 C  
ENDROOT
BRANCH   2   3
HETATM    3  N   UNL     1      -9.373   9.149  64.196  1.00  0.00    -0.311 NA 
HETATM    4  H   UNL     1     -10.312   9.455  64.451  1.00  0.00     0.000 HD 
BRANCH   3   5
HETATM    5  C   UNL     1      -8.570  10.298  63.750  1.00  0.00    -0.187 C  
BRANCH   5   6
HETATM    6  C   UNL     1      -9.303  11.234  62.780  1.00  0.00    -0.362 C  
BRANCH   6   7
HETATM    7  C   UNL     1     -10.379  12.046  63.458  1.00  0.00    -0.492 A  
HETATM    8  C   UNL     1     -12.367  13.491  64.774  1.00  0.00    -0.392 A  
HETATM    9  C   UNL     1     -11.104  14.049  64.591  1.00  0.00    -0.382 A  
HETATM   10  O   UNL     1     -13.331  14.189  65.444  1.00  0.00    -0.705 OA 
HETATM   11  C   UNL     1     -12.660  12.225  64.294  1.00  0.00    -0.470 A  
HETATM   12  H   UNL     1     -11.567  15.789  65.540  1.00  0.00     0.000 HD 
HETATM   13  C   UNL     1     -10.106  13.338  63.931  1.00  0.00     0.519 A  
HETATM   14  O   UNL     1     -10.886  15.304  65.090  1.00  0.00    -0.370 OA 
HETATM   15  C   UNL     1     -11.665  11.503  63.630  1.00  0.00    -0.278 A  
HETATM   16  H   UNL     1     -14.193  13.809  65.570  1.00  0.00     0.000 HD 
ENDBRANCH   6   7
ENDBRANCH   5   6
ENDBRANCH   3   5
ENDBRANCH   2   3
BRANCH   2  17
HETATM   17  C   UNL     1      -9.426   8.755  66.632  1.00  0.00    -0.263 C  
BRANCH  17  18
HETATM   18  C   UNL     1      -8.685   9.886  67.357  1.00  0.00    -0.129 C  
BRANCH  18  19
HETATM   19  C   UNL     1      -9.609  11.055  67.610  1.00  0.00    -0.181 A  
HETATM   20  C   UNL     1     -10.977  10.846  67.833  1.00  0.00    -0.325 A  
HETATM   21  C   UNL     1      -9.098  12.359  67.675  1.00  0.00    -0.186 A  
HETATM   22  C   UNL     1      -9.937  13.437  67.964  1.00  0.00    -0.239 A  
HETATM   23  H   UNL     1     -13.066  14.072  68.649  1.00  0.00     0.000 HD 
HETATM   24  C   UNL     1     -11.817  11.924  68.120  1.00  0.00    -0.338 A  
HETATM   25  C   UNL     1     -11.290  13.208  68.190  1.00  0.00    -0.292 A  
HETATM   26  O   UNL     1     -12.142  14.229  68.495  1.00  0.00    -0.329 OA 
ENDBRANCH  18  19
ENDBRANCH  17  18
ENDBRANCH   2  17
TORSDOF 7
ENDMDL
MODEL      171
REMARK 921   NORMALIZED FREE ENERGY PREDICTED BY IDOCK:   -4.76 KCAL/MOL
REMARK 922        TOTAL FREE ENERGY PREDICTED BY IDOCK:   -7.87 KCAL/MOL
REMARK 923 INTER-LIGAND FREE ENERGY PREDICTED BY IDOCK:   -7.03 KCAL/MOL
REMARK 924 INTRA-LIGAND FREE ENERGY PREDICTED BY IDOCK:   -0.84 KCAL/MOL
REMARK 927      BINDING AFFINITY PREDICTED BY RF-SCORE:    0.00 PKD
ROOT
HETATM    1  C   UNL     1      -9.789   9.904  65.719  1.00  0.00    -0.356 C  
HETATM    2  C   UNL     1     -10.213   9.802  67.189  1.00  0.00    -0.228 C  
ENDROOT
BRANCH   2   3
HETATM    3  N   UNL     1     -11.031   8.607  67.450  1.00  0.00    -0.428 NA 
HETATM    4  H   UNL     1     -11.559   8.354  66.615  1.00  0.00     0.000 HD 
BRANCH   3   5
HETATM    5  C   UNL     1     -10.289   7.440  67.953  1.00  0.00    -0.204 C  
BRANCH   5   6
HETATM    6  C   UNL     1     -11.147   6.452  68.754  1.00  0.00    -0.404 C  
BRANCH   6   7
HETATM    7  C   UNL     1     -10.988   6.621  70.245  1.00  0.00    -0.355 A  
HETATM    8  C   UNL     1     -10.778   6.922  73.009  1.00  0.00    -0.297 A  
HETATM    9  C   UNL     1     -10.221   5.809  72.384  1.00  0.00    -0.190 A  
HETATM   10  O   UNL     1     -10.699   7.054  74.366  1.00  0.00    -0.482 OA 
HETATM   11  C   UNL     1     -11.426   7.900  72.272  1.00  0.00    -0.403 A  
HETATM   12  H   UNL     1      -9.530   4.993  74.115  1.00  0.00     0.000 HD 
HETATM   13  C   UNL     1     -10.316   5.652  71.005  1.00  0.00    -0.297 A  
HETATM   14  O   UNL     1      -9.594   4.885  73.174  1.00  0.00    -0.136 OA 
HETATM   15  C   UNL     1     -11.528   7.750  70.886  1.00  0.00    -0.294 A  
HETATM   16  H   UNL     1     -11.079   7.813  74.793  1.00  0.00     0.000 HD 
ENDBRANCH   6   7
ENDBRANCH   5   6
ENDBRANCH   3   5
ENDBRANCH   2   3
BRANCH   2  17
HETATM   17  C   UNL     1     -10.995  11.072  67.581  1.00  0.00    -0.332 C  
BRANCH  17  18
HETATM   18  C   UNL     1     -11.777  10.927  68.892  1.00  0.00    -0.376 C  
BRANCH  18  19
HETATM   19  C   UNL     1     -12.045  12.281  69.507  1.00  0.00    -0.260 A  
HETATM   20  C   UNL     1     -12.066  13.434  68.711  1.00  0.00    -0.281 A  
HETATM   21  C   UNL     1     -12.328  12.393  70.877  1.00  0.00    -0.358 A  
HETATM   22  C   UNL     1     -12.632  13.633  71.441  1.00  0.00    -0.415 A  
HETATM   23  H   UNL     1     -12.982  16.765  70.583  1.00  0.00     0.000 HD 
HETATM   24  C   UNL     1     -12.368  14.676  69.274  1.00  0.00    -0.160 A  
HETATM   25  C   UNL     1     -12.655  14.764  70.631  1.00  0.00    -0.354 A  
HETATM   26  O   UNL     1     -12.966  15.993  71.136  1.00  0.00    -0.418 OA 
ENDBRANCH  18  19
ENDBRANCH  17  18
ENDBRANCH   2  17
TORSDOF 7
ENDMDL
MODEL      172
REMARK 921   NORMALIZED FREE ENERGY PREDICTED BY IDOCK:   -4.76 KCAL/MOL
REMARK 922        TOTAL FREE ENERGY PREDICTED BY IDOCK:   -7.87 KCAL/MOL
REMARK 923 INTER-LIGAND FREE ENERGY PREDICTED BY IDOCK:   -6.83 KCAL/MOL
REMARK 924 INTRA-LIGAND FREE ENERGY PREDICTED BY IDOCK:   -1.04 KCAL/MOL
REMARK 927      BINDING AFFINITY PREDICTED BY RF-SCORE:    0.00 PKD
ROOT
HETATM    1  C   UNL     1      -9.993  14.401  65.495  1.00  0.00    -0.359 C  
HETATM    2  C   UNL     1     -11.486  14.359  65.840  1.00  0.00    -0.341 C  
ENDROOT
BRANCH   2   3
HETATM    3  N   UNL     1     -11.798  15.131  67.053  1.00  0.00    -0.160 NA 
HETATM    4  H   UNL     1     -12.469  14.623  67.630  1.00  0.00     0.000 HD 
BRANCH   3   5
HETATM    5  C   UNL     1     -10.633  15.523  67.861  1.00  0.00    -0.274 C  
BRANCH   5   6
HETATM    6  C   UNL     1     -10.294  14.540  68.989  1.00  0.00    -0.227 C  
BRANCH   6   7
HETATM    7  C   UNL     1     -11.189  14.704  70.192  1.00  0.00    -0.230 A  
HETATM    8  C   UNL     1     -12.805  14.941  72.451  1.00  0.00    -0.345 A  
HETATM    9  C   UNL     1     -11.856  15.919  72.167  1.00  0.00    -0.517 A  
HETATM   10  O   UNL     1     -13.577  15.043  73.573  1.00  0.00    -0.569 OA 
HETATM   11  C   UNL     1     -12.974  13.850  71.613  1.00  0.00    -0.433 A  
HETATM   12  H   UNL     1     -12.298  17.041  73.807  1.00  0.00     0.000 HD 
HETATM   13  C   UNL     1     -11.047  15.813  71.040  1.00  0.00    -0.327 A  
HETATM   14  O   UNL     1     -11.746  16.968  73.038  1.00  0.00    -0.228 OA 
HETATM   15  C   UNL     1     -12.166  13.735  70.479  1.00  0.00    -0.440 A  
HETATM   16  H   UNL     1     -14.225  14.376  73.768  1.00  0.00     0.000 HD 
ENDBRANCH   6   7
ENDBRANCH   5   6
ENDBRANCH   3   5
ENDBRANCH   2   3
BRANCH   2  17
HETATM   17  C   UNL     1     -11.924  12.892  66.021  1.00  0.00    -0.505 C  
BRANCH  17  18
HETATM   18  C   UNL     1     -10.927  11.881  65.440  1.00  0.00    -0.352 C  
BRANCH  18  19
HETATM   19  C   UNL     1     -10.779  10.688  66.357  1.00  0.00    -0.198 A  
HETATM   20  C   UNL     1     -10.020   9.577  65.964  1.00  0.00    -0.348 A  
HETATM   21  C   UNL     1     -11.359  10.702  67.634  1.00  0.00    -0.284 A  
HETATM   22  C   UNL     1     -11.179   9.628  68.507  1.00  0.00    -0.005 A  
HETATM   23  H   UNL     1      -9.677   6.732  68.651  1.00  0.00     0.000 HD 
HETATM   24  C   UNL     1      -9.842   8.501  66.836  1.00  0.00    -0.310 A  
HETATM   25  C   UNL     1     -10.415   8.538  68.101  1.00  0.00    -0.182 A  
HETATM   26  O   UNL     1     -10.199   7.476  68.929  1.00  0.00    -0.197 OA 
ENDBRANCH  18  19
ENDBRANCH  17  18
ENDBRANCH   2  17
TORSDOF 7
ENDMDL
MODEL      173
REMARK 921   NORMALIZED FREE ENERGY PREDICTED BY IDOCK:   -4.76 KCAL/MOL
REMARK 922        TOTAL FREE ENERGY PREDICTED BY IDOCK:   -7.87 KCAL/MOL
REMARK 923 INTER-LIGAND FREE ENERGY PREDICTED BY IDOCK:   -6.92 KCAL/MOL
REMARK 924 INTRA-LIGAND FREE ENERGY PREDICTED BY IDOCK:   -0.95 KCAL/MOL
REMARK 927      BINDING AFFINITY PREDICTED BY RF-SCORE:    0.00 PKD
ROOT
HETATM    1  C   UNL     1     -12.357  14.123  63.983  1.00  0.00    -0.315 C  
HETATM    2  C   UNL     1     -11.967  12.714  64.445  1.00  0.00    -0.400 C  
ENDROOT
BRANCH   2   3
HETATM    3  N   UNL     1     -12.181  12.524  65.888  1.00  0.00    -0.624 NA 
HETATM    4  H   UNL     1     -12.225  11.529  66.109  1.00  0.00     0.000 HD 
BRANCH   3   5
HETATM    5  C   UNL     1     -11.201  13.192  66.758  1.00  0.00    -0.299 C  
BRANCH   5   6
HETATM    6  C   UNL     1     -11.712  14.493  67.391  1.00  0.00    -0.425 C  
BRANCH   6   7
HETATM    7  C   UNL     1     -10.704  15.613  67.310  1.00  0.00    -0.305 A  
HETATM    8  C   UNL     1      -8.870  17.701  67.084  1.00  0.00    -0.244 A  
HETATM    9  C   UNL     1      -9.919  17.790  67.995  1.00  0.00    -0.333 A  
HETATM   10  O   UNL     1      -7.989  18.736  66.954  1.00  0.00    -0.240 OA 
HETATM   11  C   UNL     1      -8.711  16.574  66.292  1.00  0.00    -0.369 A  
HETATM   12  H   UNL     1      -9.387  19.639  68.659  1.00  0.00     0.000 HD 
HETATM   13  C   UNL     1     -10.838  16.751  68.119  1.00  0.00    -0.353 A  
HETATM   14  O   UNL     1     -10.014  18.930  68.744  1.00  0.00    -0.391 OA 
HETATM   15  C   UNL     1      -9.628  15.527  66.410  1.00  0.00    -0.317 A  
HETATM   16  H   UNL     1      -7.273  18.676  66.332  1.00  0.00     0.000 HD 
ENDBRANCH   6   7
ENDBRANCH   5   6
ENDBRANCH   3   5
ENDBRANCH   2   3
BRANCH   2  17
HETATM   17  C   UNL     1     -10.489  12.456  64.092  1.00  0.00    -0.415 C  
BRANCH  17  18
HETATM   18  C   UNL     1     -10.266  11.158  63.305  1.00  0.00    -0.403 C  
BRANCH  18  19
HETATM   19  C   UNL     1      -9.463  10.170  64.118  1.00  0.00    -0.353 A  
HETATM   20  C   UNL     1      -9.898   9.775  65.391  1.00  0.00    -0.365 A  
HETATM   21  C   UNL     1      -8.299   9.596  63.586  1.00  0.00    -0.172 A  
HETATM   22  C   UNL     1      -7.584   8.640  64.310  1.00  0.00    -0.120 A  
HETATM   23  H   UNL     1      -7.688   7.051  67.161  1.00  0.00     0.000 HD 
HETATM   24  C   UNL     1      -9.181   8.821  66.116  1.00  0.00    -0.273 A  
HETATM   25  C   UNL     1      -8.036   8.257  65.568  1.00  0.00    -0.128 A  
HETATM   26  O   UNL     1      -7.378   7.313  66.301  1.00  0.00    -0.076 OA 
ENDBRANCH  18  19
ENDBRANCH  17  18
ENDBRANCH   2  17
TORSDOF 7
ENDMDL
MODEL      174
REMARK 921   NORMALIZED FREE ENERGY PREDICTED BY IDOCK:   -4.76 KCAL/MOL
REMARK 922        TOTAL FREE ENERGY PREDICTED BY IDOCK:   -7.87 KCAL/MOL
REMARK 923 INTER-LIGAND FREE ENERGY PREDICTED BY IDOCK:   -7.03 KCAL/MOL
REMARK 924 INTRA-LIGAND FREE ENERGY PREDICTED BY IDOCK:   -0.84 KCAL/MOL
REMARK 927      BINDING AFFINITY PREDICTED BY RF-SCORE:    0.00 PKD
ROOT
HETATM    1  C   UNL     1      -7.245   5.916  66.513  1.00  0.00    -0.074 C  
HETATM    2  C   UNL     1      -8.400   6.543  65.723  1.00  0.00    -0.143 C  
ENDROOT
BRANCH   2   3
HETATM    3  N   UNL     1      -8.058   7.876  65.203  1.00  0.00    -0.138 NA 
HETATM    4  H   UNL     1      -7.783   7.812  64.222  1.00  0.00     0.000 HD 
BRANCH   3   5
HETATM    5  C   UNL     1      -9.103   8.898  65.369  1.00  0.00    -0.163 C  
BRANCH   5   6
HETATM    6  C   UNL     1      -9.126   9.956  64.258  1.00  0.00    -0.297 C  
BRANCH   6   7
HETATM    7  C   UNL     1     -10.180  11.012  64.482  1.00  0.00    -0.406 A  
HETATM    8  C   UNL     1     -12.185  12.912  64.857  1.00  0.00    -0.453 A  
HETATM    9  C   UNL     1     -11.640  12.247  65.952  1.00  0.00    -0.393 A  
HETATM   10  O   UNL     1     -13.187  13.823  65.039  1.00  0.00    -0.733 OA 
HETATM   11  C   UNL     1     -11.731  12.655  63.573  1.00  0.00    -0.604 A  
HETATM   12  H   UNL     1     -12.821  13.199  67.310  1.00  0.00     0.000 HD 
HETATM   13  C   UNL     1     -10.636  11.300  65.776  1.00  0.00    -0.306 A  
HETATM   14  O   UNL     1     -12.135  12.552  67.191  1.00  0.00    -0.504 OA 
HETATM   15  C   UNL     1     -10.724  11.705  63.386  1.00  0.00    -0.460 A  
HETATM   16  H   UNL     1     -13.559  14.276  64.292  1.00  0.00     0.000 HD 
ENDBRANCH   6   7
ENDBRANCH   5   6
ENDBRANCH   3   5
ENDBRANCH   2   3
BRANCH   2  17
HETATM   17  C   UNL     1      -9.644   6.633  66.628  1.00  0.00    -0.207 C  
BRANCH  17  18
HETATM   18  C   UNL     1      -9.553   5.752  67.881  1.00  0.00    -0.124 C  
BRANCH  18  19
HETATM   19  C   UNL     1     -10.183   6.443  69.068  1.00  0.00    -0.216 A  
HETATM   20  C   UNL     1     -10.238   7.842  69.131  1.00  0.00    -0.210 A  
HETATM   21  C   UNL     1     -10.766   5.690  70.098  1.00  0.00    -0.376 A  
HETATM   22  C   UNL     1     -11.399   6.322  71.169  1.00  0.00    -0.364 A  
HETATM   23  H   UNL     1     -12.109   9.320  72.254  1.00  0.00     0.000 HD 
HETATM   24  C   UNL     1     -10.869   8.475  70.204  1.00  0.00    -0.238 A  
HETATM   25  C   UNL     1     -11.449   7.712  71.209  1.00  0.00    -0.269 A  
HETATM   26  O   UNL     1     -12.074   8.370  72.227  1.00  0.00    -0.352 OA 
ENDBRANCH  18  19
ENDBRANCH  17  18
ENDBRANCH   2  17
TORSDOF 7
ENDMDL
MODEL      175
REMARK 921   NORMALIZED FREE ENERGY PREDICTED BY IDOCK:   -4.75 KCAL/MOL
REMARK 922        TOTAL FREE ENERGY PREDICTED BY IDOCK:   -7.86 KCAL/MOL
REMARK 923 INTER-LIGAND FREE ENERGY PREDICTED BY IDOCK:   -6.91 KCAL/MOL
REMARK 924 INTRA-LIGAND FREE ENERGY PREDICTED BY IDOCK:   -0.95 KCAL/MOL
REMARK 927      BINDING AFFINITY PREDICTED BY RF-SCORE:    0.00 PKD
ROOT
HETATM    1  C   UNL     1     -10.387   9.543  69.173  1.00  0.00    -0.218 C  
HETATM    2  C   UNL     1     -11.384  10.145  70.169  1.00  0.00    -0.303 C  
ENDROOT
BRANCH   2   3
HETATM    3  N   UNL     1     -12.323   9.140  70.692  1.00  0.00    -0.490 NA 
HETATM    4  H   UNL     1     -12.153   8.236  70.251  1.00  0.00     0.000 HD 
BRANCH   3   5
HETATM    5  C   UNL     1     -12.332   8.996  72.156  1.00  0.00    -0.372 C  
BRANCH   5   6
HETATM    6  C   UNL     1     -11.768   7.660  72.656  1.00  0.00    -0.323 C  
BRANCH   6   7
HETATM    7  C   UNL     1     -10.335   7.440  72.235  1.00  0.00    -0.251 A  
HETATM    8  C   UNL     1      -7.671   7.011  71.536  1.00  0.00    -0.090 A  
HETATM    9  C   UNL     1      -8.667   6.179  71.031  1.00  0.00    -0.132 A  
HETATM   10  O   UNL     1      -6.363   6.783  71.215  1.00  0.00    -0.040 OA 
HETATM   11  C   UNL     1      -7.986   8.069  72.373  1.00  0.00    -0.168 A  
HETATM   12  H   UNL     1      -7.373   5.014  69.977  1.00  0.00     0.000 HD 
HETATM   13  C   UNL     1     -10.000   6.387  71.370  1.00  0.00    -0.206 A  
HETATM   14  O   UNL     1      -8.283   5.156  70.209  1.00  0.00    -0.087 OA 
HETATM   15  C   UNL     1      -9.322   8.286  72.720  1.00  0.00    -0.338 A  
HETATM   16  H   UNL     1      -5.683   7.350  71.559  1.00  0.00     0.000 HD 
ENDBRANCH   6   7
ENDBRANCH   5   6
ENDBRANCH   3   5
ENDBRANCH   2   3
BRANCH   2  17
HETATM   17  C   UNL     1     -12.161  11.286  69.482  1.00  0.00    -0.325 C  
BRANCH  17  18
HETATM   18  C   UNL     1     -11.431  12.634  69.523  1.00  0.00    -0.294 C  
BRANCH  18  19
HETATM   19  C   UNL     1     -12.058  13.551  70.549  1.00  0.00    -0.409 A  
HETATM   20  C   UNL     1     -11.668  14.894  70.637  1.00  0.00    -0.357 A  
HETATM   21  C   UNL     1     -13.076  13.079  71.390  1.00  0.00    -0.336 A  
HETATM   22  C   UNL     1     -13.698  13.935  72.301  1.00  0.00    -0.660 A  
HETATM   23  H   UNL     1     -13.625  17.051  73.274  1.00  0.00     0.000 HD 
HETATM   24  C   UNL     1     -12.289  15.750  71.549  1.00  0.00    -0.514 A  
HETATM   25  C   UNL     1     -13.301  15.267  72.367  1.00  0.00    -0.435 A  
HETATM   26  O   UNL     1     -13.896  16.142  73.229  1.00  0.00    -0.559 OA 
ENDBRANCH  18  19
ENDBRANCH  17  18
ENDBRANCH   2  17
TORSDOF 7
ENDMDL
MODEL      176
REMARK 921   NORMALIZED FREE ENERGY PREDICTED BY IDOCK:   -4.74 KCAL/MOL
REMARK 922        TOTAL FREE ENERGY PREDICTED BY IDOCK:   -7.84 KCAL/MOL
REMARK 923 INTER-LIGAND FREE ENERGY PREDICTED BY IDOCK:   -7.02 KCAL/MOL
REMARK 924 INTRA-LIGAND FREE ENERGY PREDICTED BY IDOCK:   -0.82 KCAL/MOL
REMARK 927      BINDING AFFINITY PREDICTED BY RF-SCORE:    0.00 PKD
ROOT
HETATM    1  C   UNL     1     -11.635  15.169  68.023  1.00  0.00    -0.345 C  
HETATM    2  C   UNL     1     -10.762  14.526  66.941  1.00  0.00    -0.288 C  
ENDROOT
BRANCH   2   3
HETATM    3  N   UNL     1      -9.747  13.624  67.508  1.00  0.00    -0.222 NA 
HETATM    4  H   UNL     1      -9.727  13.712  68.524  1.00  0.00     0.000 HD 
BRANCH   3   5
HETATM    5  C   UNL     1      -9.885  12.210  67.126  1.00  0.00    -0.197 C  
BRANCH   5   6
HETATM    6  C   UNL     1     -11.297  11.644  67.324  1.00  0.00    -0.372 C  
BRANCH   6   7
HETATM    7  C   UNL     1     -11.460  10.935  68.646  1.00  0.00    -0.380 A  
HETATM    8  C   UNL     1     -11.680   9.645  71.107  1.00  0.00    -0.372 A  
HETATM    9  C   UNL     1     -12.385  10.822  70.872  1.00  0.00    -0.396 A  
HETATM   10  O   UNL     1     -11.767   9.028  72.323  1.00  0.00    -0.334 OA 
HETATM   11  C   UNL     1     -10.877   9.089  70.124  1.00  0.00    -0.261 A  
HETATM   12  H   UNL     1     -13.227  10.869  72.724  1.00  0.00     0.000 HD 
HETATM   13  C   UNL     1     -12.286  11.472  69.645  1.00  0.00    -0.296 A  
HETATM   14  O   UNL     1     -13.159  11.312  71.887  1.00  0.00    -0.493 OA 
HETATM   15  C   UNL     1     -10.771   9.734  68.889  1.00  0.00    -0.241 A  
HETATM   16  H   UNL     1     -11.286   8.225  72.485  1.00  0.00     0.000 HD 
ENDBRANCH   6   7
ENDBRANCH   5   6
ENDBRANCH   3   5
ENDBRANCH   2   3
BRANCH   2  17
HETATM   17  C   UNL     1     -10.078  15.635  66.116  1.00  0.00    -0.333 C  
BRANCH  17  18
HETATM   18  C   UNL     1      -8.599  15.836  66.470  1.00  0.00    -0.343 C  
BRANCH  18  19
HETATM   19  C   UNL     1      -8.312  17.292  66.759  1.00  0.00    -0.276 A  
HETATM   20  C   UNL     1      -7.032  17.700  67.157  1.00  0.00    -0.192 A  
HETATM   21  C   UNL     1      -9.313  18.259  66.583  1.00  0.00    -0.304 A  
HETATM   22  C   UNL     1      -9.039  19.611  66.794  1.00  0.00    -0.424 A  
HETATM   23  H   UNL     1      -6.569  21.571  67.644  1.00  0.00     0.000 HD 
HETATM   24  C   UNL     1      -6.758  19.053  67.371  1.00  0.00    -0.211 A  
HETATM   25  C   UNL     1      -7.759  19.996  67.181  1.00  0.00    -0.292 A  
HETATM   26  O   UNL     1      -7.443  21.308  67.380  1.00  0.00    -0.450 OA 
ENDBRANCH  18  19
ENDBRANCH  17  18
ENDBRANCH   2  17
TORSDOF 7
ENDMDL
MODEL      177
REMARK 921   NORMALIZED FREE ENERGY PREDICTED BY IDOCK:   -4.74 KCAL/MOL
REMARK 922        TOTAL FREE ENERGY PREDICTED BY IDOCK:   -7.84 KCAL/MOL
REMARK 923 INTER-LIGAND FREE ENERGY PREDICTED BY IDOCK:   -6.33 KCAL/MOL
REMARK 924 INTRA-LIGAND FREE ENERGY PREDICTED BY IDOCK:   -1.51 KCAL/MOL
REMARK 927      BINDING AFFINITY PREDICTED BY RF-SCORE:    0.00 PKD
ROOT
HETATM    1  C   UNL     1      -9.497   4.151  67.141  1.00  0.00    -0.215 C  
HETATM    2  C   UNL     1      -9.186   5.084  68.317  1.00  0.00    -0.120 C  
ENDROOT
BRANCH   2   3
HETATM    3  N   UNL     1     -10.159   4.941  69.413  1.00  0.00    -0.219 NA 
HETATM    4  H   UNL     1     -10.669   4.063  69.317  1.00  0.00     0.000 HD 
BRANCH   3   5
HETATM    5  C   UNL     1      -9.595   5.053  70.767  1.00  0.00    -0.180 C  
BRANCH   5   6
HETATM    6  C   UNL     1     -10.636   5.357  71.853  1.00  0.00    -0.288 C  
BRANCH   6   7
HETATM    7  C   UNL     1     -11.150   6.774  71.786  1.00  0.00    -0.275 A  
HETATM    8  C   UNL     1     -12.065   9.400  71.585  1.00  0.00    -0.388 A  
HETATM    9  C   UNL     1     -12.972   8.343  71.591  1.00  0.00    -0.334 A  
HETATM   10  O   UNL     1     -12.513  10.684  71.459  1.00  0.00    -0.377 OA 
HETATM   11  C   UNL     1     -10.703   9.167  71.696  1.00  0.00    -0.441 A  
HETATM   12  H   UNL     1     -14.605   9.544  71.409  1.00  0.00     0.000 HD 
HETATM   13  C   UNL     1     -12.526   7.029  71.696  1.00  0.00    -0.413 A  
HETATM   14  O   UNL     1     -14.301   8.647  71.480  1.00  0.00    -0.410 OA 
HETATM   15  C   UNL     1     -10.246   7.851  71.801  1.00  0.00    -0.247 A  
HETATM   16  H   UNL     1     -11.894  11.405  71.455  1.00  0.00     0.000 HD 
ENDBRANCH   6   7
ENDBRANCH   5   6
ENDBRANCH   3   5
ENDBRANCH   2   3
BRANCH   2  17
HETATM   17  C   UNL     1      -9.166   6.542  67.817  1.00  0.00    -0.113 C  
BRANCH  17  18
HETATM   18  C   UNL     1     -10.492   7.282  68.038  1.00  0.00    -0.249 C  
BRANCH  18  19
HETATM   19  C   UNL     1     -10.438   8.667  67.436  1.00  0.00    -0.351 A  
HETATM   20  C   UNL     1      -9.766   8.893  66.227  1.00  0.00    -0.345 A  
HETATM   21  C   UNL     1     -11.105   9.734  68.056  1.00  0.00    -0.168 A  
HETATM   22  C   UNL     1     -11.107  11.003  67.475  1.00  0.00    -0.366 A  
HETATM   23  H   UNL     1      -9.978  12.561  64.836  1.00  0.00     0.000 HD 
HETATM   24  C   UNL     1      -9.766  10.163  65.647  1.00  0.00    -0.322 A  
HETATM   25  C   UNL     1     -10.440  11.204  66.270  1.00  0.00    -0.259 A  
HETATM   26  O   UNL     1     -10.433  12.424  65.659  1.00  0.00    -0.250 OA 
ENDBRANCH  18  19
ENDBRANCH  17  18
ENDBRANCH   2  17
TORSDOF 7
ENDMDL
MODEL      178
REMARK 921   NORMALIZED FREE ENERGY PREDICTED BY IDOCK:   -4.73 KCAL/MOL
REMARK 922        TOTAL FREE ENERGY PREDICTED BY IDOCK:   -7.83 KCAL/MOL
REMARK 923 INTER-LIGAND FREE ENERGY PREDICTED BY IDOCK:   -7.03 KCAL/MOL
REMARK 924 INTRA-LIGAND FREE ENERGY PREDICTED BY IDOCK:   -0.81 KCAL/MOL
REMARK 927      BINDING AFFINITY PREDICTED BY RF-SCORE:    0.00 PKD
ROOT
HETATM    1  C   UNL     1     -11.550  12.749  64.211  1.00  0.00    -0.433 C  
HETATM    2  C   UNL     1     -10.211  13.199  64.804  1.00  0.00    -0.301 C  
ENDROOT
BRANCH   2   3
HETATM    3  N   UNL     1      -9.541  12.119  65.547  1.00  0.00    -0.390 NA 
HETATM    4  H   UNL     1      -8.983  12.508  66.307  1.00  0.00     0.000 HD 
BRANCH   3   5
HETATM    5  C   UNL     1     -10.433  11.068  66.060  1.00  0.00    -0.245 C  
BRANCH   5   6
HETATM    6  C   UNL     1      -9.762   9.697  66.212  1.00  0.00    -0.303 C  
BRANCH   6   7
HETATM    7  C   UNL     1     -10.129   9.009  67.503  1.00  0.00    -0.285 A  
HETATM    8  C   UNL     1     -10.729   7.707  69.895  1.00  0.00    -0.249 A  
HETATM    9  C   UNL     1     -10.703   9.099  69.845  1.00  0.00    -0.231 A  
HETATM   10  O   UNL     1     -10.996   7.071  71.073  1.00  0.00    -0.240 OA 
HETATM   11  C   UNL     1     -10.477   6.951  68.761  1.00  0.00    -0.223 A  
HETATM   12  H   UNL     1     -11.164   9.330  71.814  1.00  0.00     0.000 HD 
HETATM   13  C   UNL     1     -10.409   9.758  68.655  1.00  0.00    -0.224 A  
HETATM   14  O   UNL     1     -10.963   9.780  71.002  1.00  0.00    -0.320 OA 
HETATM   15  C   UNL     1     -10.181   7.605  67.562  1.00  0.00    -0.294 A  
HETATM   16  H   UNL     1     -11.014   6.121  71.108  1.00  0.00     0.000 HD 
ENDBRANCH   6   7
ENDBRANCH   5   6
ENDBRANCH   3   5
ENDBRANCH   2   3
BRANCH   2  17
HETATM   17  C   UNL     1     -10.448  14.408  65.732  1.00  0.00    -0.329 C  
BRANCH  17  18
HETATM   18  C   UNL     1     -11.823  14.396  66.412  1.00  0.00    -0.402 C  
BRANCH  18  19
HETATM   19  C   UNL     1     -11.703  14.791  67.866  1.00  0.00    -0.367 A  
HETATM   20  C   UNL     1     -11.184  16.042  68.224  1.00  0.00    -0.350 A  
HETATM   21  C   UNL     1     -12.159  13.928  68.873  1.00  0.00    -0.355 A  
HETATM   22  C   UNL     1     -12.104  14.310  70.215  1.00  0.00    -0.403 A  
HETATM   23  H   UNL     1     -11.187  16.835  72.072  1.00  0.00     0.000 HD 
HETATM   24  C   UNL     1     -11.126  16.424  69.566  1.00  0.00    -0.293 A  
HETATM   25  C   UNL     1     -11.592  15.560  70.548  1.00  0.00    -0.346 A  
HETATM   26  O   UNL     1     -11.536  15.981  71.845  1.00  0.00    -0.445 OA 
ENDBRANCH  18  19
ENDBRANCH  17  18
ENDBRANCH   2  17
TORSDOF 7
ENDMDL
MODEL      179
REMARK 921   NORMALIZED FREE ENERGY PREDICTED BY IDOCK:   -4.73 KCAL/MOL
REMARK 922        TOTAL FREE ENERGY PREDICTED BY IDOCK:   -7.82 KCAL/MOL
REMARK 923 INTER-LIGAND FREE ENERGY PREDICTED BY IDOCK:   -6.15 KCAL/MOL
REMARK 924 INTRA-LIGAND FREE ENERGY PREDICTED BY IDOCK:   -1.67 KCAL/MOL
REMARK 927      BINDING AFFINITY PREDICTED BY RF-SCORE:    0.00 PKD
ROOT
HETATM    1  C   UNL     1      -8.255  10.499  69.352  1.00  0.00    -0.128 C  
HETATM    2  C   UNL     1      -7.515  10.822  68.048  1.00  0.00    -0.090 C  
ENDROOT
BRANCH   2   3
HETATM    3  N   UNL     1      -6.428  11.792  68.252  1.00  0.00    -0.050 NA 
HETATM    4  H   UNL     1      -5.529  11.366  68.025  1.00  0.00     0.000 HD 
BRANCH   3   5
HETATM    5  C   UNL     1      -6.582  13.064  67.529  1.00  0.00    -0.155 C  
BRANCH   5   6
HETATM    6  C   UNL     1      -6.387  14.309  68.405  1.00  0.00    -0.101 C  
BRANCH   6   7
HETATM    7  C   UNL     1      -7.481  15.331  68.214  1.00  0.00    -0.112 A  
HETATM    8  C   UNL     1      -9.473  17.260  67.931  1.00  0.00    -0.266 A  
HETATM    9  C   UNL     1      -8.458  17.161  66.983  1.00  0.00    -0.211 A  
HETATM   10  O   UNL     1     -10.433  18.224  67.806  1.00  0.00    -0.387 OA 
HETATM   11  C   UNL     1      -9.520  16.396  69.014  1.00  0.00    -0.258 A  
HETATM   12  H   UNL     1      -9.156  18.702  65.851  1.00  0.00     0.000 HD 
HETATM   13  C   UNL     1      -7.461  16.199  67.113  1.00  0.00    -0.248 A  
HETATM   14  O   UNL     1      -8.475  18.046  65.940  1.00  0.00    -0.509 OA 
HETATM   15  C   UNL     1      -8.524  15.427  69.153  1.00  0.00    -0.241 A  
HETATM   16  H   UNL     1     -11.126  18.292  68.452  1.00  0.00     0.000 HD 
ENDBRANCH   6   7
ENDBRANCH   5   6
ENDBRANCH   3   5
ENDBRANCH   2   3
BRANCH   2  17
HETATM   17  C   UNL     1      -8.522  11.368  67.016  1.00  0.00    -0.159 C  
BRANCH  17  18
HETATM   18  C   UNL     1      -9.788  11.958  67.650  1.00  0.00    -0.192 C  
BRANCH  18  19
HETATM   19  C   UNL     1     -10.568  12.764  66.637  1.00  0.00    -0.272 A  
HETATM   20  C   UNL     1     -11.844  12.355  66.230  1.00  0.00    -0.431 A  
HETATM   21  C   UNL     1     -10.042  13.962  66.132  1.00  0.00    -0.317 A  
HETATM   22  C   UNL     1     -10.780  14.741  65.239  1.00  0.00    -0.406 A  
HETATM   23  H   UNL     1     -13.679  14.772  63.735  1.00  0.00     0.000 HD 
HETATM   24  C   UNL     1     -12.583  13.132  65.335  1.00  0.00    -0.512 A  
HETATM   25  C   UNL     1     -12.049  14.320  64.853  1.00  0.00    -0.435 A  
HETATM   26  O   UNL     1     -12.812  15.060  63.998  1.00  0.00    -0.676 OA 
ENDBRANCH  18  19
ENDBRANCH  17  18
ENDBRANCH   2  17
TORSDOF 7
ENDMDL
MODEL      180
REMARK 921   NORMALIZED FREE ENERGY PREDICTED BY IDOCK:   -4.71 KCAL/MOL
REMARK 922        TOTAL FREE ENERGY PREDICTED BY IDOCK:   -7.80 KCAL/MOL
REMARK 923 INTER-LIGAND FREE ENERGY PREDICTED BY IDOCK:   -6.90 KCAL/MOL
REMARK 924 INTRA-LIGAND FREE ENERGY PREDICTED BY IDOCK:   -0.90 KCAL/MOL
REMARK 927      BINDING AFFINITY PREDICTED BY RF-SCORE:    0.00 PKD
ROOT
HETATM    1  C   UNL     1      -7.081   8.847  65.996  1.00  0.00    -0.088 C  
HETATM    2  C   UNL     1      -8.533   8.400  65.799  1.00  0.00    -0.156 C  
ENDROOT
BRANCH   2   3
HETATM    3  N   UNL     1      -9.184   9.102  64.681  1.00  0.00    -0.441 NA 
HETATM    4  H   UNL     1     -10.149   9.327  64.922  1.00  0.00     0.000 HD 
BRANCH   3   5
HETATM    5  C   UNL     1      -8.485  10.307  64.209  1.00  0.00    -0.179 C  
BRANCH   5   6
HETATM    6  C   UNL     1      -9.415  11.387  63.641  1.00  0.00    -0.213 C  
BRANCH   6   7
HETATM    7  C   UNL     1     -10.203  12.098  64.714  1.00  0.00    -0.310 A  
HETATM    8  C   UNL     1     -11.599  13.472  66.698  1.00  0.00    -0.363 A  
HETATM    9  C   UNL     1     -12.124  13.380  65.412  1.00  0.00    -0.421 A  
HETATM   10  O   UNL     1     -12.270  14.169  67.662  1.00  0.00    -0.550 OA 
HETATM   11  C   UNL     1     -10.391  12.871  67.016  1.00  0.00    -0.245 A  
HETATM   12  H   UNL     1     -13.790  14.465  65.851  1.00  0.00     0.000 HD 
HETATM   13  C   UNL     1     -11.438  12.693  64.415  1.00  0.00    -0.402 A  
HETATM   14  O   UNL     1     -13.321  13.996  65.170  1.00  0.00    -0.703 OA 
HETATM   15  C   UNL     1      -9.694  12.179  66.022  1.00  0.00    -0.258 A  
HETATM   16  H   UNL     1     -11.912  14.232  68.540  1.00  0.00     0.000 HD 
ENDBRANCH   6   7
ENDBRANCH   5   6
ENDBRANCH   3   5
ENDBRANCH   2   3
BRANCH   2  17
HETATM   17  C   UNL     1      -9.320   8.643  67.103  1.00  0.00    -0.190 C  
BRANCH  17  18
HETATM   18  C   UNL     1     -10.314   7.522  67.435  1.00  0.00    -0.346 C  
BRANCH  18  19
HETATM   19  C   UNL     1     -10.662   7.535  68.905  1.00  0.00    -0.135 A  
HETATM   20  C   UNL     1     -10.596   8.724  69.643  1.00  0.00    -0.220 A  
HETATM   21  C   UNL     1     -11.105   6.363  69.537  1.00  0.00    -0.460 A  
HETATM   22  C   UNL     1     -11.483   6.381  70.881  1.00  0.00    -0.406 A  
HETATM   23  H   UNL     1     -11.750   8.455  73.389  1.00  0.00     0.000 HD 
HETATM   24  C   UNL     1     -10.972   8.742  70.988  1.00  0.00    -0.328 A  
HETATM   25  C   UNL     1     -11.417   7.574  71.594  1.00  0.00    -0.261 A  
HETATM   26  O   UNL     1     -11.794   7.640  72.903  1.00  0.00    -0.225 OA 
ENDBRANCH  18  19
ENDBRANCH  17  18
ENDBRANCH   2  17
TORSDOF 7
ENDMDL
MODEL      181
REMARK 921   NORMALIZED FREE ENERGY PREDICTED BY IDOCK:   -4.71 KCAL/MOL
REMARK 922        TOTAL FREE ENERGY PREDICTED BY IDOCK:   -7.79 KCAL/MOL
REMARK 923 INTER-LIGAND FREE ENERGY PREDICTED BY IDOCK:   -6.18 KCAL/MOL
REMARK 924 INTRA-LIGAND FREE ENERGY PREDICTED BY IDOCK:   -1.61 KCAL/MOL
REMARK 927      BINDING AFFINITY PREDICTED BY RF-SCORE:    0.00 PKD
ROOT
HETATM    1  C   UNL     1      -6.012  13.604  69.320  1.00  0.00    -0.090 C  
HETATM    2  C   UNL     1      -6.967  13.716  68.127  1.00  0.00    -0.119 C  
ENDROOT
BRANCH   2   3
HETATM    3  N   UNL     1      -6.601  12.800  67.035  1.00  0.00    -0.464 NA 
HETATM    4  H   UNL     1      -5.607  12.575  67.082  1.00  0.00     0.000 HD 
BRANCH   3   5
HETATM    5  C   UNL     1      -7.397  11.565  66.963  1.00  0.00    -0.145 C  
BRANCH   5   6
HETATM    6  C   UNL     1      -8.800  11.688  67.572  1.00  0.00    -0.158 C  
BRANCH   6   7
HETATM    7  C   UNL     1      -9.868  11.912  66.531  1.00  0.00    -0.225 A  
HETATM    8  C   UNL     1     -11.842  12.407  64.625  1.00  0.00    -0.380 A  
HETATM    9  C   UNL     1     -10.566  12.020  64.224  1.00  0.00    -0.334 A  
HETATM   10  O   UNL     1     -12.800  12.677  63.690  1.00  0.00    -0.718 OA 
HETATM   11  C   UNL     1     -12.155  12.535  65.969  1.00  0.00    -0.390 A  
HETATM   12  H   UNL     1     -11.005  12.086  62.237  1.00  0.00     0.000 HD 
HETATM   13  C   UNL     1      -9.575  11.766  65.167  1.00  0.00    -0.173 A  
HETATM   14  O   UNL     1     -10.328  11.913  62.881  1.00  0.00    -0.247 OA 
HETATM   15  C   UNL     1     -11.166  12.283  66.923  1.00  0.00    -0.367 A  
HETATM   16  H   UNL     1     -13.671  12.942  63.963  1.00  0.00     0.000 HD 
ENDBRANCH   6   7
ENDBRANCH   5   6
ENDBRANCH   3   5
ENDBRANCH   2   3
BRANCH   2  17
HETATM   17  C   UNL     1      -6.971  15.171  67.615  1.00  0.00    -0.206 C  
BRANCH  17  18
HETATM   18  C   UNL     1      -8.242  15.543  66.840  1.00  0.00    -0.287 C  
BRANCH  18  19
HETATM   19  C   UNL     1      -9.437  15.588  67.764  1.00  0.00    -0.204 A  
HETATM   20  C   UNL     1     -10.734  15.706  67.246  1.00  0.00    -0.305 A  
HETATM   21  C   UNL     1      -9.265  15.461  69.150  1.00  0.00    -0.242 A  
HETATM   22  C   UNL     1     -10.369  15.446  70.004  1.00  0.00    -0.288 A  
HETATM   23  H   UNL     1     -13.629  15.602  69.900  1.00  0.00     0.000 HD 
HETATM   24  C   UNL     1     -11.839  15.693  68.100  1.00  0.00    -0.096 A  
HETATM   25  C   UNL     1     -11.648  15.557  69.469  1.00  0.00    -0.350 A  
HETATM   26  O   UNL     1     -12.755  15.527  70.265  1.00  0.00    -0.391 OA 
ENDBRANCH  18  19
ENDBRANCH  17  18
ENDBRANCH   2  17
TORSDOF 7
ENDMDL
MODEL      182
REMARK 921   NORMALIZED FREE ENERGY PREDICTED BY IDOCK:   -4.69 KCAL/MOL
REMARK 922        TOTAL FREE ENERGY PREDICTED BY IDOCK:   -7.77 KCAL/MOL
REMARK 923 INTER-LIGAND FREE ENERGY PREDICTED BY IDOCK:   -7.10 KCAL/MOL
REMARK 924 INTRA-LIGAND FREE ENERGY PREDICTED BY IDOCK:   -0.68 KCAL/MOL
REMARK 927      BINDING AFFINITY PREDICTED BY RF-SCORE:    0.00 PKD
ROOT
HETATM    1  C   UNL     1     -14.047  15.312  72.047  1.00  0.00    -0.662 C  
HETATM    2  C   UNL     1     -13.174  14.236  71.392  1.00  0.00    -0.349 C  
ENDROOT
BRANCH   2   3
HETATM    3  N   UNL     1     -13.351  12.918  72.022  1.00  0.00    -0.500 NA 
HETATM    4  H   UNL     1     -14.269  12.859  72.463  1.00  0.00     0.000 HD 
BRANCH   3   5
HETATM    5  C   UNL     1     -13.143  11.767  71.130  1.00  0.00    -0.053 C  
BRANCH   5   6
HETATM    6  C   UNL     1     -13.182  10.408  71.843  1.00  0.00    -0.535 C  
BRANCH   6   7
HETATM    7  C   UNL     1     -11.928   9.599  71.621  1.00  0.00    -0.470 A  
HETATM    8  C   UNL     1      -9.657   8.046  71.169  1.00  0.00    -0.160 A  
HETATM    9  C   UNL     1      -9.787   9.288  70.554  1.00  0.00    -0.253 A  
HETATM   10  O   UNL     1      -8.557   7.274  70.925  1.00  0.00    -0.134 OA 
HETATM   11  C   UNL     1     -10.639   7.572  72.025  1.00  0.00    -0.248 A  
HETATM   12  H   UNL     1      -8.009   9.157  69.571  1.00  0.00     0.000 HD 
HETATM   13  C   UNL     1     -10.914  10.073  70.776  1.00  0.00    -0.375 A  
HETATM   14  O   UNL     1      -8.778   9.693  69.723  1.00  0.00    -0.173 OA 
HETATM   15  C   UNL     1     -11.775   8.352  72.254  1.00  0.00    -0.453 A  
HETATM   16  H   UNL     1      -8.469   6.426  71.344  1.00  0.00     0.000 HD 
ENDBRANCH   6   7
ENDBRANCH   5   6
ENDBRANCH   3   5
ENDBRANCH   2   3
BRANCH   2  17
HETATM   17  C   UNL     1     -11.695  14.664  71.471  1.00  0.00    -0.273 C  
BRANCH  17  18
HETATM   18  C   UNL     1     -11.412  16.011  70.793  1.00  0.00    -0.444 C  
BRANCH  18  19
HETATM   19  C   UNL     1     -11.006  15.808  69.351  1.00  0.00    -0.296 A  
HETATM   20  C   UNL     1     -10.775  14.519  68.850  1.00  0.00    -0.259 A  
HETATM   21  C   UNL     1     -10.905  16.905  68.483  1.00  0.00    -0.335 A  
HETATM   22  C   UNL     1     -10.586  16.719  67.137  1.00  0.00    -0.256 A  
HETATM   23  H   UNL     1      -9.925  14.322  65.019  1.00  0.00     0.000 HD 
HETATM   24  C   UNL     1     -10.454  14.332  67.504  1.00  0.00    -0.252 A  
HETATM   25  C   UNL     1     -10.369  15.431  66.658  1.00  0.00    -0.280 A  
HETATM   26  O   UNL     1     -10.073  15.202  65.346  1.00  0.00    -0.339 OA 
ENDBRANCH  18  19
ENDBRANCH  17  18
ENDBRANCH   2  17
TORSDOF 7
ENDMDL
MODEL      183
REMARK 921   NORMALIZED FREE ENERGY PREDICTED BY IDOCK:   -4.69 KCAL/MOL
REMARK 922        TOTAL FREE ENERGY PREDICTED BY IDOCK:   -7.77 KCAL/MOL
REMARK 923 INTER-LIGAND FREE ENERGY PREDICTED BY IDOCK:   -6.79 KCAL/MOL
REMARK 924 INTRA-LIGAND FREE ENERGY PREDICTED BY IDOCK:   -0.99 KCAL/MOL
REMARK 927      BINDING AFFINITY PREDICTED BY RF-SCORE:    0.00 PKD
ROOT
HETATM    1  C   UNL     1      -6.708  15.949  68.995  1.00  0.00    -0.151 C  
HETATM    2  C   UNL     1      -8.149  15.467  69.195  1.00  0.00    -0.244 C  
ENDROOT
BRANCH   2   3
HETATM    3  N   UNL     1      -8.248  13.999  69.199  1.00  0.00    -0.335 NA 
HETATM    4  H   UNL     1      -9.124  13.707  69.633  1.00  0.00     0.000 HD 
BRANCH   3   5
HETATM    5  C   UNL     1      -8.097  13.359  67.884  1.00  0.00    -0.162 C  
BRANCH   5   6
HETATM    6  C   UNL     1      -7.935  11.834  67.945  1.00  0.00    -0.141 C  
BRANCH   6   7
HETATM    7  C   UNL     1      -9.067  11.159  68.680  1.00  0.00    -0.166 A  
HETATM    8  C   UNL     1     -11.132   9.948  70.110  1.00  0.00    -0.296 A  
HETATM    9  C   UNL     1     -11.420  10.925  69.160  1.00  0.00    -0.303 A  
HETATM   10  O   UNL     1     -12.142   9.376  70.829  1.00  0.00    -0.376 OA 
HETATM   11  C   UNL     1      -9.825   9.551  70.346  1.00  0.00    -0.329 A  
HETATM   12  H   UNL     1     -13.430  10.850  69.471  1.00  0.00     0.000 HD 
HETATM   13  C   UNL     1     -10.397  11.532  68.438  1.00  0.00    -0.214 A  
HETATM   14  O   UNL     1     -12.732  11.265  68.978  1.00  0.00    -0.190 OA 
HETATM   15  C   UNL     1      -8.791  10.156  69.626  1.00  0.00    -0.184 A  
HETATM   16  H   UNL     1     -11.946   8.709  71.478  1.00  0.00     0.000 HD 
ENDBRANCH   6   7
ENDBRANCH   5   6
ENDBRANCH   3   5
ENDBRANCH   2   3
BRANCH   2  17
HETATM   17  C   UNL     1      -9.039  16.052  68.080  1.00  0.00    -0.189 C  
BRANCH  17  18
HETATM   18  C   UNL     1     -10.520  15.679  68.221  1.00  0.00    -0.252 C  
BRANCH  18  19
HETATM   19  C   UNL     1     -11.067  15.155  66.913  1.00  0.00    -0.314 A  
HETATM   20  C   UNL     1     -12.101  14.209  66.901  1.00  0.00    -0.466 A  
HETATM   21  C   UNL     1     -10.579  15.649  65.694  1.00  0.00    -0.393 A  
HETATM   22  C   UNL     1     -11.119  15.210  64.484  1.00  0.00    -0.252 A  
HETATM   23  H   UNL     1     -13.424  13.198  63.342  1.00  0.00     0.000 HD 
HETATM   24  C   UNL     1     -12.640  13.769  65.690  1.00  0.00    -0.551 A  
HETATM   25  C   UNL     1     -12.150  14.277  64.494  1.00  0.00    -0.480 A  
HETATM   26  O   UNL     1     -12.719  13.835  63.335  1.00  0.00    -0.795 OA 
ENDBRANCH  18  19
ENDBRANCH  17  18
ENDBRANCH   2  17
TORSDOF 7
ENDMDL
MODEL      184
REMARK 921   NORMALIZED FREE ENERGY PREDICTED BY IDOCK:   -4.68 KCAL/MOL
REMARK 922        TOTAL FREE ENERGY PREDICTED BY IDOCK:   -7.76 KCAL/MOL
REMARK 923 INTER-LIGAND FREE ENERGY PREDICTED BY IDOCK:   -7.07 KCAL/MOL
REMARK 924 INTRA-LIGAND FREE ENERGY PREDICTED BY IDOCK:   -0.68 KCAL/MOL
REMARK 927      BINDING AFFINITY PREDICTED BY RF-SCORE:    0.00 PKD
ROOT
HETATM    1  C   UNL     1      -7.006  12.220  67.372  1.00  0.00    -0.151 C  
HETATM    2  C   UNL     1      -8.451  12.679  67.600  1.00  0.00    -0.173 C  
ENDROOT
BRANCH   2   3
HETATM    3  N   UNL     1      -8.594  13.468  68.835  1.00  0.00    -0.363 NA 
HETATM    4  H   UNL     1      -7.816  13.278  69.466  1.00  0.00     0.000 HD 
BRANCH   3   5
HETATM    5  C   UNL     1      -8.742  14.917  68.636  1.00  0.00    -0.177 C  
BRANCH   5   6
HETATM    6  C   UNL     1      -8.970  15.328  67.175  1.00  0.00    -0.227 C  
BRANCH   6   7
HETATM    7  C   UNL     1      -9.205  16.810  67.017  1.00  0.00    -0.238 A  
HETATM    8  C   UNL     1      -9.642  19.556  66.811  1.00  0.00    -0.357 A  
HETATM    9  C   UNL     1      -8.426  19.011  66.407  1.00  0.00    -0.306 A  
HETATM   10  O   UNL     1      -9.844  20.905  66.735  1.00  0.00    -0.608 OA 
HETATM   11  C   UNL     1     -10.655  18.747  67.302  1.00  0.00    -0.504 A  
HETATM   12  H   UNL     1      -7.627  20.803  65.866  1.00  0.00     0.000 HD 
HETATM   13  C   UNL     1      -8.199  17.641  66.502  1.00  0.00    -0.307 A  
HETATM   14  O   UNL     1      -7.473  19.868  65.931  1.00  0.00    -0.313 OA 
HETATM   15  C   UNL     1     -10.436  17.371  67.401  1.00  0.00    -0.336 A  
HETATM   16  H   UNL     1     -10.674  21.277  67.011  1.00  0.00     0.000 HD 
ENDBRANCH   6   7
ENDBRANCH   5   6
ENDBRANCH   3   5
ENDBRANCH   2   3
BRANCH   2  17
HETATM   17  C   UNL     1      -9.373  11.445  67.653  1.00  0.00    -0.159 C  
BRANCH  17  18
HETATM   18  C   UNL     1      -9.003  10.452  68.763  1.00  0.00    -0.157 C  
BRANCH  18  19
HETATM   19  C   UNL     1     -10.175  10.223  69.688  1.00  0.00    -0.268 A  
HETATM   20  C   UNL     1     -10.079   9.312  70.749  1.00  0.00    -0.358 A  
HETATM   21  C   UNL     1     -11.358  10.960  69.527  1.00  0.00    -0.351 A  
HETATM   22  C   UNL     1     -12.425  10.794  70.412  1.00  0.00    -0.430 A  
HETATM   23  H   UNL     1     -13.234   9.092  73.080  1.00  0.00     0.000 HD 
HETATM   24  C   UNL     1     -11.146   9.143  71.633  1.00  0.00    -0.445 A  
HETATM   25  C   UNL     1     -12.306   9.889  71.463  1.00  0.00    -0.412 A  
HETATM   26  O   UNL     1     -13.316   9.710  72.362  1.00  0.00    -0.433 OA 
ENDBRANCH  18  19
ENDBRANCH  17  18
ENDBRANCH   2  17
TORSDOF 7
ENDMDL
MODEL      185
REMARK 921   NORMALIZED FREE ENERGY PREDICTED BY IDOCK:   -4.67 KCAL/MOL
REMARK 922        TOTAL FREE ENERGY PREDICTED BY IDOCK:   -7.74 KCAL/MOL
REMARK 923 INTER-LIGAND FREE ENERGY PREDICTED BY IDOCK:   -7.24 KCAL/MOL
REMARK 924 INTRA-LIGAND FREE ENERGY PREDICTED BY IDOCK:   -0.50 KCAL/MOL
REMARK 927      BINDING AFFINITY PREDICTED BY RF-SCORE:    0.00 PKD
ROOT
HETATM    1  C   UNL     1     -11.405  12.127  67.197  1.00  0.00    -0.393 C  
HETATM    2  C   UNL     1     -11.009  13.119  68.297  1.00  0.00    -0.253 C  
ENDROOT
BRANCH   2   3
HETATM    3  N   UNL     1     -11.456  12.679  69.629  1.00  0.00    -0.461 NA 
HETATM    4  H   UNL     1     -12.128  13.344  70.011  1.00  0.00     0.000 HD 
BRANCH   3   5
HETATM    5  C   UNL     1     -12.005  11.316  69.684  1.00  0.00    -0.353 C  
BRANCH   5   6
HETATM    6  C   UNL     1     -12.551  10.917  71.062  1.00  0.00    -0.517 C  
BRANCH   6   7
HETATM    7  C   UNL     1     -12.231   9.487  71.422  1.00  0.00    -0.455 A  
HETATM    8  C   UNL     1     -11.661   6.822  72.010  1.00  0.00    -0.291 A  
HETATM    9  C   UNL     1     -10.636   7.764  71.974  1.00  0.00    -0.228 A  
HETATM   10  O   UNL     1     -11.376   5.512  72.271  1.00  0.00    -0.255 OA 
HETATM   11  C   UNL     1     -12.975   7.194  71.774  1.00  0.00    -0.367 A  
HETATM   12  H   UNL     1      -9.176   6.416  72.415  1.00  0.00     0.000 HD 
HETATM   13  C   UNL     1     -10.910   9.097  71.686  1.00  0.00    -0.442 A  
HETATM   14  O   UNL     1      -9.363   7.326  72.218  1.00  0.00    -0.138 OA 
HETATM   15  C   UNL     1     -13.260   8.531  71.484  1.00  0.00    -0.324 A  
HETATM   16  H   UNL     1     -12.076   4.869  72.295  1.00  0.00     0.000 HD 
ENDBRANCH   6   7
ENDBRANCH   5   6
ENDBRANCH   3   5
ENDBRANCH   2   3
BRANCH   2  17
HETATM   17  C   UNL     1     -11.606  14.502  67.971  1.00  0.00    -0.364 C  
BRANCH  17  18
HETATM   18  C   UNL     1     -11.150  15.061  66.617  1.00  0.00    -0.326 C  
BRANCH  18  19
HETATM   19  C   UNL     1     -10.178  16.203  66.811  1.00  0.00    -0.281 A  
HETATM   20  C   UNL     1      -8.843  16.080  66.404  1.00  0.00    -0.363 A  
HETATM   21  C   UNL     1     -10.617  17.420  67.353  1.00  0.00    -0.308 A  
HETATM   22  C   UNL     1      -9.738  18.497  67.483  1.00  0.00    -0.318 A  
HETATM   23  H   UNL     1      -6.630  19.292  66.871  1.00  0.00     0.000 HD 
HETATM   24  C   UNL     1      -7.963  17.156  66.535  1.00  0.00    -0.324 A  
HETATM   25  C   UNL     1      -8.418  18.356  67.066  1.00  0.00    -0.253 A  
HETATM   26  O   UNL     1      -7.531  19.389  67.156  1.00  0.00    -0.223 OA 
ENDBRANCH  18  19
ENDBRANCH  17  18
ENDBRANCH   2  17
TORSDOF 7
ENDMDL
MODEL      186
REMARK 921   NORMALIZED FREE ENERGY PREDICTED BY IDOCK:   -4.67 KCAL/MOL
REMARK 922        TOTAL FREE ENERGY PREDICTED BY IDOCK:   -7.74 KCAL/MOL
REMARK 923 INTER-LIGAND FREE ENERGY PREDICTED BY IDOCK:   -6.24 KCAL/MOL
REMARK 924 INTRA-LIGAND FREE ENERGY PREDICTED BY IDOCK:   -1.50 KCAL/MOL
REMARK 927      BINDING AFFINITY PREDICTED BY RF-SCORE:    0.00 PKD
ROOT
HETATM    1  C   UNL     1     -10.286  20.173  67.259  1.00  0.00    -0.540 C  
HETATM    2  C   UNL     1      -9.869  18.793  67.779  1.00  0.00    -0.333 C  
ENDROOT
BRANCH   2   3
HETATM    3  N   UNL     1     -10.893  18.196  68.652  1.00  0.00    -0.190 NA 
HETATM    4  H   UNL     1     -11.766  18.717  68.577  1.00  0.00     0.000 HD 
BRANCH   3   5
HETATM    5  C   UNL     1     -11.138  16.762  68.437  1.00  0.00    -0.266 C  
BRANCH   5   6
HETATM    6  C   UNL     1     -10.678  15.868  69.596  1.00  0.00    -0.304 C  
BRANCH   6   7
HETATM    7  C   UNL     1     -11.088  14.427  69.418  1.00  0.00    -0.294 A  
HETATM    8  C   UNL     1     -11.927  11.790  69.082  1.00  0.00    -0.293 A  
HETATM    9  C   UNL     1     -11.179  12.415  68.089  1.00  0.00    -0.265 A  
HETATM   10  O   UNL     1     -12.362  10.507  68.905  1.00  0.00    -0.779 OA 
HETATM   11  C   UNL     1     -12.250  12.456  70.254  1.00  0.00    -0.345 A  
HETATM   12  H   UNL     1     -11.188  10.799  66.851  1.00  0.00     0.000 HD 
HETATM   13  C   UNL     1     -10.751  13.730  68.248  1.00  0.00    -0.264 A  
HETATM   14  O   UNL     1     -10.896  11.697  66.960  1.00  0.00    -0.239 OA 
HETATM   15  C   UNL     1     -11.826  13.777  70.422  1.00  0.00    -0.323 A  
HETATM   16  H   UNL     1     -12.873  10.079  69.582  1.00  0.00     0.000 HD 
ENDBRANCH   6   7
ENDBRANCH   5   6
ENDBRANCH   3   5
ENDBRANCH   2   3
BRANCH   2  17
HETATM   17  C   UNL     1      -8.535  18.919  68.541  1.00  0.00    -0.384 C  
BRANCH  17  18
HETATM   18  C   UNL     1      -7.348  18.284  67.805  1.00  0.00    -0.218 C  
BRANCH  18  19
HETATM   19  C   UNL     1      -7.211  16.824  68.173  1.00  0.00    -0.166 A  
HETATM   20  C   UNL     1      -7.544  15.823  67.251  1.00  0.00    -0.244 A  
HETATM   21  C   UNL     1      -6.698  16.456  69.425  1.00  0.00    -0.215 A  
HETATM   22  C   UNL     1      -6.516  15.110  69.750  1.00  0.00    -0.166 A  
HETATM   23  H   UNL     1      -6.892  12.138  68.448  1.00  0.00     0.000 HD 
HETATM   24  C   UNL     1      -7.364  14.477  67.575  1.00  0.00    -0.212 A  
HETATM   25  C   UNL     1      -6.846  14.132  68.817  1.00  0.00    -0.101 A  
HETATM   26  O   UNL     1      -6.666  12.806  69.085  1.00  0.00    -0.099 OA 
ENDBRANCH  18  19
ENDBRANCH  17  18
ENDBRANCH   2  17
TORSDOF 7
ENDMDL
MODEL      187
REMARK 921   NORMALIZED FREE ENERGY PREDICTED BY IDOCK:   -4.67 KCAL/MOL
REMARK 922        TOTAL FREE ENERGY PREDICTED BY IDOCK:   -7.74 KCAL/MOL
REMARK 923 INTER-LIGAND FREE ENERGY PREDICTED BY IDOCK:   -7.23 KCAL/MOL
REMARK 924 INTRA-LIGAND FREE ENERGY PREDICTED BY IDOCK:   -0.51 KCAL/MOL
REMARK 927      BINDING AFFINITY PREDICTED BY RF-SCORE:    0.00 PKD
ROOT
HETATM    1  C   UNL     1     -10.030   9.580  68.992  1.00  0.00    -0.185 C  
HETATM    2  C   UNL     1     -11.083  10.283  69.856  1.00  0.00    -0.304 C  
ENDROOT
BRANCH   2   3
HETATM    3  N   UNL     1     -11.980   9.329  70.525  1.00  0.00    -0.459 NA 
HETATM    4  H   UNL     1     -12.099   8.495  69.950  1.00  0.00     0.000 HD 
BRANCH   3   5
HETATM    5  C   UNL     1     -11.582   8.949  71.890  1.00  0.00    -0.371 C  
BRANCH   5   6
HETATM    6  C   UNL     1     -11.756   7.456  72.199  1.00  0.00    -0.328 C  
BRANCH   6   7
HETATM    7  C   UNL     1     -10.924   6.575  71.300  1.00  0.00    -0.309 A  
HETATM    8  C   UNL     1      -9.376   5.013  69.587  1.00  0.00    -0.127 A  
HETATM    9  C   UNL     1      -8.899   5.342  70.853  1.00  0.00    -0.138 A  
HETATM   10  O   UNL     1      -8.605   4.271  68.738  1.00  0.00    -0.082 OA 
HETATM   11  C   UNL     1     -10.627   5.438  69.167  1.00  0.00    -0.241 A  
HETATM   12  H   UNL     1      -7.134   4.358  70.611  1.00  0.00     0.000 HD 
HETATM   13  C   UNL     1      -9.665   6.118  71.718  1.00  0.00    -0.171 A  
HETATM   14  O   UNL     1      -7.657   4.887  71.201  1.00  0.00    -0.077 OA 
HETATM   15  C   UNL     1     -11.403   6.217  70.028  1.00  0.00    -0.486 A  
HETATM   16  H   UNL     1      -8.930   4.046  67.874  1.00  0.00     0.000 HD 
ENDBRANCH   6   7
ENDBRANCH   5   6
ENDBRANCH   3   5
ENDBRANCH   2   3
BRANCH   2  17
HETATM   17  C   UNL     1     -11.902  11.246  68.973  1.00  0.00    -0.421 C  
BRANCH  17  18
HETATM   18  C   UNL     1     -11.367  12.684  68.978  1.00  0.00    -0.345 C  
BRANCH  18  19
HETATM   19  C   UNL     1     -12.080  13.516  70.019  1.00  0.00    -0.411 A  
HETATM   20  C   UNL     1     -12.706  12.905  71.114  1.00  0.00    -0.366 A  
HETATM   21  C   UNL     1     -12.079  14.916  69.928  1.00  0.00    -0.379 A  
HETATM   22  C   UNL     1     -12.687  15.692  70.916  1.00  0.00    -0.500 A  
HETATM   23  H   UNL     1     -14.301  15.358  73.735  1.00  0.00     0.000 HD 
HETATM   24  C   UNL     1     -13.316  13.680  72.101  1.00  0.00    -0.587 A  
HETATM   25  C   UNL     1     -13.296  15.065  71.998  1.00  0.00    -0.379 A  
HETATM   26  O   UNL     1     -13.885  15.786  72.996  1.00  0.00    -0.561 OA 
ENDBRANCH  18  19
ENDBRANCH  17  18
ENDBRANCH   2  17
TORSDOF 7
ENDMDL
MODEL      188
REMARK 921   NORMALIZED FREE ENERGY PREDICTED BY IDOCK:   -4.66 KCAL/MOL
REMARK 922        TOTAL FREE ENERGY PREDICTED BY IDOCK:   -7.73 KCAL/MOL
REMARK 923 INTER-LIGAND FREE ENERGY PREDICTED BY IDOCK:   -6.82 KCAL/MOL
REMARK 924 INTRA-LIGAND FREE ENERGY PREDICTED BY IDOCK:   -0.91 KCAL/MOL
REMARK 927      BINDING AFFINITY PREDICTED BY RF-SCORE:    0.00 PKD
ROOT
HETATM    1  C   UNL     1      -9.098   9.839  65.084  1.00  0.00    -0.270 C  
HETATM    2  C   UNL     1      -9.233   9.191  66.467  1.00  0.00    -0.175 C  
ENDROOT
BRANCH   2   3
HETATM    3  N   UNL     1     -10.270   8.147  66.493  1.00  0.00    -0.456 NA 
HETATM    4  H   UNL     1     -10.745   8.102  65.591  1.00  0.00     0.000 HD 
BRANCH   3   5
HETATM    5  C   UNL     1      -9.801   6.810  66.886  1.00  0.00    -0.175 C  
BRANCH   5   6
HETATM    6  C   UNL     1     -10.901   5.903  67.453  1.00  0.00    -0.341 C  
BRANCH   6   7
HETATM    7  C   UNL     1     -10.989   5.969  68.958  1.00  0.00    -0.409 A  
HETATM    8  C   UNL     1     -11.073   6.119  71.741  1.00  0.00    -0.274 A  
HETATM    9  C   UNL     1     -11.857   6.975  70.972  1.00  0.00    -0.351 A  
HETATM   10  O   UNL     1     -11.094   6.212  73.103  1.00  0.00    -0.356 OA 
HETATM   11  C   UNL     1     -10.257   5.172  71.141  1.00  0.00    -0.291 A  
HETATM   12  H   UNL     1     -12.660   7.931  72.580  1.00  0.00     0.000 HD 
HETATM   13  C   UNL     1     -11.826   6.906  69.583  1.00  0.00     0.019 A  
HETATM   14  O   UNL     1     -12.639   7.883  71.632  1.00  0.00    -0.305 OA 
HETATM   15  C   UNL     1     -10.219   5.095  69.746  1.00  0.00    -0.357 A  
HETATM   16  H   UNL     1     -10.559   5.628  73.628  1.00  0.00     0.000 HD 
ENDBRANCH   6   7
ENDBRANCH   5   6
ENDBRANCH   3   5
ENDBRANCH   2   3
BRANCH   2  17
HETATM   17  C   UNL     1      -9.555  10.281  67.508  1.00  0.00    -0.180 C  
BRANCH  17  18
HETATM   18  C   UNL     1     -11.041  10.344  67.886  1.00  0.00    -0.363 C  
BRANCH  18  19
HETATM   19  C   UNL     1     -11.431  11.748  68.288  1.00  0.00    -0.370 A  
HETATM   20  C   UNL     1     -11.669  12.064  69.633  1.00  0.00    -0.405 A  
HETATM   21  C   UNL     1     -11.508  12.764  67.324  1.00  0.00    -0.393 A  
HETATM   22  C   UNL     1     -11.813  14.075  67.697  1.00  0.00    -0.430 A  
HETATM   23  H   UNL     1     -12.473  15.840  70.364  1.00  0.00     0.000 HD 
HETATM   24  C   UNL     1     -11.976  13.374  70.006  1.00  0.00    -0.407 A  
HETATM   25  C   UNL     1     -12.038  14.369  69.038  1.00  0.00    -0.263 A  
HETATM   26  O   UNL     1     -12.320  15.639  69.448  1.00  0.00    -0.266 OA 
ENDBRANCH  18  19
ENDBRANCH  17  18
ENDBRANCH   2  17
TORSDOF 7
ENDMDL
MODEL      189
REMARK 921   NORMALIZED FREE ENERGY PREDICTED BY IDOCK:   -4.66 KCAL/MOL
REMARK 922        TOTAL FREE ENERGY PREDICTED BY IDOCK:   -7.73 KCAL/MOL
REMARK 923 INTER-LIGAND FREE ENERGY PREDICTED BY IDOCK:   -7.46 KCAL/MOL
REMARK 924 INTRA-LIGAND FREE ENERGY PREDICTED BY IDOCK:   -0.27 KCAL/MOL
REMARK 927      BINDING AFFINITY PREDICTED BY RF-SCORE:    0.00 PKD
ROOT
HETATM    1  C   UNL     1     -12.853  15.329  70.948  1.00  0.00    -0.511 C  
HETATM    2  C   UNL     1     -11.628  14.413  70.858  1.00  0.00    -0.144 C  
ENDROOT
BRANCH   2   3
HETATM    3  N   UNL     1     -10.368  15.172  70.818  1.00  0.00    -0.436 NA 
HETATM    4  H   UNL     1      -9.580  14.557  71.024  1.00  0.00     0.000 HD 
BRANCH   3   5
HETATM    5  C   UNL     1     -10.122  15.909  69.569  1.00  0.00    -0.277 C  
BRANCH   5   6
HETATM    6  C   UNL     1     -10.399  17.415  69.667  1.00  0.00     0.114 C  
BRANCH   6   7
HETATM    7  C   UNL     1      -9.878  18.180  68.475  1.00  0.00    -0.393 A  
HETATM    8  C   UNL     1      -8.864  19.530  66.257  1.00  0.00    -0.361 A  
HETATM    9  C   UNL     1     -10.177  19.067  66.251  1.00  0.00    -0.446 A  
HETATM   10  O   UNL     1      -8.359  20.167  65.159  1.00  0.00    -0.247 OA 
HETATM   11  C   UNL     1      -8.051  19.346  67.364  1.00  0.00    -0.313 A  
HETATM   12  H   UNL     1     -10.569  19.744  64.372  1.00  0.00     0.000 HD 
HETATM   13  C   UNL     1     -10.694  18.395  67.355  1.00  0.00    -0.397 A  
HETATM   14  O   UNL     1     -10.922  19.286  65.125  1.00  0.00    -0.448 OA 
HETATM   15  C   UNL     1      -8.561  18.672  68.477  1.00  0.00    -0.370 A  
HETATM   16  H   UNL     1      -7.463  20.483  65.162  1.00  0.00     0.000 HD 
ENDBRANCH   6   7
ENDBRANCH   5   6
ENDBRANCH   3   5
ENDBRANCH   2   3
BRANCH   2  17
HETATM   17  C   UNL     1     -11.749  13.526  69.603  1.00  0.00    -0.378 C  
BRANCH  17  18
HETATM   18  C   UNL     1     -12.265  14.279  68.370  1.00  0.00    -0.197 C  
BRANCH  18  19
HETATM   19  C   UNL     1     -11.961  13.508  67.106  1.00  0.00    -0.426 A  
HETATM   20  C   UNL     1     -12.720  13.713  65.946  1.00  0.00    -0.428 A  
HETATM   21  C   UNL     1     -10.880  12.615  67.066  1.00  0.00    -0.282 A  
HETATM   22  C   UNL     1     -10.559  11.942  65.885  1.00  0.00    -0.306 A  
HETATM   23  H   UNL     1     -11.551  11.697  62.783  1.00  0.00     0.000 HD 
HETATM   24  C   UNL     1     -12.401  13.039  64.766  1.00  0.00    -0.490 A  
HETATM   25  C   UNL     1     -11.321  12.165  64.743  1.00  0.00    -0.325 A  
HETATM   26  O   UNL     1     -11.031  11.544  63.564  1.00  0.00    -0.399 OA 
ENDBRANCH  18  19
ENDBRANCH  17  18
ENDBRANCH   2  17
TORSDOF 7
ENDMDL
MODEL      190
REMARK 921   NORMALIZED FREE ENERGY PREDICTED BY IDOCK:   -4.66 KCAL/MOL
REMARK 922        TOTAL FREE ENERGY PREDICTED BY IDOCK:   -7.72 KCAL/MOL
REMARK 923 INTER-LIGAND FREE ENERGY PREDICTED BY IDOCK:   -7.16 KCAL/MOL
REMARK 924 INTRA-LIGAND FREE ENERGY PREDICTED BY IDOCK:   -0.56 KCAL/MOL
REMARK 927      BINDING AFFINITY PREDICTED BY RF-SCORE:    0.00 PKD
ROOT
HETATM    1  C   UNL     1     -12.838  10.193  71.844  1.00  0.00    -0.526 C  
HETATM    2  C   UNL     1     -11.710   9.897  70.850  1.00  0.00    -0.364 C  
ENDROOT
BRANCH   2   3
HETATM    3  N   UNL     1     -12.050  10.316  69.481  1.00  0.00    -0.509 NA 
HETATM    4  H   UNL     1     -12.939   9.904  69.198  1.00  0.00     0.000 HD 
BRANCH   3   5
HETATM    5  C   UNL     1     -12.074  11.771  69.262  1.00  0.00    -0.229 C  
BRANCH   5   6
HETATM    6  C   UNL     1     -10.846  12.311  68.516  1.00  0.00    -0.267 C  
BRANCH   6   7
HETATM    7  C   UNL     1     -11.089  12.471  67.036  1.00  0.00    -0.326 A  
HETATM    8  C   UNL     1     -11.580  12.694  64.301  1.00  0.00    -0.374 A  
HETATM    9  C   UNL     1     -12.182  13.578  65.191  1.00  0.00    -0.428 A  
HETATM   10  O   UNL     1     -11.843  12.786  62.963  1.00  0.00    -0.780 OA 
HETATM   11  C   UNL     1     -10.719  11.706  64.753  1.00  0.00    -0.365 A  
HETATM   12  H   UNL     1     -13.183  14.597  63.741  1.00  0.00     0.000 HD 
HETATM   13  C   UNL     1     -11.940  13.479  66.558  1.00  0.00    -0.460 A  
HETATM   14  O   UNL     1     -13.018  14.529  64.674  1.00  0.00    -0.550 OA 
HETATM   15  C   UNL     1     -10.471  11.598  66.124  1.00  0.00    -0.289 A  
HETATM   16  H   UNL     1     -11.433  12.182  62.355  1.00  0.00     0.000 HD 
ENDBRANCH   6   7
ENDBRANCH   5   6
ENDBRANCH   3   5
ENDBRANCH   2   3
BRANCH   2  17
HETATM   17  C   UNL     1     -11.395   8.387  70.876  1.00  0.00    -0.298 C  
BRANCH  17  18
HETATM   18  C   UNL     1     -10.684   7.890  69.610  1.00  0.00    -0.218 C  
BRANCH  18  19
HETATM   19  C   UNL     1      -9.866   6.654  69.907  1.00  0.00    -0.180 A  
HETATM   20  C   UNL     1      -8.480   6.746  70.096  1.00  0.00    -0.139 A  
HETATM   21  C   UNL     1     -10.493   5.408  70.048  1.00  0.00    -0.373 A  
HETATM   22  C   UNL     1      -9.751   4.272  70.377  1.00  0.00    -0.280 A  
HETATM   23  H   UNL     1      -6.679   3.384  71.041  1.00  0.00     0.000 HD 
HETATM   24  C   UNL     1      -7.737   5.610  70.424  1.00  0.00    -0.094 A  
HETATM   25  C   UNL     1      -8.377   4.386  70.568  1.00  0.00    -0.073 A  
HETATM   26  O   UNL     1      -7.617   3.306  70.910  1.00  0.00    -0.039 OA 
ENDBRANCH  18  19
ENDBRANCH  17  18
ENDBRANCH   2  17
TORSDOF 7
ENDMDL
MODEL      191
REMARK 921   NORMALIZED FREE ENERGY PREDICTED BY IDOCK:   -4.66 KCAL/MOL
REMARK 922        TOTAL FREE ENERGY PREDICTED BY IDOCK:   -7.72 KCAL/MOL
REMARK 923 INTER-LIGAND FREE ENERGY PREDICTED BY IDOCK:   -6.43 KCAL/MOL
REMARK 924 INTRA-LIGAND FREE ENERGY PREDICTED BY IDOCK:   -1.29 KCAL/MOL
REMARK 927      BINDING AFFINITY PREDICTED BY RF-SCORE:    0.00 PKD
ROOT
HETATM    1  C   UNL     1      -9.728   5.052  67.755  1.00  0.00    -0.192 C  
HETATM    2  C   UNL     1     -10.902   6.022  67.585  1.00  0.00    -0.295 C  
ENDROOT
BRANCH   2   3
HETATM    3  N   UNL     1     -10.594   7.107  66.640  1.00  0.00    -0.520 NA 
HETATM    4  H   UNL     1     -11.434   7.376  66.128  1.00  0.00     0.000 HD 
BRANCH   3   5
HETATM    5  C   UNL     1      -9.963   8.294  67.236  1.00  0.00    -0.224 C  
BRANCH   5   6
HETATM    6  C   UNL     1     -10.448   9.624  66.644  1.00  0.00    -0.233 C  
BRANCH   6   7
HETATM    7  C   UNL     1     -10.935  10.587  67.699  1.00  0.00    -0.375 A  
HETATM    8  C   UNL     1     -11.765  12.353  69.691  1.00  0.00    -0.307 A  
HETATM    9  C   UNL     1     -11.473  12.827  68.415  1.00  0.00    -0.311 A  
HETATM   10  O   UNL     1     -12.144  13.222  70.673  1.00  0.00    -0.430 OA 
HETATM   11  C   UNL     1     -11.666  11.002  69.985  1.00  0.00    -0.437 A  
HETATM   12  H   UNL     1     -11.874  14.768  68.879  1.00  0.00     0.000 HD 
HETATM   13  C   UNL     1     -11.062  11.954  67.412  1.00  0.00    -0.336 A  
HETATM   14  O   UNL     1     -11.594  14.172  68.195  1.00  0.00    -0.293 OA 
HETATM   15  C   UNL     1     -11.254  10.117  68.985  1.00  0.00    -0.223 A  
HETATM   16  H   UNL     1     -12.343  12.899  71.544  1.00  0.00     0.000 HD 
ENDBRANCH   6   7
ENDBRANCH   5   6
ENDBRANCH   3   5
ENDBRANCH   2   3
BRANCH   2  17
HETATM   17  C   UNL     1     -11.277   6.611  68.960  1.00  0.00    -0.289 C  
BRANCH  17  18
HETATM   18  C   UNL     1     -10.926   5.689  70.135  1.00  0.00    -0.303 C  
BRANCH  18  19
HETATM   19  C   UNL     1     -10.262   6.469  71.246  1.00  0.00    -0.223 A  
HETATM   20  C   UNL     1     -10.202   5.948  72.546  1.00  0.00    -0.214 A  
HETATM   21  C   UNL     1      -9.652   7.704  70.977  1.00  0.00    -0.169 A  
HETATM   22  C   UNL     1      -8.989   8.403  71.987  1.00  0.00    -0.290 A  
HETATM   23  H   UNL     1      -8.242   8.135  75.155  1.00  0.00     0.000 HD 
HETATM   24  C   UNL     1      -9.540   6.647  73.557  1.00  0.00    -0.194 A  
HETATM   25  C   UNL     1      -8.934   7.864  73.269  1.00  0.00    -0.264 A  
HETATM   26  O   UNL     1      -8.280   8.504  74.280  1.00  0.00    -0.310 OA 
ENDBRANCH  18  19
ENDBRANCH  17  18
ENDBRANCH   2  17
TORSDOF 7
ENDMDL
MODEL      192
REMARK 921   NORMALIZED FREE ENERGY PREDICTED BY IDOCK:   -4.66 KCAL/MOL
REMARK 922        TOTAL FREE ENERGY PREDICTED BY IDOCK:   -7.72 KCAL/MOL
REMARK 923 INTER-LIGAND FREE ENERGY PREDICTED BY IDOCK:   -6.59 KCAL/MOL
REMARK 924 INTRA-LIGAND FREE ENERGY PREDICTED BY IDOCK:   -1.13 KCAL/MOL
REMARK 927      BINDING AFFINITY PREDICTED BY RF-SCORE:    0.00 PKD
ROOT
HETATM    1  C   UNL     1     -12.748  14.022  65.278  1.00  0.00    -0.468 C  
HETATM    2  C   UNL     1     -11.751  13.281  66.176  1.00  0.00    -0.374 C  
ENDROOT
BRANCH   2   3
HETATM    3  N   UNL     1     -11.904  11.820  66.089  1.00  0.00    -0.431 NA 
HETATM    4  H   UNL     1     -12.730  11.585  65.539  1.00  0.00     0.000 HD 
BRANCH   3   5
HETATM    5  C   UNL     1     -10.730  11.099  65.574  1.00  0.00    -0.185 C  
BRANCH   5   6
HETATM    6  C   UNL     1      -9.635  10.858  66.622  1.00  0.00    -0.213 C  
BRANCH   6   7
HETATM    7  C   UNL     1     -10.003   9.777  67.608  1.00  0.00    -0.217 A  
HETATM    8  C   UNL     1     -10.606   7.745  69.420  1.00  0.00    -0.208 A  
HETATM    9  C   UNL     1     -10.471   9.057  69.863  1.00  0.00    -0.215 A  
HETATM   10  O   UNL     1     -10.874   6.746  70.312  1.00  0.00    -0.240 OA 
HETATM   11  C   UNL     1     -10.462   7.430  68.077  1.00  0.00    -0.253 A  
HETATM   12  H   UNL     1     -10.831   8.596  71.813  1.00  0.00     0.000 HD 
HETATM   13  C   UNL     1     -10.174  10.080  68.967  1.00  0.00    -0.216 A  
HETATM   14  O   UNL     1     -10.628   9.294  71.202  1.00  0.00    -0.279 OA 
HETATM   15  C   UNL     1     -10.164   8.450  67.170  1.00  0.00    -0.362 A  
HETATM   16  H   UNL     1     -10.966   5.850  70.009  1.00  0.00     0.000 HD 
ENDBRANCH   6   7
ENDBRANCH   5   6
ENDBRANCH   3   5
ENDBRANCH   2   3
BRANCH   2  17
HETATM   17  C   UNL     1     -11.940  13.745  67.635  1.00  0.00    -0.392 C  
BRANCH  17  18
HETATM   18  C   UNL     1     -10.639  14.207  68.303  1.00  0.00    -0.254 C  
BRANCH  18  19
HETATM   19  C   UNL     1     -10.112  15.458  67.638  1.00  0.00    -0.236 A  
HETATM   20  C   UNL     1     -10.780  16.681  67.790  1.00  0.00    -0.327 A  
HETATM   21  C   UNL     1      -8.917  15.419  66.904  1.00  0.00    -0.273 A  
HETATM   22  C   UNL     1      -8.395  16.582  66.335  1.00  0.00    -0.358 A  
HETATM   23  H   UNL     1      -9.046  19.774  66.097  1.00  0.00     0.000 HD 
HETATM   24  C   UNL     1     -10.259  17.844  67.219  1.00  0.00    -0.360 A  
HETATM   25  C   UNL     1      -9.070  17.787  66.504  1.00  0.00    -0.264 A  
HETATM   26  O   UNL     1      -8.585  18.951  65.982  1.00  0.00    -0.467 OA 
ENDBRANCH  18  19
ENDBRANCH  17  18
ENDBRANCH   2  17
TORSDOF 7
ENDMDL
MODEL      193
REMARK 921   NORMALIZED FREE ENERGY PREDICTED BY IDOCK:   -4.64 KCAL/MOL
REMARK 922        TOTAL FREE ENERGY PREDICTED BY IDOCK:   -7.70 KCAL/MOL
REMARK 923 INTER-LIGAND FREE ENERGY PREDICTED BY IDOCK:   -6.75 KCAL/MOL
REMARK 924 INTRA-LIGAND FREE ENERGY PREDICTED BY IDOCK:   -0.95 KCAL/MOL
REMARK 927      BINDING AFFINITY PREDICTED BY RF-SCORE:    0.00 PKD
ROOT
HETATM    1  C   UNL     1     -12.153  14.772  64.681  1.00  0.00    -0.437 C  
HETATM    2  C   UNL     1     -11.830  13.590  65.602  1.00  0.00    -0.369 C  
ENDROOT
BRANCH   2   3
HETATM    3  N   UNL     1     -11.761  13.991  67.017  1.00  0.00    -0.376 NA 
HETATM    4  H   UNL     1     -11.819  13.169  67.618  1.00  0.00     0.000 HD 
BRANCH   3   5
HETATM    5  C   UNL     1     -10.587  14.801  67.380  1.00  0.00    -0.268 C  
BRANCH   5   6
HETATM    6  C   UNL     1     -10.934  16.182  67.950  1.00  0.00    -0.318 C  
BRANCH   6   7
HETATM    7  C   UNL     1     -10.091  17.285  67.357  1.00  0.00    -0.307 A  
HETATM    8  C   UNL     1      -8.525  19.354  66.338  1.00  0.00    -0.346 A  
HETATM    9  C   UNL     1      -8.050  18.045  66.320  1.00  0.00    -0.224 A  
HETATM   10  O   UNL     1      -7.746  20.370  65.864  1.00  0.00    -0.512 OA 
HETATM   11  C   UNL     1      -9.783  19.645  66.842  1.00  0.00    -0.482 A  
HETATM   12  H   UNL     1      -6.271  18.541  65.464  1.00  0.00     0.000 HD 
HETATM   13  C   UNL     1      -8.825  17.004  66.823  1.00  0.00    -0.267 A  
HETATM   14  O   UNL     1      -6.800  17.831  65.806  1.00  0.00    -0.298 OA 
HETATM   15  C   UNL     1     -10.568  18.607  67.349  1.00  0.00    -0.490 A  
HETATM   16  H   UNL     1      -8.069  21.263  65.876  1.00  0.00     0.000 HD 
ENDBRANCH   6   7
ENDBRANCH   5   6
ENDBRANCH   3   5
ENDBRANCH   2   3
BRANCH   2  17
HETATM   17  C   UNL     1     -10.493  12.959  65.167  1.00  0.00    -0.326 C  
BRANCH  17  18
HETATM   18  C   UNL     1     -10.485  11.427  65.250  1.00  0.00    -0.340 C  
BRANCH  18  19
HETATM   19  C   UNL     1      -9.901  10.965  66.565  1.00  0.00    -0.245 A  
HETATM   20  C   UNL     1      -8.612  11.359  66.950  1.00  0.00    -0.154 A  
HETATM   21  C   UNL     1     -10.663  10.176  67.439  1.00  0.00    -0.336 A  
HETATM   22  C   UNL     1     -10.151   9.793  68.680  1.00  0.00    -0.186 A  
HETATM   23  H   UNL     1      -7.467  10.147  70.507  1.00  0.00     0.000 HD 
HETATM   24  C   UNL     1      -8.098  10.975  68.190  1.00  0.00    -0.122 A  
HETATM   25  C   UNL     1      -8.872  10.202  69.046  1.00  0.00    -0.166 A  
HETATM   26  O   UNL     1      -8.340   9.867  70.257  1.00  0.00    -0.180 OA 
ENDBRANCH  18  19
ENDBRANCH  17  18
ENDBRANCH   2  17
TORSDOF 7
ENDMDL
MODEL      194
REMARK 921   NORMALIZED FREE ENERGY PREDICTED BY IDOCK:   -4.63 KCAL/MOL
REMARK 922        TOTAL FREE ENERGY PREDICTED BY IDOCK:   -7.69 KCAL/MOL
REMARK 923 INTER-LIGAND FREE ENERGY PREDICTED BY IDOCK:   -7.12 KCAL/MOL
REMARK 924 INTRA-LIGAND FREE ENERGY PREDICTED BY IDOCK:   -0.57 KCAL/MOL
REMARK 927      BINDING AFFINITY PREDICTED BY RF-SCORE:    0.00 PKD
ROOT
HETATM    1  C   UNL     1     -11.224  14.421  64.761  1.00  0.00    -0.391 C  
HETATM    2  C   UNL     1     -12.206  13.312  65.156  1.00  0.00    -0.443 C  
ENDROOT
BRANCH   2   3
HETATM    3  N   UNL     1     -12.160  13.016  66.597  1.00  0.00    -0.398 NA 
HETATM    4  H   UNL     1     -11.523  12.239  66.775  1.00  0.00     0.000 HD 
BRANCH   3   5
HETATM    5  C   UNL     1     -11.818  14.158  67.459  1.00  0.00    -0.401 C  
BRANCH   5   6
HETATM    6  C   UNL     1     -10.965  13.787  68.679  1.00  0.00    -0.287 C  
BRANCH   6   7
HETATM    7  C   UNL     1     -11.665  14.074  69.985  1.00  0.00    -0.349 A  
HETATM    8  C   UNL     1     -12.909  14.544  72.435  1.00  0.00    -0.360 A  
HETATM    9  C   UNL     1     -12.080  15.513  71.877  1.00  0.00    -0.412 A  
HETATM   10  O   UNL     1     -13.496  14.764  73.649  1.00  0.00    -0.453 OA 
HETATM   11  C   UNL     1     -13.142  13.345  71.780  1.00  0.00    -0.479 A  
HETATM   12  H   UNL     1     -12.322  16.824  73.414  1.00  0.00     0.000 HD 
HETATM   13  C   UNL     1     -11.458  15.290  70.652  1.00  0.00    -0.353 A  
HETATM   14  O   UNL     1     -11.897  16.673  72.579  1.00  0.00    -0.506 OA 
HETATM   15  C   UNL     1     -12.521  13.112  70.550  1.00  0.00    -0.322 A  
HETATM   16  H   UNL     1     -14.062  14.102  74.031  1.00  0.00     0.000 HD 
ENDBRANCH   6   7
ENDBRANCH   5   6
ENDBRANCH   3   5
ENDBRANCH   2   3
BRANCH   2  17
HETATM   17  C   UNL     1     -11.888  12.040  64.345  1.00  0.00    -0.395 C  
BRANCH  17  18
HETATM   18  C   UNL     1     -10.529  12.092  63.635  1.00  0.00    -0.495 C  
BRANCH  18  19
HETATM   19  C   UNL     1      -9.493  11.305  64.404  1.00  0.00    -0.206 A  
HETATM   20  C   UNL     1      -8.634  10.420  63.740  1.00  0.00    -0.178 A  
HETATM   21  C   UNL     1      -9.347  11.491  65.786  1.00  0.00    -0.238 A  
HETATM   22  C   UNL     1      -8.355  10.809  66.493  1.00  0.00    -0.146 A  
HETATM   23  H   UNL     1      -5.932   8.676  65.998  1.00  0.00     0.000 HD 
HETATM   24  C   UNL     1      -7.642   9.736  64.447  1.00  0.00    -0.135 A  
HETATM   25  C   UNL     1      -7.507   9.940  65.814  1.00  0.00    -0.110 A  
HETATM   26  O   UNL     1      -6.512   9.269  66.462  1.00  0.00    -0.065 OA 
ENDBRANCH  18  19
ENDBRANCH  17  18
ENDBRANCH   2  17
TORSDOF 7
ENDMDL
MODEL      195
REMARK 921   NORMALIZED FREE ENERGY PREDICTED BY IDOCK:   -4.63 KCAL/MOL
REMARK 922        TOTAL FREE ENERGY PREDICTED BY IDOCK:   -7.68 KCAL/MOL
REMARK 923 INTER-LIGAND FREE ENERGY PREDICTED BY IDOCK:   -6.54 KCAL/MOL
REMARK 924 INTRA-LIGAND FREE ENERGY PREDICTED BY IDOCK:   -1.14 KCAL/MOL
REMARK 927      BINDING AFFINITY PREDICTED BY RF-SCORE:    0.00 PKD
ROOT
HETATM    1  C   UNL     1      -7.308   8.492  64.503  1.00  0.00    -0.093 C  
HETATM    2  C   UNL     1      -8.152   8.999  65.678  1.00  0.00    -0.115 C  
ENDROOT
BRANCH   2   3
HETATM    3  N   UNL     1      -8.456   7.932  66.645  1.00  0.00    -0.126 NA 
HETATM    4  H   UNL     1      -7.801   7.159  66.533  1.00  0.00     0.000 HD 
BRANCH   3   5
HETATM    5  C   UNL     1      -8.500   8.358  68.052  1.00  0.00    -0.132 C  
BRANCH   5   6
HETATM    6  C   UNL     1      -9.693   7.799  68.838  1.00  0.00    -0.160 C  
BRANCH   6   7
HETATM    7  C   UNL     1     -10.517   8.880  69.492  1.00  0.00    -0.229 A  
HETATM    8  C   UNL     1     -12.096  10.872  70.638  1.00  0.00    -0.371 A  
HETATM    9  C   UNL     1     -11.960   9.640  71.271  1.00  0.00    -0.380 A  
HETATM   10  O   UNL     1     -12.891  11.838  71.186  1.00  0.00    -0.350 OA 
HETATM   11  C   UNL     1     -11.439  11.135  69.446  1.00  0.00    -0.368 A  
HETATM   12  H   UNL     1     -13.174  10.134  72.828  1.00  0.00     0.000 HD 
HETATM   13  C   UNL     1     -11.171   8.640  70.710  1.00  0.00    -0.298 A  
HETATM   14  O   UNL     1     -12.636   9.451  72.445  1.00  0.00    -0.329 OA 
HETATM   15  C   UNL     1     -10.645  10.137  68.875  1.00  0.00    -0.237 A  
HETATM   16  H   UNL     1     -12.984  12.679  70.754  1.00  0.00     0.000 HD 
ENDBRANCH   6   7
ENDBRANCH   5   6
ENDBRANCH   3   5
ENDBRANCH   2   3
BRANCH   2  17
HETATM   17  C   UNL     1      -9.461   9.609  65.137  1.00  0.00    -0.332 C  
BRANCH  17  18
HETATM   18  C   UNL     1      -9.270  10.985  64.486  1.00  0.00    -0.185 C  
BRANCH  18  19
HETATM   19  C   UNL     1     -10.465  11.872  64.751  1.00  0.00    -0.333 A  
HETATM   20  C   UNL     1     -10.589  12.555  65.969  1.00  0.00    -0.289 A  
HETATM   21  C   UNL     1     -11.438  12.062  63.759  1.00  0.00    -0.547 A  
HETATM   22  C   UNL     1     -12.515  12.924  63.977  1.00  0.00    -0.407 A  
HETATM   23  H   UNL     1     -13.709  14.924  66.266  1.00  0.00     0.000 HD 
HETATM   24  C   UNL     1     -11.667  13.415  66.188  1.00  0.00    -0.405 A  
HETATM   25  C   UNL     1     -12.615  13.598  65.190  1.00  0.00    -0.430 A  
HETATM   26  O   UNL     1     -13.640  14.464  65.437  1.00  0.00    -0.428 OA 
ENDBRANCH  18  19
ENDBRANCH  17  18
ENDBRANCH   2  17
TORSDOF 7
ENDMDL
MODEL      196
REMARK 921   NORMALIZED FREE ENERGY PREDICTED BY IDOCK:   -4.63 KCAL/MOL
REMARK 922        TOTAL FREE ENERGY PREDICTED BY IDOCK:   -7.68 KCAL/MOL
REMARK 923 INTER-LIGAND FREE ENERGY PREDICTED BY IDOCK:   -6.95 KCAL/MOL
REMARK 924 INTRA-LIGAND FREE ENERGY PREDICTED BY IDOCK:   -0.74 KCAL/MOL
REMARK 927      BINDING AFFINITY PREDICTED BY RF-SCORE:    0.00 PKD
ROOT
HETATM    1  C   UNL     1     -11.093  15.742  71.032  1.00  0.00    -0.327 C  
HETATM    2  C   UNL     1     -11.896  16.028  69.759  1.00  0.00    -0.227 C  
ENDROOT
BRANCH   2   3
HETATM    3  N   UNL     1     -12.389  14.796  69.123  1.00  0.00    -0.577 NA 
HETATM    4  H   UNL     1     -13.408  14.800  69.092  1.00  0.00     0.000 HD 
BRANCH   3   5
HETATM    5  C   UNL     1     -11.842  14.521  67.786  1.00  0.00    -0.357 C  
BRANCH   5   6
HETATM    6  C   UNL     1     -10.739  13.455  67.768  1.00  0.00    -0.259 C  
BRANCH   6   7
HETATM    7  C   UNL     1     -10.660  12.722  66.452  1.00  0.00    -0.273 A  
HETATM    8  C   UNL     1     -10.559  11.304  64.053  1.00  0.00    -0.386 A  
HETATM    9  C   UNL     1     -11.280  12.492  64.131  1.00  0.00    -0.382 A  
HETATM   10  O   UNL     1     -10.533  10.596  62.885  1.00  0.00    -0.705 OA 
HETATM   11  C   UNL     1      -9.869  10.818  65.153  1.00  0.00    -0.333 A  
HETATM   12  H   UNL     1     -11.899  12.423  62.193  1.00  0.00     0.000 HD 
HETATM   13  C   UNL     1     -11.333  13.210  65.323  1.00  0.00    -0.321 A  
HETATM   14  O   UNL     1     -11.935  12.913  63.006  1.00  0.00    -0.428 OA 
HETATM   15  C   UNL     1      -9.917  11.532  66.353  1.00  0.00    -0.241 A  
HETATM   16  H   UNL     1     -10.041   9.785  62.831  1.00  0.00     0.000 HD 
ENDBRANCH   6   7
ENDBRANCH   5   6
ENDBRANCH   3   5
ENDBRANCH   2   3
BRANCH   2  17
HETATM   17  C   UNL     1     -11.013  16.815  68.769  1.00  0.00    -0.275 C  
BRANCH  17  18
HETATM   18  C   UNL     1      -9.895  17.615  69.450  1.00  0.00     0.067 C  
BRANCH  18  19
HETATM   19  C   UNL     1      -8.978  18.235  68.421  1.00  0.00    -0.324 A  
HETATM   20  C   UNL     1      -8.154  19.316  68.761  1.00  0.00    -0.391 A  
HETATM   21  C   UNL     1      -8.904  17.700  67.127  1.00  0.00    -0.251 A  
HETATM   22  C   UNL     1      -8.018  18.233  66.188  1.00  0.00    -0.219 A  
HETATM   23  H   UNL     1      -5.752  20.569  65.915  1.00  0.00     0.000 HD 
HETATM   24  C   UNL     1      -7.269  19.851  67.822  1.00  0.00    -0.313 A  
HETATM   25  C   UNL     1      -7.203  19.301  66.548  1.00  0.00    -0.229 A  
HETATM   26  O   UNL     1      -6.309  19.840  65.669  1.00  0.00    -0.198 OA 
ENDBRANCH  18  19
ENDBRANCH  17  18
ENDBRANCH   2  17
TORSDOF 7
ENDMDL
MODEL      197
REMARK 921   NORMALIZED FREE ENERGY PREDICTED BY IDOCK:   -4.62 KCAL/MOL
REMARK 922        TOTAL FREE ENERGY PREDICTED BY IDOCK:   -7.67 KCAL/MOL
REMARK 923 INTER-LIGAND FREE ENERGY PREDICTED BY IDOCK:   -5.50 KCAL/MOL
REMARK 924 INTRA-LIGAND FREE ENERGY PREDICTED BY IDOCK:   -2.17 KCAL/MOL
REMARK 927      BINDING AFFINITY PREDICTED BY RF-SCORE:    0.00 PKD
ROOT
HETATM    1  C   UNL     1     -12.403   9.225  71.923  1.00  0.00    -0.454 C  
HETATM    2  C   UNL     1     -11.404   9.674  70.850  1.00  0.00    -0.360 C  
ENDROOT
BRANCH   2   3
HETATM    3  N   UNL     1     -10.013   9.617  71.327  1.00  0.00    -0.219 NA 
HETATM    4  H   UNL     1      -9.938   8.974  72.116  1.00  0.00     0.000 HD 
BRANCH   3   5
HETATM    5  C   UNL     1      -9.015   9.279  70.302  1.00  0.00    -0.229 C  
BRANCH   5   6
HETATM    6  C   UNL     1      -9.580   8.486  69.116  1.00  0.00    -0.167 C  
BRANCH   6   7
HETATM    7  C   UNL     1      -9.294   9.144  67.788  1.00  0.00    -0.152 A  
HETATM    8  C   UNL     1      -8.823  10.418  65.353  1.00  0.00    -0.179 A  
HETATM    9  C   UNL     1      -7.840  10.411  66.338  1.00  0.00    -0.128 A  
HETATM   10  O   UNL     1      -8.602  11.066  64.171  1.00  0.00    -0.371 OA 
HETATM   11  C   UNL     1     -10.037   9.780  65.557  1.00  0.00    -0.242 A  
HETATM   12  H   UNL     1      -6.514  11.493  65.237  1.00  0.00     0.000 HD 
HETATM   13  C   UNL     1      -8.063   9.775  67.556  1.00  0.00    -0.114 A  
HETATM   14  O   UNL     1      -6.666  11.059  66.067  1.00  0.00    -0.109 OA 
HETATM   15  C   UNL     1     -10.270   9.139  66.776  1.00  0.00    -0.331 A  
HETATM   16  H   UNL     1      -9.273  11.070  63.498  1.00  0.00     0.000 HD 
ENDBRANCH   6   7
ENDBRANCH   5   6
ENDBRANCH   3   5
ENDBRANCH   2   3
BRANCH   2  17
HETATM   17  C   UNL     1     -11.750  11.108  70.403  1.00  0.00    -0.415 C  
BRANCH  17  18
HETATM   18  C   UNL     1     -12.065  11.222  68.906  1.00  0.00    -0.292 C  
BRANCH  18  19
HETATM   19  C   UNL     1     -11.263  12.337  68.274  1.00  0.00    -0.315 A  
HETATM   20  C   UNL     1     -10.058  12.763  68.849  1.00  0.00     0.051 A  
HETATM   21  C   UNL     1     -11.692  12.924  67.074  1.00  0.00    -0.447 A  
HETATM   22  C   UNL     1     -10.927  13.915  66.456  1.00  0.00    -0.300 A  
HETATM   23  H   UNL     1      -8.125  15.543  66.858  1.00  0.00     0.000 HD 
HETATM   24  C   UNL     1      -9.294  13.755  68.233  1.00  0.00    -0.209 A  
HETATM   25  C   UNL     1      -9.730  14.318  67.040  1.00  0.00    -0.253 A  
HETATM   26  O   UNL     1      -8.943  15.269  66.460  1.00  0.00    -0.268 OA 
ENDBRANCH  18  19
ENDBRANCH  17  18
ENDBRANCH   2  17
TORSDOF 7
ENDMDL
MODEL      198
REMARK 921   NORMALIZED FREE ENERGY PREDICTED BY IDOCK:   -4.60 KCAL/MOL
REMARK 922        TOTAL FREE ENERGY PREDICTED BY IDOCK:   -7.65 KCAL/MOL
REMARK 923 INTER-LIGAND FREE ENERGY PREDICTED BY IDOCK:   -6.65 KCAL/MOL
REMARK 924 INTRA-LIGAND FREE ENERGY PREDICTED BY IDOCK:   -1.00 KCAL/MOL
REMARK 927      BINDING AFFINITY PREDICTED BY RF-SCORE:    0.00 PKD
ROOT
HETATM    1  C   UNL     1     -11.709  15.549  68.354  1.00  0.00    -0.323 C  
HETATM    2  C   UNL     1     -11.352  14.222  69.034  1.00  0.00    -0.272 C  
ENDROOT
BRANCH   2   3
HETATM    3  N   UNL     1      -9.930  14.155  69.410  1.00  0.00    -0.409 NA 
HETATM    4  H   UNL     1      -9.835  13.817  70.367  1.00  0.00     0.000 HD 
BRANCH   3   5
HETATM    5  C   UNL     1      -9.083  13.362  68.506  1.00  0.00    -0.077 C  
BRANCH   5   6
HETATM    6  C   UNL     1      -7.597  13.744  68.547  1.00  0.00    -0.134 C  
BRANCH   6   7
HETATM    7  C   UNL     1      -7.368  15.214  68.293  1.00  0.00    -0.114 A  
HETATM    8  C   UNL     1      -6.860  17.916  67.829  1.00  0.00    -0.191 A  
HETATM    9  C   UNL     1      -7.425  17.130  66.828  1.00  0.00    -0.228 A  
HETATM   10  O   UNL     1      -6.586  19.232  67.591  1.00  0.00    -0.207 OA 
HETATM   11  C   UNL     1      -6.559  17.376  69.070  1.00  0.00    -0.232 A  
HETATM   12  H   UNL     1      -7.519  18.649  65.477  1.00  0.00     0.000 HD 
HETATM   13  C   UNL     1      -7.686  15.781  67.051  1.00  0.00    -0.267 A  
HETATM   14  O   UNL     1      -7.697  17.729  65.629  1.00  0.00    -0.545 OA 
HETATM   15  C   UNL     1      -6.818  16.023  69.303  1.00  0.00    -0.201 A  
HETATM   16  H   UNL     1      -6.200  19.769  68.274  1.00  0.00     0.000 HD 
ENDBRANCH   6   7
ENDBRANCH   5   6
ENDBRANCH   3   5
ENDBRANCH   2   3
BRANCH   2  17
HETATM   17  C   UNL     1     -11.703  13.057  68.088  1.00  0.00    -0.391 C  
BRANCH  17  18
HETATM   18  C   UNL     1     -12.074  13.511  66.671  1.00  0.00    -0.447 C  
BRANCH  18  19
HETATM   19  C   UNL     1     -11.468  12.589  65.638  1.00  0.00    -0.400 A  
HETATM   20  C   UNL     1     -11.495  12.927  64.278  1.00  0.00    -0.427 A  
HETATM   21  C   UNL     1     -10.827  11.407  66.035  1.00  0.00    -0.306 A  
HETATM   22  C   UNL     1     -10.216  10.579  65.091  1.00  0.00    -0.358 A  
HETATM   23  H   UNL     1      -9.667  10.411  61.876  1.00  0.00     0.000 HD 
HETATM   24  C   UNL     1     -10.886  12.098  63.333  1.00  0.00    -0.474 A  
HETATM   25  C   UNL     1     -10.247  10.936  63.747  1.00  0.00    -0.343 A  
HETATM   26  O   UNL     1      -9.647  10.166  62.794  1.00  0.00    -0.302 OA 
ENDBRANCH  18  19
ENDBRANCH  17  18
ENDBRANCH   2  17
TORSDOF 7
ENDMDL
MODEL      199
REMARK 921   NORMALIZED FREE ENERGY PREDICTED BY IDOCK:   -4.59 KCAL/MOL
REMARK 922        TOTAL FREE ENERGY PREDICTED BY IDOCK:   -7.63 KCAL/MOL
REMARK 923 INTER-LIGAND FREE ENERGY PREDICTED BY IDOCK:   -6.44 KCAL/MOL
REMARK 924 INTRA-LIGAND FREE ENERGY PREDICTED BY IDOCK:   -1.19 KCAL/MOL
REMARK 927      BINDING AFFINITY PREDICTED BY RF-SCORE:    0.00 PKD
ROOT
HETATM    1  C   UNL     1      -7.775   9.748  65.969  1.00  0.00    -0.104 C  
HETATM    2  C   UNL     1      -8.938   9.102  66.731  1.00  0.00    -0.128 C  
ENDROOT
BRANCH   2   3
HETATM    3  N   UNL     1     -10.247   9.565  66.244  1.00  0.00    -0.255 NA 
HETATM    4  H   UNL     1     -10.996   9.125  66.777  1.00  0.00     0.000 HD 
BRANCH   3   5
HETATM    5  C   UNL     1     -10.426  11.025  66.228  1.00  0.00    -0.254 C  
BRANCH   5   6
HETATM    6  C   UNL     1     -11.511  11.532  67.187  1.00  0.00    -0.313 C  
BRANCH   6   7
HETATM    7  C   UNL     1     -11.334  12.986  67.549  1.00  0.00    -0.346 A  
HETATM    8  C   UNL     1     -11.059  15.693  68.155  1.00  0.00    -0.330 A  
HETATM    9  C   UNL     1     -11.703  14.840  69.048  1.00  0.00    -0.312 A  
HETATM   10  O   UNL     1     -10.950  17.024  68.440  1.00  0.00    -0.352 OA 
HETATM   11  C   UNL     1     -10.532  15.211  66.967  1.00  0.00    -0.282 A  
HETATM   12  H   UNL     1     -12.103  16.309  70.399  1.00  0.00     0.000 HD 
HETATM   13  C   UNL     1     -11.842  13.487  68.757  1.00  0.00    -0.390 A  
HETATM   14  O   UNL     1     -12.197  15.385  70.201  1.00  0.00    -0.340 OA 
HETATM   15  C   UNL     1     -10.667  13.853  66.667  1.00  0.00    -0.281 A  
HETATM   16  H   UNL     1     -10.511  17.607  67.831  1.00  0.00     0.000 HD 
ENDBRANCH   6   7
ENDBRANCH   5   6
ENDBRANCH   3   5
ENDBRANCH   2   3
BRANCH   2  17
HETATM   17  C   UNL     1      -8.795   9.413  68.234  1.00  0.00    -0.128 C  
BRANCH  17  18
HETATM   18  C   UNL     1      -9.109   8.214  69.139  1.00  0.00    -0.148 C  
BRANCH  18  19
HETATM   19  C   UNL     1     -10.344   8.479  69.969  1.00  0.00    -0.213 A  
HETATM   20  C   UNL     1     -11.067   7.418  70.529  1.00  0.00    -0.280 A  
HETATM   21  C   UNL     1     -10.750   9.796  70.230  1.00  0.00    -0.358 A  
HETATM   22  C   UNL     1     -11.858  10.049  71.042  1.00  0.00    -0.476 A  
HETATM   23  H   UNL     1     -14.111   8.454  72.787  1.00  0.00     0.000 HD 
HETATM   24  C   UNL     1     -12.176   7.670  71.339  1.00  0.00    -0.351 A  
HETATM   25  C   UNL     1     -12.558   8.981  71.595  1.00  0.00    -0.348 A  
HETATM   26  O   UNL     1     -13.633   9.183  72.409  1.00  0.00    -0.453 OA 
ENDBRANCH  18  19
ENDBRANCH  17  18
ENDBRANCH   2  17
TORSDOF 7
ENDMDL
MODEL      200
REMARK 921   NORMALIZED FREE ENERGY PREDICTED BY IDOCK:   -4.58 KCAL/MOL
REMARK 922        TOTAL FREE ENERGY PREDICTED BY IDOCK:   -7.62 KCAL/MOL
REMARK 923 INTER-LIGAND FREE ENERGY PREDICTED BY IDOCK:   -6.75 KCAL/MOL
REMARK 924 INTRA-LIGAND FREE ENERGY PREDICTED BY IDOCK:   -0.87 KCAL/MOL
REMARK 927      BINDING AFFINITY PREDICTED BY RF-SCORE:    0.00 PKD
ROOT
HETATM    1  C   UNL     1      -9.011  10.065  66.071  1.00  0.00    -0.174 C  
HETATM    2  C   UNL     1      -9.559   9.477  67.376  1.00  0.00    -0.141 C  
ENDROOT
BRANCH   2   3
HETATM    3  N   UNL     1      -9.343  10.374  68.523  1.00  0.00    -0.153 NA 
HETATM    4  H   UNL     1      -8.560  10.042  69.086  1.00  0.00     0.000 HD 
BRANCH   3   5
HETATM    5  C   UNL     1      -9.155  11.792  68.181  1.00  0.00    -0.185 C  
BRANCH   5   6
HETATM    6  C   UNL     1     -10.427  12.641  68.314  1.00  0.00    -0.249 C  
BRANCH   6   7
HETATM    7  C   UNL     1     -10.970  13.088  66.979  1.00  0.00    -0.289 A  
HETATM    8  C   UNL     1     -11.901  13.889  64.476  1.00  0.00    -0.426 A  
HETATM    9  C   UNL     1     -12.485  12.803  65.123  1.00  0.00    -0.501 A  
HETATM   10  O   UNL     1     -12.340  14.263  63.238  1.00  0.00    -1.118 OA 
HETATM   11  C   UNL     1     -10.866  14.595  65.068  1.00  0.00    -0.431 A  
HETATM   12  H   UNL     1     -13.813  12.430  63.626  1.00  0.00     0.000 HD 
HETATM   13  C   UNL     1     -12.031  12.398  66.375  1.00  0.00    -0.346 A  
HETATM   14  O   UNL     1     -13.503  12.154  64.480  1.00  0.00    -0.614 OA 
HETATM   15  C   UNL     1     -10.403  14.195  66.324  1.00  0.00    -0.294 A  
HETATM   16  H   UNL     1     -11.941  15.003  62.796  1.00  0.00     0.000 HD 
ENDBRANCH   6   7
ENDBRANCH   5   6
ENDBRANCH   3   5
ENDBRANCH   2   3
BRANCH   2  17
HETATM   17  C   UNL     1      -8.890   8.114  67.640  1.00  0.00    -0.136 C  
BRANCH  17  18
HETATM   18  C   UNL     1      -9.848   7.065  68.219  1.00  0.00    -0.150 C  
BRANCH  18  19
HETATM   19  C   UNL     1      -9.905   7.167  69.726  1.00  0.00    -0.173 A  
HETATM   20  C   UNL     1     -11.132   7.089  70.400  1.00  0.00    -0.323 A  
HETATM   21  C   UNL     1      -8.724   7.291  70.472  1.00  0.00    -0.148 A  
HETATM   22  C   UNL     1      -8.765   7.330  71.867  1.00  0.00    -0.124 A  
HETATM   23  H   UNL     1     -10.915   7.197  74.321  1.00  0.00     0.000 HD 
HETATM   24  C   UNL     1     -11.174   7.130  71.795  1.00  0.00    -0.278 A  
HETATM   25  C   UNL     1      -9.992   7.243  72.516  1.00  0.00    -0.177 A  
HETATM   26  O   UNL     1     -10.077   7.257  73.878  1.00  0.00    -0.324 OA 
ENDBRANCH  18  19
ENDBRANCH  17  18
ENDBRANCH   2  17
TORSDOF 7
ENDMDL
MODEL      201
REMARK 921   NORMALIZED FREE ENERGY PREDICTED BY IDOCK:   -4.58 KCAL/MOL
REMARK 922        TOTAL FREE ENERGY PREDICTED BY IDOCK:   -7.62 KCAL/MOL
REMARK 923 INTER-LIGAND FREE ENERGY PREDICTED BY IDOCK:   -6.63 KCAL/MOL
REMARK 924 INTRA-LIGAND FREE ENERGY PREDICTED BY IDOCK:   -0.99 KCAL/MOL
REMARK 927      BINDING AFFINITY PREDICTED BY RF-SCORE:    0.00 PKD
ROOT
HETATM    1  C   UNL     1      -7.896   9.040  67.703  1.00  0.00    -0.101 C  
HETATM    2  C   UNL     1      -9.093   9.789  68.300  1.00  0.00    -0.122 C  
ENDROOT
BRANCH   2   3
HETATM    3  N   UNL     1      -9.473   9.266  69.622  1.00  0.00    -0.170 NA 
HETATM    4  H   UNL     1      -9.327   9.978  70.337  1.00  0.00     0.000 HD 
BRANCH   3   5
HETATM    5  C   UNL     1     -10.840   8.730  69.712  1.00  0.00    -0.193 C  
BRANCH   5   6
HETATM    6  C   UNL     1     -10.938   7.386  70.445  1.00  0.00    -0.269 C  
BRANCH   6   7
HETATM    7  C   UNL     1     -10.589   6.215  69.559  1.00  0.00    -0.350 A  
HETATM    8  C   UNL     1     -10.003   4.004  67.965  1.00  0.00     0.103 A  
HETATM    9  C   UNL     1     -10.622   5.121  67.409  1.00  0.00    -0.034 A  
HETATM   10  O   UNL     1      -9.742   2.911  67.189  1.00  0.00    -0.399 OA 
HETATM   11  C   UNL     1      -9.655   3.979  69.306  1.00  0.00    -0.247 A  
HETATM   12  H   UNL     1     -10.735   4.318  65.542  1.00  0.00     0.000 HD 
HETATM   13  C   UNL     1     -10.915   6.231  68.195  1.00  0.00    -0.412 A  
HETATM   14  O   UNL     1     -10.935   5.076  66.078  1.00  0.00    -0.243 OA 
HETATM   15  C   UNL     1      -9.946   5.089  70.104  1.00  0.00    -0.328 A  
HETATM   16  H   UNL     1      -9.320   2.148  67.568  1.00  0.00     0.000 HD 
ENDBRANCH   6   7
ENDBRANCH   5   6
ENDBRANCH   3   5
ENDBRANCH   2   3
BRANCH   2  17
HETATM   17  C   UNL     1     -10.288   9.691  67.331  1.00  0.00    -0.306 C  
BRANCH  17  18
HETATM   18  C   UNL     1      -9.919  10.000  65.874  1.00  0.00    -0.339 C  
BRANCH  18  19
HETATM   19  C   UNL     1     -10.639  11.238  65.391  1.00  0.00    -0.312 A  
HETATM   20  C   UNL     1     -10.928  12.285  66.276  1.00  0.00    -0.327 A  
HETATM   21  C   UNL     1     -10.980  11.375  64.037  1.00  0.00    -0.428 A  
HETATM   22  C   UNL     1     -11.595  12.540  63.574  1.00  0.00    -0.584 A  
HETATM   23  H   UNL     1     -12.632  15.438  64.666  1.00  0.00     0.000 HD 
HETATM   24  C   UNL     1     -11.544  13.450  65.814  1.00  0.00    -0.358 A  
HETATM   25  C   UNL     1     -11.866  13.571  64.469  1.00  0.00    -0.405 A  
HETATM   26  O   UNL     1     -12.447  14.734  64.055  1.00  0.00    -0.803 OA 
ENDBRANCH  18  19
ENDBRANCH  17  18
ENDBRANCH   2  17
TORSDOF 7
ENDMDL
MODEL      202
REMARK 921   NORMALIZED FREE ENERGY PREDICTED BY IDOCK:   -4.58 KCAL/MOL
REMARK 922        TOTAL FREE ENERGY PREDICTED BY IDOCK:   -7.61 KCAL/MOL
REMARK 923 INTER-LIGAND FREE ENERGY PREDICTED BY IDOCK:   -5.80 KCAL/MOL
REMARK 924 INTRA-LIGAND FREE ENERGY PREDICTED BY IDOCK:   -1.82 KCAL/MOL
REMARK 927      BINDING AFFINITY PREDICTED BY RF-SCORE:    0.00 PKD
ROOT
HETATM    1  C   UNL     1      -8.427   7.774  71.389  1.00  0.00    -0.125 C  
HETATM    2  C   UNL     1      -9.109   9.075  70.951  1.00  0.00    -0.250 C  
ENDROOT
BRANCH   2   3
HETATM    3  N   UNL     1     -10.552   8.898  70.727  1.00  0.00    -0.211 NA 
HETATM    4  H   UNL     1     -10.867   8.021  71.142  1.00  0.00     0.000 HD 
BRANCH   3   5
HETATM    5  C   UNL     1     -11.397  10.010  71.191  1.00  0.00    -0.323 C  
BRANCH   5   6
HETATM    6  C   UNL     1     -12.389  10.523  70.138  1.00  0.00    -0.339 C  
BRANCH   6   7
HETATM    7  C   UNL     1     -12.150  11.966  69.769  1.00  0.00    -0.321 A  
HETATM    8  C   UNL     1     -11.781  14.633  69.045  1.00  0.00    -0.306 A  
HETATM    9  C   UNL     1     -12.013  14.297  70.376  1.00  0.00    -0.332 A  
HETATM   10  O   UNL     1     -11.629  15.942  68.687  1.00  0.00    -0.382 OA 
HETATM   11  C   UNL     1     -11.713  13.653  68.067  1.00  0.00    -0.387 A  
HETATM   12  H   UNL     1     -11.943  16.223  71.032  1.00  0.00     0.000 HD 
HETATM   13  C   UNL     1     -12.194  12.969  70.749  1.00  0.00    -0.359 A  
HETATM   14  O   UNL     1     -12.066  15.316  71.287  1.00  0.00    -0.292 OA 
HETATM   15  C   UNL     1     -11.893  12.316  68.432  1.00  0.00    -0.358 A  
HETATM   16  H   UNL     1     -11.471  16.172  67.778  1.00  0.00     0.000 HD 
ENDBRANCH   6   7
ENDBRANCH   5   6
ENDBRANCH   3   5
ENDBRANCH   2   3
BRANCH   2  17
HETATM   17  C   UNL     1      -8.435   9.592  69.664  1.00  0.00    -0.181 C  
BRANCH  17  18
HETATM   18  C   UNL     1      -8.954   8.915  68.389  1.00  0.00    -0.134 C  
BRANCH  18  19
HETATM   19  C   UNL     1      -9.209   9.939  67.306  1.00  0.00    -0.156 A  
HETATM   20  C   UNL     1     -10.159   9.695  66.305  1.00  0.00    -0.322 A  
HETATM   21  C   UNL     1      -8.534  11.168  67.322  1.00  0.00    -0.137 A  
HETATM   22  C   UNL     1      -8.806  12.140  66.357  1.00  0.00    -0.100 A  
HETATM   23  H   UNL     1     -10.719  12.633  63.757  1.00  0.00     0.000 HD 
HETATM   24  C   UNL     1     -10.430  10.666  65.339  1.00  0.00    -0.254 A  
HETATM   25  C   UNL     1      -9.758  11.881  65.376  1.00  0.00    -0.207 A  
HETATM   26  O   UNL     1     -10.068  12.809  64.426  1.00  0.00    -0.320 OA 
ENDBRANCH  18  19
ENDBRANCH  17  18
ENDBRANCH   2  17
TORSDOF 7
ENDMDL
MODEL      203
REMARK 921   NORMALIZED FREE ENERGY PREDICTED BY IDOCK:   -4.57 KCAL/MOL
REMARK 922        TOTAL FREE ENERGY PREDICTED BY IDOCK:   -7.61 KCAL/MOL
REMARK 923 INTER-LIGAND FREE ENERGY PREDICTED BY IDOCK:   -6.31 KCAL/MOL
REMARK 924 INTRA-LIGAND FREE ENERGY PREDICTED BY IDOCK:   -1.30 KCAL/MOL
REMARK 927      BINDING AFFINITY PREDICTED BY RF-SCORE:    0.00 PKD
ROOT
HETATM    1  C   UNL     1     -10.548  19.764  66.672  1.00  0.00    -0.578 C  
HETATM    2  C   UNL     1     -10.203  18.396  67.271  1.00  0.00    -0.374 C  
ENDROOT
BRANCH   2   3
HETATM    3  N   UNL     1     -10.641  18.275  68.670  1.00  0.00    -0.352 NA 
HETATM    4  H   UNL     1     -11.531  18.755  68.803  1.00  0.00     0.000 HD 
BRANCH   3   5
HETATM    5  C   UNL     1     -10.726  16.899  69.182  1.00  0.00    -0.298 C  
BRANCH   5   6
HETATM    6  C   UNL     1     -11.899  16.091  68.609  1.00  0.00    -0.174 C  
BRANCH   6   7
HETATM    7  C   UNL     1     -12.078  14.760  69.297  1.00  0.00    -0.296 A  
HETATM    8  C   UNL     1     -12.327  12.299  70.583  1.00  0.00    -0.286 A  
HETATM    9  C   UNL     1     -12.870  13.445  71.158  1.00  0.00    -0.291 A  
HETATM   10  O   UNL     1     -12.426  11.099  71.227  1.00  0.00    -0.376 OA 
HETATM   11  C   UNL     1     -11.674  12.359  69.362  1.00  0.00    -0.384 A  
HETATM   12  H   UNL     1     -13.581  12.470  72.798  1.00  0.00     0.000 HD 
HETATM   13  C   UNL     1     -12.756  14.677  70.523  1.00  0.00    -0.394 A  
HETATM   14  O   UNL     1     -13.503  13.311  72.364  1.00  0.00    -0.549 OA 
HETATM   15  C   UNL     1     -11.553  13.592  68.717  1.00  0.00    -0.359 A  
HETATM   16  H   UNL     1     -12.055  10.316  70.835  1.00  0.00     0.000 HD 
ENDBRANCH   6   7
ENDBRANCH   5   6
ENDBRANCH   3   5
ENDBRANCH   2   3
BRANCH   2  17
HETATM   17  C   UNL     1      -8.681  18.168  67.173  1.00  0.00    -0.249 C  
BRANCH  17  18
HETATM   18  C   UNL     1      -8.296  16.997  66.261  1.00  0.00    -0.308 C  
BRANCH  18  19
HETATM   19  C   UNL     1      -7.853  15.805  67.079  1.00  0.00    -0.271 A  
HETATM   20  C   UNL     1      -8.454  14.552  66.896  1.00  0.00    -0.179 A  
HETATM   21  C   UNL     1      -6.798  15.930  67.995  1.00  0.00    -0.137 A  
HETATM   22  C   UNL     1      -6.347  14.820  68.713  1.00  0.00    -0.086 A  
HETATM   23  H   UNL     1      -6.943  11.626  69.038  1.00  0.00     0.000 HD 
HETATM   24  C   UNL     1      -8.004  13.443  67.615  1.00  0.00    -0.174 A  
HETATM   25  C   UNL     1      -6.952  13.584  68.511  1.00  0.00    -0.102 A  
HETATM   26  O   UNL     1      -6.530  12.470  69.177  1.00  0.00    -0.088 OA 
ENDBRANCH  18  19
ENDBRANCH  17  18
ENDBRANCH   2  17
TORSDOF 7
ENDMDL
MODEL      204
REMARK 921   NORMALIZED FREE ENERGY PREDICTED BY IDOCK:   -4.55 KCAL/MOL
REMARK 922        TOTAL FREE ENERGY PREDICTED BY IDOCK:   -7.57 KCAL/MOL
REMARK 923 INTER-LIGAND FREE ENERGY PREDICTED BY IDOCK:   -5.26 KCAL/MOL
REMARK 924 INTRA-LIGAND FREE ENERGY PREDICTED BY IDOCK:   -2.31 KCAL/MOL
REMARK 927      BINDING AFFINITY PREDICTED BY RF-SCORE:    0.00 PKD
ROOT
HETATM    1  C   UNL     1      -8.282  16.652  66.255  1.00  0.00    -0.365 C  
HETATM    2  C   UNL     1      -8.785  15.228  66.519  1.00  0.00    -0.279 C  
ENDROOT
BRANCH   2   3
HETATM    3  N   UNL     1     -10.108  15.217  67.164  1.00  0.00    -0.238 NA 
HETATM    4  H   UNL     1     -10.223  16.049  67.744  1.00  0.00     0.000 HD 
BRANCH   3   5
HETATM    5  C   UNL     1     -11.249  15.078  66.246  1.00  0.00    -0.309 C  
BRANCH   5   6
HETATM    6  C   UNL     1     -12.186  13.912  66.587  1.00  0.00    -0.465 C  
BRANCH   6   7
HETATM    7  C   UNL     1     -11.528  12.566  66.411  1.00  0.00    -0.418 A  
HETATM    8  C   UNL     1     -10.386  10.042  66.091  1.00  0.00    -0.155 A  
HETATM    9  C   UNL     1     -10.378  10.951  65.035  1.00  0.00    -0.288 A  
HETATM   10  O   UNL     1      -9.852   8.797  65.924  1.00  0.00    -0.432 OA 
HETATM   11  C   UNL     1     -10.942  10.381  67.315  1.00  0.00    -0.306 A  
HETATM   12  H   UNL     1      -9.427   9.687  63.754  1.00  0.00     0.000 HD 
HETATM   13  C   UNL     1     -10.941  12.215  65.186  1.00  0.00    -0.355 A  
HETATM   14  O   UNL     1      -9.811  10.549  63.857  1.00  0.00    -0.300 OA 
HETATM   15  C   UNL     1     -11.510  11.647  67.475  1.00  0.00    -0.360 A  
HETATM   16  H   UNL     1      -9.857   8.176  66.644  1.00  0.00     0.000 HD 
ENDBRANCH   6   7
ENDBRANCH   5   6
ENDBRANCH   3   5
ENDBRANCH   2   3
BRANCH   2  17
HETATM   17  C   UNL     1      -7.762  14.484  67.400  1.00  0.00    -0.215 C  
BRANCH  17  18
HETATM   18  C   UNL     1      -8.405  13.487  68.373  1.00  0.00    -0.140 C  
BRANCH  18  19
HETATM   19  C   UNL     1      -7.848  12.098  68.161  1.00  0.00    -0.147 A  
HETATM   20  C   UNL     1      -8.009  11.109  69.140  1.00  0.00    -0.046 A  
HETATM   21  C   UNL     1      -7.208  11.769  66.957  1.00  0.00    -0.134 A  
HETATM   22  C   UNL     1      -6.741  10.473  66.733  1.00  0.00    -0.091 A  
HETATM   23  H   UNL     1      -6.615   7.558  68.200  1.00  0.00     0.000 HD 
HETATM   24  C   UNL     1      -7.541   9.812  68.917  1.00  0.00    -0.081 A  
HETATM   25  C   UNL     1      -6.918   9.503  67.715  1.00  0.00    -0.080 A  
HETATM   26  O   UNL     1      -6.494   8.220  67.529  1.00  0.00    -0.055 OA 
ENDBRANCH  18  19
ENDBRANCH  17  18
ENDBRANCH   2  17
TORSDOF 7
ENDMDL
MODEL      205
REMARK 921   NORMALIZED FREE ENERGY PREDICTED BY IDOCK:   -4.54 KCAL/MOL
REMARK 922        TOTAL FREE ENERGY PREDICTED BY IDOCK:   -7.56 KCAL/MOL
REMARK 923 INTER-LIGAND FREE ENERGY PREDICTED BY IDOCK:   -6.48 KCAL/MOL
REMARK 924 INTRA-LIGAND FREE ENERGY PREDICTED BY IDOCK:   -1.08 KCAL/MOL
REMARK 927      BINDING AFFINITY PREDICTED BY RF-SCORE:    0.00 PKD
ROOT
HETATM    1  C   UNL     1     -11.619   6.346  70.129  1.00  0.00    -0.449 C  
HETATM    2  C   UNL     1     -11.862   6.882  71.544  1.00  0.00    -0.324 C  
ENDROOT
BRANCH   2   3
HETATM    3  N   UNL     1     -11.994   5.800  72.533  1.00  0.00    -0.457 NA 
HETATM    4  H   UNL     1     -12.139   4.907  72.060  1.00  0.00     0.000 HD 
BRANCH   3   5
HETATM    5  C   UNL     1     -10.884   5.690  73.491  1.00  0.00    -0.255 C  
BRANCH   5   6
HETATM    6  C   UNL     1     -10.227   7.031  73.843  1.00  0.00    -0.388 C  
BRANCH   6   7
HETATM    7  C   UNL     1      -8.957   7.278  73.066  1.00  0.00    -0.174 A  
HETATM    8  C   UNL     1      -6.631   7.668  71.580  1.00  0.00    -0.045 A  
HETATM    9  C   UNL     1      -7.653   8.613  71.537  1.00  0.00    -0.106 A  
HETATM   10  O   UNL     1      -5.503   7.847  70.830  1.00  0.00    -0.026 OA 
HETATM   11  C   UNL     1      -6.744   6.535  72.370  1.00  0.00    -0.064 A  
HETATM   12  H   UNL     1      -6.678   9.832  70.231  1.00  0.00     0.000 HD 
HETATM   13  C   UNL     1      -8.816   8.430  72.278  1.00  0.00    -0.289 A  
HETATM   14  O   UNL     1      -7.472   9.708  70.737  1.00  0.00    -0.254 OA 
HETATM   15  C   UNL     1      -7.909   6.342  73.117  1.00  0.00    -0.101 A  
HETATM   16  H   UNL     1      -4.806   7.202  70.858  1.00  0.00     0.000 HD 
ENDBRANCH   6   7
ENDBRANCH   5   6
ENDBRANCH   3   5
ENDBRANCH   2   3
BRANCH   2  17
HETATM   17  C   UNL     1     -13.132   7.756  71.545  1.00  0.00    -0.356 C  
BRANCH  17  18
HETATM   18  C   UNL     1     -13.011   9.008  72.423  1.00  0.00    -0.471 C  
BRANCH  18  19
HETATM   19  C   UNL     1     -12.683  10.221  71.583  1.00  0.00    -0.561 A  
HETATM   20  C   UNL     1     -13.208  11.478  71.911  1.00  0.00    -0.479 A  
HETATM   21  C   UNL     1     -11.807  10.110  70.494  1.00  0.00    -0.408 A  
HETATM   22  C   UNL     1     -11.456  11.237  69.748  1.00  0.00    -0.386 A  
HETATM   23  H   UNL     1     -12.010  14.454  69.643  1.00  0.00     0.000 HD 
HETATM   24  C   UNL     1     -12.859  12.605  71.164  1.00  0.00    -0.311 A  
HETATM   25  C   UNL     1     -11.982  12.477  70.095  1.00  0.00    -0.301 A  
HETATM   26  O   UNL     1     -11.651  13.606  69.405  1.00  0.00    -0.277 OA 
ENDBRANCH  18  19
ENDBRANCH  17  18
ENDBRANCH   2  17
TORSDOF 7
ENDMDL
MODEL      206
REMARK 921   NORMALIZED FREE ENERGY PREDICTED BY IDOCK:   -4.54 KCAL/MOL
REMARK 922        TOTAL FREE ENERGY PREDICTED BY IDOCK:   -7.56 KCAL/MOL
REMARK 923 INTER-LIGAND FREE ENERGY PREDICTED BY IDOCK:   -6.21 KCAL/MOL
REMARK 924 INTRA-LIGAND FREE ENERGY PREDICTED BY IDOCK:   -1.34 KCAL/MOL
REMARK 927      BINDING AFFINITY PREDICTED BY RF-SCORE:    0.00 PKD
ROOT
HETATM    1  C   UNL     1      -7.576  10.750  66.324  1.00  0.00    -0.142 C  
HETATM    2  C   UNL     1      -7.312  11.471  67.651  1.00  0.00    -0.105 C  
ENDROOT
BRANCH   2   3
HETATM    3  N   UNL     1      -8.317  11.139  68.673  1.00  0.00    -0.153 NA 
HETATM    4  H   UNL     1      -8.269  11.807  69.443  1.00  0.00     0.000 HD 
BRANCH   3   5
HETATM    5  C   UNL     1      -9.699  11.034  68.179  1.00  0.00    -0.174 C  
BRANCH   5   6
HETATM    6  C   UNL     1     -10.594  12.217  68.569  1.00  0.00    -0.254 C  
BRANCH   6   7
HETATM    7  C   UNL     1     -11.135  12.957  67.371  1.00  0.00    -0.307 A  
HETATM    8  C   UNL     1     -12.056  14.336  65.130  1.00  0.00    -0.410 A  
HETATM    9  C   UNL     1     -12.287  12.969  65.250  1.00  0.00    -0.486 A  
HETATM   10  O   UNL     1     -12.483  15.006  64.018  1.00  0.00    -0.931 OA 
HETATM   11  C   UNL     1     -11.385  15.034  66.122  1.00  0.00    -0.270 A  
HETATM   12  H   UNL     1     -13.265  12.822  63.472  1.00  0.00     0.000 HD 
HETATM   13  C   UNL     1     -11.835  12.271  66.367  1.00  0.00    -0.382 A  
HETATM   14  O   UNL     1     -12.957  12.346  64.233  1.00  0.00    -0.737 OA 
HETATM   15  C   UNL     1     -10.928  14.342  67.247  1.00  0.00    -0.301 A  
HETATM   16  H   UNL     1     -12.326  15.939  63.935  1.00  0.00     0.000 HD 
ENDBRANCH   6   7
ENDBRANCH   5   6
ENDBRANCH   3   5
ENDBRANCH   2   3
BRANCH   2  17
HETATM   17  C   UNL     1      -7.290  12.993  67.406  1.00  0.00    -0.122 C  
BRANCH  17  18
HETATM   18  C   UNL     1      -7.362  13.820  68.696  1.00  0.00    -0.117 C  
BRANCH  18  19
HETATM   19  C   UNL     1      -7.005  15.264  68.426  1.00  0.00    -0.111 A  
HETATM   20  C   UNL     1      -6.726  16.139  69.485  1.00  0.00    -0.195 A  
HETATM   21  C   UNL     1      -6.900  15.731  67.108  1.00  0.00    -0.170 A  
HETATM   22  C   UNL     1      -6.516  17.049  66.851  1.00  0.00    -0.248 A  
HETATM   23  H   UNL     1      -5.647  19.768  68.437  1.00  0.00     0.000 HD 
HETATM   24  C   UNL     1      -6.344  17.457  69.228  1.00  0.00    -0.244 A  
HETATM   25  C   UNL     1      -6.235  17.899  67.916  1.00  0.00    -0.163 A  
HETATM   26  O   UNL     1      -5.838  19.187  67.710  1.00  0.00    -0.191 OA 
ENDBRANCH  18  19
ENDBRANCH  17  18
ENDBRANCH   2  17
TORSDOF 7
ENDMDL
MODEL      207
REMARK 921   NORMALIZED FREE ENERGY PREDICTED BY IDOCK:   -4.51 KCAL/MOL
REMARK 922        TOTAL FREE ENERGY PREDICTED BY IDOCK:   -7.52 KCAL/MOL
REMARK 923 INTER-LIGAND FREE ENERGY PREDICTED BY IDOCK:   -6.76 KCAL/MOL
REMARK 924 INTRA-LIGAND FREE ENERGY PREDICTED BY IDOCK:   -0.76 KCAL/MOL
REMARK 927      BINDING AFFINITY PREDICTED BY RF-SCORE:    0.00 PKD
ROOT
HETATM    1  C   UNL     1      -6.965  12.473  67.297  1.00  0.00    -0.114 C  
HETATM    2  C   UNL     1      -7.902  11.496  68.016  1.00  0.00    -0.126 C  
ENDROOT
BRANCH   2   3
HETATM    3  N   UNL     1      -8.207  10.313  67.196  1.00  0.00    -0.121 NA 
HETATM    4  H   UNL     1      -7.351   9.798  66.990  1.00  0.00     0.000 HD 
BRANCH   3   5
HETATM    5  C   UNL     1      -9.220   9.407  67.760  1.00  0.00    -0.128 C  
BRANCH   5   6
HETATM    6  C   UNL     1      -8.915   8.941  69.190  1.00  0.00    -0.140 C  
BRANCH   6   7
HETATM    7  C   UNL     1     -10.132   8.394  69.895  1.00  0.00    -0.195 A  
HETATM    8  C   UNL     1     -12.330   7.338  71.246  1.00  0.00    -0.366 A  
HETATM    9  C   UNL     1     -12.007   8.685  71.386  1.00  0.00    -0.304 A  
HETATM   10  O   UNL     1     -13.390   6.815  71.930  1.00  0.00    -0.479 OA 
HETATM   11  C   UNL     1     -11.581   6.509  70.425  1.00  0.00    -0.470 A  
HETATM   12  H   UNL     1     -13.536   9.076  72.670  1.00  0.00     0.000 HD 
HETATM   13  C   UNL     1     -10.914   9.223  70.712  1.00  0.00    -0.349 A  
HETATM   14  O   UNL     1     -12.791   9.443  72.211  1.00  0.00    -0.392 OA 
HETATM   15  C   UNL     1     -10.482   7.041  69.745  1.00  0.00    -0.235 A  
HETATM   16  H   UNL     1     -13.611   5.896  71.835  1.00  0.00     0.000 HD 
ENDBRANCH   6   7
ENDBRANCH   5   6
ENDBRANCH   3   5
ENDBRANCH   2   3
BRANCH   2  17
HETATM   17  C   UNL     1      -9.206  12.228  68.392  1.00  0.00    -0.145 C  
BRANCH  17  18
HETATM   18  C   UNL     1      -9.485  13.463  67.525  1.00  0.00    -0.219 C  
BRANCH  18  19
HETATM   19  C   UNL     1     -10.461  13.131  66.420  1.00  0.00    -0.287 A  
HETATM   20  C   UNL     1     -10.037  12.434  65.280  1.00  0.00    -0.285 A  
HETATM   21  C   UNL     1     -11.816  13.472  66.547  1.00  0.00    -0.441 A  
HETATM   22  C   UNL     1     -12.733  13.118  65.555  1.00  0.00    -0.367 A  
HETATM   23  H   UNL     1     -12.858  11.561  62.688  1.00  0.00     0.000 HD 
HETATM   24  C   UNL     1     -10.954  12.082  64.287  1.00  0.00    -0.401 A  
HETATM   25  C   UNL     1     -12.293  12.420  64.435  1.00  0.00    -0.447 A  
HETATM   26  O   UNL     1     -13.158  12.038  63.452  1.00  0.00    -0.747 OA 
ENDBRANCH  18  19
ENDBRANCH  17  18
ENDBRANCH   2  17
TORSDOF 7
ENDMDL
MODEL      208
REMARK 921   NORMALIZED FREE ENERGY PREDICTED BY IDOCK:   -4.49 KCAL/MOL
REMARK 922        TOTAL FREE ENERGY PREDICTED BY IDOCK:   -7.49 KCAL/MOL
REMARK 923 INTER-LIGAND FREE ENERGY PREDICTED BY IDOCK:   -6.63 KCAL/MOL
REMARK 924 INTRA-LIGAND FREE ENERGY PREDICTED BY IDOCK:   -0.86 KCAL/MOL
REMARK 927      BINDING AFFINITY PREDICTED BY RF-SCORE:    0.00 PKD
ROOT
HETATM    1  C   UNL     1     -12.719  12.570  64.376  1.00  0.00    -0.447 C  
HETATM    2  C   UNL     1     -11.646  13.547  63.882  1.00  0.00    -0.306 C  
ENDROOT
BRANCH   2   3
HETATM    3  N   UNL     1     -10.287  13.100  64.227  1.00  0.00    -0.542 NA 
HETATM    4  H   UNL     1      -9.726  13.891  64.542  1.00  0.00     0.000 HD 
BRANCH   3   5
HETATM    5  C   UNL     1     -10.219  12.007  65.210  1.00  0.00    -0.271 C  
BRANCH   5   6
HETATM    6  C   UNL     1      -9.452  10.772  64.720  1.00  0.00    -0.292 C  
BRANCH   6   7
HETATM    7  C   UNL     1      -9.531   9.617  65.688  1.00  0.00    -0.318 A  
HETATM    8  C   UNL     1      -9.761   7.482  67.466  1.00  0.00    -0.150 A  
HETATM    9  C   UNL     1      -9.139   7.300  66.234  1.00  0.00    -0.149 A  
HETATM   10  O   UNL     1      -9.898   6.429  68.325  1.00  0.00    -0.125 OA 
HETATM   11  C   UNL     1     -10.256   8.723  67.835  1.00  0.00    -0.272 A  
HETATM   12  H   UNL     1      -8.756   5.326  66.547  1.00  0.00     0.000 HD 
HETATM   13  C   UNL     1      -9.015   8.360  65.341  1.00  0.00    -0.103 A  
HETATM   14  O   UNL     1      -8.672   6.049  65.937  1.00  0.00    -0.148 OA 
HETATM   15  C   UNL     1     -10.137   9.794  66.944  1.00  0.00    -0.287 A  
HETATM   16  H   UNL     1     -10.322   6.553  69.166  1.00  0.00     0.000 HD 
ENDBRANCH   6   7
ENDBRANCH   5   6
ENDBRANCH   3   5
ENDBRANCH   2   3
BRANCH   2  17
HETATM   17  C   UNL     1     -11.912  14.940  64.487  1.00  0.00    -0.420 C  
BRANCH  17  18
HETATM   18  C   UNL     1     -10.675  15.568  65.141  1.00  0.00    -0.460 C  
BRANCH  18  19
HETATM   19  C   UNL     1     -10.875  15.714  66.632  1.00  0.00    -0.266 A  
HETATM   20  C   UNL     1     -11.453  14.678  67.379  1.00  0.00    -0.384 A  
HETATM   21  C   UNL     1     -10.437  16.870  67.294  1.00  0.00    -0.301 A  
HETATM   22  C   UNL     1     -10.567  16.988  68.680  1.00  0.00    -0.362 A  
HETATM   23  H   UNL     1     -11.654  15.297  71.253  1.00  0.00     0.000 HD 
HETATM   24  C   UNL     1     -11.586  14.796  68.764  1.00  0.00    -0.347 A  
HETATM   25  C   UNL     1     -11.137  15.945  69.403  1.00  0.00    -0.322 A  
HETATM   26  O   UNL     1     -11.266  16.010  70.759  1.00  0.00    -0.356 OA 
ENDBRANCH  18  19
ENDBRANCH  17  18
ENDBRANCH   2  17
TORSDOF 7
ENDMDL
MODEL      209
REMARK 921   NORMALIZED FREE ENERGY PREDICTED BY IDOCK:   -4.47 KCAL/MOL
REMARK 922        TOTAL FREE ENERGY PREDICTED BY IDOCK:   -7.46 KCAL/MOL
REMARK 923 INTER-LIGAND FREE ENERGY PREDICTED BY IDOCK:   -6.48 KCAL/MOL
REMARK 924 INTRA-LIGAND FREE ENERGY PREDICTED BY IDOCK:   -0.99 KCAL/MOL
REMARK 927      BINDING AFFINITY PREDICTED BY RF-SCORE:    0.00 PKD
ROOT
HETATM    1  C   UNL     1     -12.177  11.270  70.619  1.00  0.00    -0.489 C  
HETATM    2  C   UNL     1     -11.511  10.758  69.337  1.00  0.00    -0.295 C  
ENDROOT
BRANCH   2   3
HETATM    3  N   UNL     1     -10.301   9.969  69.616  1.00  0.00    -0.231 NA 
HETATM    4  H   UNL     1     -10.493   9.273  70.336  1.00  0.00     0.000 HD 
BRANCH   3   5
HETATM    5  C   UNL     1      -9.689   9.329  68.442  1.00  0.00    -0.154 C  
BRANCH   5   6
HETATM    6  C   UNL     1      -8.169   9.145  68.550  1.00  0.00    -0.115 C  
BRANCH   6   7
HETATM    7  C   UNL     1      -7.452  10.428  68.893  1.00  0.00    -0.099 A  
HETATM    8  C   UNL     1      -6.202  12.835  69.538  1.00  0.00    -0.120 A  
HETATM    9  C   UNL     1      -6.077  11.736  70.383  1.00  0.00    -0.057 A  
HETATM   10  O   UNL     1      -5.613  14.022  69.869  1.00  0.00    -0.096 OA 
HETATM   11  C   UNL     1      -6.930  12.747  68.362  1.00  0.00    -0.095 A  
HETATM   12  H   UNL     1      -4.922  12.718  71.740  1.00  0.00     0.000 HD 
HETATM   13  C   UNL     1      -6.693  10.528  70.068  1.00  0.00    -0.151 A  
HETATM   14  O   UNL     1      -5.342  11.894  71.526  1.00  0.00    -0.343 OA 
HETATM   15  C   UNL     1      -7.553  11.539  68.037  1.00  0.00    -0.112 A  
HETATM   16  H   UNL     1      -5.698  14.773  69.293  1.00  0.00     0.000 HD 
ENDBRANCH   6   7
ENDBRANCH   5   6
ENDBRANCH   3   5
ENDBRANCH   2   3
BRANCH   2  17
HETATM   17  C   UNL     1     -11.162  11.958  68.434  1.00  0.00    -0.312 C  
BRANCH  17  18
HETATM   18  C   UNL     1     -11.455  11.710  66.948  1.00  0.00    -0.320 C  
BRANCH  18  19
HETATM   19  C   UNL     1     -11.413  13.006  66.172  1.00  0.00    -0.381 A  
HETATM   20  C   UNL     1     -12.274  13.214  65.086  1.00  0.00    -0.497 A  
HETATM   21  C   UNL     1     -10.545  14.036  66.562  1.00  0.00    -0.279 A  
HETATM   22  C   UNL     1     -10.541  15.256  65.883  1.00  0.00    -0.345 A  
HETATM   23  H   UNL     1     -12.046  16.757  63.403  1.00  0.00     0.000 HD 
HETATM   24  C   UNL     1     -12.270  14.434  64.405  1.00  0.00    -0.481 A  
HETATM   25  C   UNL     1     -11.410  15.445  64.813  1.00  0.00    -0.376 A  
HETATM   26  O   UNL     1     -11.452  16.628  64.134  1.00  0.00    -1.131 OA 
ENDBRANCH  18  19
ENDBRANCH  17  18
ENDBRANCH   2  17
TORSDOF 7
ENDMDL
MODEL      210
REMARK 921   NORMALIZED FREE ENERGY PREDICTED BY IDOCK:   -4.47 KCAL/MOL
REMARK 922        TOTAL FREE ENERGY PREDICTED BY IDOCK:   -7.46 KCAL/MOL
REMARK 923 INTER-LIGAND FREE ENERGY PREDICTED BY IDOCK:   -6.30 KCAL/MOL
REMARK 924 INTRA-LIGAND FREE ENERGY PREDICTED BY IDOCK:   -1.15 KCAL/MOL
REMARK 927      BINDING AFFINITY PREDICTED BY RF-SCORE:    0.00 PKD
ROOT
HETATM    1  C   UNL     1      -7.002  10.629  66.284  1.00  0.00    -0.133 C  
HETATM    2  C   UNL     1      -8.415  10.684  66.877  1.00  0.00    -0.127 C  
ENDROOT
BRANCH   2   3
HETATM    3  N   UNL     1      -9.168  11.859  66.412  1.00  0.00    -0.214 NA 
HETATM    4  H   UNL     1      -8.525  12.597  66.125  1.00  0.00     0.000 HD 
BRANCH   3   5
HETATM    5  C   UNL     1     -10.143  11.593  65.344  1.00  0.00    -0.259 C  
BRANCH   5   6
HETATM    6  C   UNL     1     -11.595  11.907  65.730  1.00  0.00    -0.281 C  
BRANCH   6   7
HETATM    7  C   UNL     1     -11.717  12.463  67.127  1.00  0.00    -0.415 A  
HETATM    8  C   UNL     1     -11.866  13.462  69.725  1.00  0.00    -0.326 A  
HETATM    9  C   UNL     1     -11.835  14.336  68.642  1.00  0.00    -0.344 A  
HETATM   10  O   UNL     1     -11.911  13.954  70.999  1.00  0.00    -0.492 OA 
HETATM   11  C   UNL     1     -11.841  12.090  69.531  1.00  0.00    -0.390 A  
HETATM   12  H   UNL     1     -11.912  16.011  69.796  1.00  0.00     0.000 HD 
HETATM   13  C   UNL     1     -11.766  13.848  67.341  1.00  0.00    -0.422 A  
HETATM   14  O   UNL     1     -11.864  15.678  68.908  1.00  0.00    -0.379 OA 
HETATM   15  C   UNL     1     -11.771  11.590  68.228  1.00  0.00    -0.371 A  
HETATM   16  H   UNL     1     -11.931  13.357  71.738  1.00  0.00     0.000 HD 
ENDBRANCH   6   7
ENDBRANCH   5   6
ENDBRANCH   3   5
ENDBRANCH   2   3
BRANCH   2  17
HETATM   17  C   UNL     1      -8.318  10.695  68.416  1.00  0.00    -0.127 C  
BRANCH  17  18
HETATM   18  C   UNL     1      -7.972   9.326  69.017  1.00  0.00    -0.097 C  
BRANCH  18  19
HETATM   19  C   UNL     1      -9.166   8.742  69.738  1.00  0.00    -0.155 A  
HETATM   20  C   UNL     1      -9.585   9.271  70.966  1.00  0.00    -0.329 A  
HETATM   21  C   UNL     1      -9.899   7.696  69.159  1.00  0.00    -0.171 A  
HETATM   22  C   UNL     1     -11.035   7.190  69.793  1.00  0.00    -0.256 A  
HETATM   23  H   UNL     1     -12.829   7.655  72.483  1.00  0.00     0.000 HD 
HETATM   24  C   UNL     1     -10.720   8.764  71.602  1.00  0.00    -0.397 A  
HETATM   25  C   UNL     1     -11.439   7.734  71.009  1.00  0.00    -0.281 A  
HETATM   26  O   UNL     1     -12.553   7.283  71.653  1.00  0.00    -0.336 OA 
ENDBRANCH  18  19
ENDBRANCH  17  18
ENDBRANCH   2  17
TORSDOF 7
ENDMDL
MODEL      211
REMARK 921   NORMALIZED FREE ENERGY PREDICTED BY IDOCK:   -4.46 KCAL/MOL
REMARK 922        TOTAL FREE ENERGY PREDICTED BY IDOCK:   -7.45 KCAL/MOL
REMARK 923 INTER-LIGAND FREE ENERGY PREDICTED BY IDOCK:   -6.26 KCAL/MOL
REMARK 924 INTRA-LIGAND FREE ENERGY PREDICTED BY IDOCK:   -1.19 KCAL/MOL
REMARK 927      BINDING AFFINITY PREDICTED BY RF-SCORE:    0.00 PKD
ROOT
HETATM    1  C   UNL     1      -9.008  17.276  66.095  1.00  0.00    -0.189 C  
HETATM    2  C   UNL     1      -9.267  15.767  66.015  1.00  0.00    -0.344 C  
ENDROOT
BRANCH   2   3
HETATM    3  N   UNL     1     -10.703  15.453  65.941  1.00  0.00    -0.325 NA 
HETATM    4  H   UNL     1     -11.256  16.279  66.169  1.00  0.00     0.000 HD 
BRANCH   3   5
HETATM    5  C   UNL     1     -11.151  14.880  64.662  1.00  0.00    -0.323 C  
BRANCH   5   6
HETATM    6  C   UNL     1     -11.991  13.605  64.809  1.00  0.00    -0.426 C  
BRANCH   6   7
HETATM    7  C   UNL     1     -11.177  12.423  65.274  1.00  0.00    -0.359 A  
HETATM    8  C   UNL     1      -9.736  10.187  66.112  1.00  0.00    -0.218 A  
HETATM    9  C   UNL     1      -9.324  10.902  64.990  1.00  0.00    -0.226 A  
HETATM   10  O   UNL     1      -9.046   9.077  66.505  1.00  0.00    -0.146 OA 
HETATM   11  C   UNL     1     -10.850  10.582  66.836  1.00  0.00    -0.252 A  
HETATM   12  H   UNL     1      -7.731   9.693  64.615  1.00  0.00     0.000 HD 
HETATM   13  C   UNL     1     -10.034  12.022  64.566  1.00  0.00    -0.239 A  
HETATM   14  O   UNL     1      -8.215  10.457  64.326  1.00  0.00    -0.164 OA 
HETATM   15  C   UNL     1     -11.569  11.705  66.417  1.00  0.00    -0.140 A  
HETATM   16  H   UNL     1      -9.327   8.588  67.270  1.00  0.00     0.000 HD 
ENDBRANCH   6   7
ENDBRANCH   5   6
ENDBRANCH   3   5
ENDBRANCH   2   3
BRANCH   2  17
HETATM   17  C   UNL     1      -8.639  15.079  67.244  1.00  0.00    -0.226 C  
BRANCH  17  18
HETATM   18  C   UNL     1      -9.488  13.929  67.800  1.00  0.00    -0.214 C  
BRANCH  18  19
HETATM   19  C   UNL     1     -10.417  14.426  68.883  1.00  0.00    -0.246 A  
HETATM   20  C   UNL     1     -10.112  15.587  69.607  1.00  0.00    -0.297 A  
HETATM   21  C   UNL     1     -11.623  13.757  69.142  1.00  0.00    -0.363 A  
HETATM   22  C   UNL     1     -12.512  14.243  70.103  1.00  0.00    -0.393 A  
HETATM   23  H   UNL     1     -12.825  16.713  72.216  1.00  0.00     0.000 HD 
HETATM   24  C   UNL     1     -11.000  16.072  70.569  1.00  0.00    -0.322 A  
HETATM   25  C   UNL     1     -12.194  15.401  70.804  1.00  0.00    -0.381 A  
HETATM   26  O   UNL     1     -13.042  15.921  71.738  1.00  0.00    -0.462 OA 
ENDBRANCH  18  19
ENDBRANCH  17  18
ENDBRANCH   2  17
TORSDOF 7
ENDMDL
MODEL      212
REMARK 921   NORMALIZED FREE ENERGY PREDICTED BY IDOCK:   -4.46 KCAL/MOL
REMARK 922        TOTAL FREE ENERGY PREDICTED BY IDOCK:   -7.44 KCAL/MOL
REMARK 923 INTER-LIGAND FREE ENERGY PREDICTED BY IDOCK:   -6.39 KCAL/MOL
REMARK 924 INTRA-LIGAND FREE ENERGY PREDICTED BY IDOCK:   -1.06 KCAL/MOL
REMARK 927      BINDING AFFINITY PREDICTED BY RF-SCORE:    0.00 PKD
ROOT
HETATM    1  C   UNL     1      -7.269  13.988  67.764  1.00  0.00    -0.175 C  
HETATM    2  C   UNL     1      -8.227  12.808  67.966  1.00  0.00    -0.168 C  
ENDROOT
BRANCH   2   3
HETATM    3  N   UNL     1      -8.579  12.154  66.695  1.00  0.00    -0.323 NA 
HETATM    4  H   UNL     1      -7.734  11.935  66.167  1.00  0.00     0.000 HD 
BRANCH   3   5
HETATM    5  C   UNL     1      -9.421  10.955  66.822  1.00  0.00    -0.177 C  
BRANCH   5   6
HETATM    6  C   UNL     1      -8.723   9.770  67.502  1.00  0.00    -0.125 C  
BRANCH   6   7
HETATM    7  C   UNL     1      -9.545   9.174  68.619  1.00  0.00    -0.157 A  
HETATM    8  C   UNL     1     -11.122   8.131  70.668  1.00  0.00    -0.254 A  
HETATM    9  C   UNL     1     -10.908   7.392  69.507  1.00  0.00    -0.189 A  
HETATM   10  O   UNL     1     -11.917   7.631  71.659  1.00  0.00    -0.278 OA 
HETATM   11  C   UNL     1     -10.544   9.381  70.830  1.00  0.00    -0.390 A  
HETATM   12  H   UNL     1     -12.046   5.819  70.117  1.00  0.00     0.000 HD 
HETATM   13  C   UNL     1     -10.119   7.901  68.480  1.00  0.00    -0.216 A  
HETATM   14  O   UNL     1     -11.507   6.166  69.416  1.00  0.00    -0.423 OA 
HETATM   15  C   UNL     1      -9.751   9.900  69.805  1.00  0.00    -0.266 A  
HETATM   16  H   UNL     1     -12.064   8.135  72.451  1.00  0.00     0.000 HD 
ENDBRANCH   6   7
ENDBRANCH   5   6
ENDBRANCH   3   5
ENDBRANCH   2   3
BRANCH   2  17
HETATM   17  C   UNL     1      -9.503  13.306  68.673  1.00  0.00    -0.020 C  
BRANCH  17  18
HETATM   18  C   UNL     1      -9.920  14.723  68.256  1.00  0.00    -0.222 C  
BRANCH  18  19
HETATM   19  C   UNL     1     -10.718  14.689  66.974  1.00  0.00    -0.290 A  
HETATM   20  C   UNL     1     -10.252  15.344  65.826  1.00  0.00    -0.378 A  
HETATM   21  C   UNL     1     -11.913  13.958  66.904  1.00  0.00    -0.467 A  
HETATM   22  C   UNL     1     -12.627  13.876  65.707  1.00  0.00    -0.533 A  
HETATM   23  H   UNL     1     -12.466  14.903  62.611  1.00  0.00     0.000 HD 
HETATM   24  C   UNL     1     -10.966  15.265  64.629  1.00  0.00    -0.322 A  
HETATM   25  C   UNL     1     -12.142  14.527  64.577  1.00  0.00    -0.484 A  
HETATM   26  O   UNL     1     -12.797  14.458  63.382  1.00  0.00    -0.532 OA 
ENDBRANCH  18  19
ENDBRANCH  17  18
ENDBRANCH   2  17
TORSDOF 7
ENDMDL
MODEL      213
REMARK 921   NORMALIZED FREE ENERGY PREDICTED BY IDOCK:   -4.46 KCAL/MOL
REMARK 922        TOTAL FREE ENERGY PREDICTED BY IDOCK:   -7.44 KCAL/MOL
REMARK 923 INTER-LIGAND FREE ENERGY PREDICTED BY IDOCK:   -6.73 KCAL/MOL
REMARK 924 INTRA-LIGAND FREE ENERGY PREDICTED BY IDOCK:   -0.71 KCAL/MOL
REMARK 927      BINDING AFFINITY PREDICTED BY RF-SCORE:    0.00 PKD
ROOT
HETATM    1  C   UNL     1     -10.914  15.532  67.776  1.00  0.00    -0.317 C  
HETATM    2  C   UNL     1      -9.883  14.868  66.857  1.00  0.00    -0.240 C  
ENDROOT
BRANCH   2   3
HETATM    3  N   UNL     1      -9.421  13.573  67.384  1.00  0.00    -0.218 NA 
HETATM    4  H   UNL     1      -8.564  13.699  67.922  1.00  0.00     0.000 HD 
BRANCH   3   5
HETATM    5  C   UNL     1     -10.414  12.832  68.177  1.00  0.00    -0.236 C  
BRANCH   5   6
HETATM    6  C   UNL     1      -9.902  11.494  68.727  1.00  0.00    -0.153 C  
BRANCH   6   7
HETATM    7  C   UNL     1     -10.791  10.931  69.808  1.00  0.00    -0.247 A  
HETATM    8  C   UNL     1     -12.498   9.889  71.751  1.00  0.00    -0.397 A  
HETATM    9  C   UNL     1     -11.432   9.128  71.277  1.00  0.00    -0.335 A  
HETATM   10  O   UNL     1     -13.349   9.367  72.682  1.00  0.00    -0.585 OA 
HETATM   11  C   UNL     1     -12.716  11.175  71.281  1.00  0.00    -0.531 A  
HETATM   12  H   UNL     1     -11.864   7.519  72.447  1.00  0.00     0.000 HD 
HETATM   13  C   UNL     1     -10.572   9.640  70.311  1.00  0.00    -0.333 A  
HETATM   14  O   UNL     1     -11.276   7.868  71.787  1.00  0.00    -0.245 OA 
HETATM   15  C   UNL     1     -11.858  11.698  70.311  1.00  0.00    -0.414 A  
HETATM   16  H   UNL     1     -14.077   9.886  73.006  1.00  0.00     0.000 HD 
ENDBRANCH   6   7
ENDBRANCH   5   6
ENDBRANCH   3   5
ENDBRANCH   2   3
BRANCH   2  17
HETATM   17  C   UNL     1      -8.684  15.818  66.669  1.00  0.00    -0.323 C  
BRANCH  17  18
HETATM   18  C   UNL     1      -7.543  15.567  67.663  1.00  0.00    -0.182 C  
BRANCH  18  19
HETATM   19  C   UNL     1      -7.190  16.837  68.403  1.00  0.00    -0.191 A  
HETATM   20  C   UNL     1      -6.049  16.894  69.215  1.00  0.00    -0.206 A  
HETATM   21  C   UNL     1      -7.973  17.989  68.244  1.00  0.00    -0.294 A  
HETATM   22  C   UNL     1      -7.621  19.181  68.880  1.00  0.00    -0.371 A  
HETATM   23  H   UNL     1      -5.309  20.393  70.843  1.00  0.00     0.000 HD 
HETATM   24  C   UNL     1      -5.697  18.085  69.853  1.00  0.00    -0.245 A  
HETATM   25  C   UNL     1      -6.480  19.219  69.676  1.00  0.00    -0.272 A  
HETATM   26  O   UNL     1      -6.088  20.367  70.300  1.00  0.00    -0.394 OA 
ENDBRANCH  18  19
ENDBRANCH  17  18
ENDBRANCH   2  17
TORSDOF 7
ENDMDL
MODEL      214
REMARK 921   NORMALIZED FREE ENERGY PREDICTED BY IDOCK:   -4.45 KCAL/MOL
REMARK 922        TOTAL FREE ENERGY PREDICTED BY IDOCK:   -7.44 KCAL/MOL
REMARK 923 INTER-LIGAND FREE ENERGY PREDICTED BY IDOCK:   -6.76 KCAL/MOL
REMARK 924 INTRA-LIGAND FREE ENERGY PREDICTED BY IDOCK:   -0.67 KCAL/MOL
REMARK 927      BINDING AFFINITY PREDICTED BY RF-SCORE:    0.00 PKD
ROOT
HETATM    1  C   UNL     1      -8.793  11.341  66.638  1.00  0.00    -0.175 C  
HETATM    2  C   UNL     1      -9.663  10.591  67.653  1.00  0.00    -0.165 C  
ENDROOT
BRANCH   2   3
HETATM    3  N   UNL     1     -10.110  11.462  68.752  1.00  0.00    -0.262 NA 
HETATM    4  H   UNL     1      -9.508  11.338  69.566  1.00  0.00     0.000 HD 
BRANCH   3   5
HETATM    5  C   UNL     1     -10.218  12.889  68.413  1.00  0.00    -0.237 C  
BRANCH   5   6
HETATM    6  C   UNL     1     -11.637  13.337  68.038  1.00  0.00    -0.371 C  
BRANCH   6   7
HETATM    7  C   UNL     1     -11.829  13.471  66.547  1.00  0.00    -0.441 A  
HETATM    8  C   UNL     1     -12.263  13.689  63.802  1.00  0.00    -0.356 A  
HETATM    9  C   UNL     1     -12.085  14.834  64.574  1.00  0.00    -0.446 A  
HETATM   10  O   UNL     1     -12.503  13.799  62.462  1.00  0.00    -0.606 OA 
HETATM   11  C   UNL     1     -12.210  12.430  64.378  1.00  0.00    -0.519 A  
HETATM   12  H   UNL     1     -12.299  16.111  63.003  1.00  0.00     0.000 HD 
HETATM   13  C   UNL     1     -11.863  14.736  65.944  1.00  0.00    -0.204 A  
HETATM   14  O   UNL     1     -12.148  16.044  63.938  1.00  0.00    -0.880 OA 
HETATM   15  C   UNL     1     -11.989  12.321  65.754  1.00  0.00    -0.362 A  
HETATM   16  H   UNL     1     -12.625  13.017  61.935  1.00  0.00     0.000 HD 
ENDBRANCH   6   7
ENDBRANCH   5   6
ENDBRANCH   3   5
ENDBRANCH   2   3
BRANCH   2  17
HETATM   17  C   UNL     1      -8.869   9.396  68.217  1.00  0.00    -0.128 C  
BRANCH  17  18
HETATM   18  C   UNL     1      -9.760   8.242  68.697  1.00  0.00    -0.162 C  
BRANCH  18  19
HETATM   19  C   UNL     1      -9.671   7.068  67.749  1.00  0.00    -0.156 A  
HETATM   20  C   UNL     1     -10.820   6.348  67.397  1.00  0.00    -0.457 A  
HETATM   21  C   UNL     1      -8.442   6.718  67.172  1.00  0.00    -0.120 A  
HETATM   22  C   UNL     1      -8.363   5.670  66.252  1.00  0.00    -0.114 A  
HETATM   23  H   UNL     1     -10.277   3.479  64.768  1.00  0.00     0.000 HD 
HETATM   24  C   UNL     1     -10.742   5.299  66.479  1.00  0.00    -0.290 A  
HETATM   25  C   UNL     1      -9.517   4.973  65.910  1.00  0.00    -0.162 A  
HETATM   26  O   UNL     1      -9.488   3.955  65.002  1.00  0.00    -0.148 OA 
ENDBRANCH  18  19
ENDBRANCH  17  18
ENDBRANCH   2  17
TORSDOF 7
ENDMDL
MODEL      215
REMARK 921   NORMALIZED FREE ENERGY PREDICTED BY IDOCK:   -4.45 KCAL/MOL
REMARK 922        TOTAL FREE ENERGY PREDICTED BY IDOCK:   -7.44 KCAL/MOL
REMARK 923 INTER-LIGAND FREE ENERGY PREDICTED BY IDOCK:   -5.68 KCAL/MOL
REMARK 924 INTRA-LIGAND FREE ENERGY PREDICTED BY IDOCK:   -1.76 KCAL/MOL
REMARK 927      BINDING AFFINITY PREDICTED BY RF-SCORE:    0.00 PKD
ROOT
HETATM    1  C   UNL     1      -7.840   9.770  64.636  1.00  0.00    -0.136 C  
HETATM    2  C   UNL     1      -8.700   9.650  65.900  1.00  0.00    -0.144 C  
ENDROOT
BRANCH   2   3
HETATM    3  N   UNL     1      -9.864   8.773  65.699  1.00  0.00    -0.429 NA 
HETATM    4  H   UNL     1     -10.001   8.593  64.704  1.00  0.00     0.000 HD 
BRANCH   3   5
HETATM    5  C   UNL     1      -9.827   7.505  66.443  1.00  0.00    -0.082 C  
BRANCH   5   6
HETATM    6  C   UNL     1      -8.788   7.472  67.571  1.00  0.00    -0.127 C  
BRANCH   6   7
HETATM    7  C   UNL     1      -9.411   7.594  68.940  1.00  0.00    -0.149 A  
HETATM    8  C   UNL     1     -10.588   7.897  71.449  1.00  0.00    -0.211 A  
HETATM    9  C   UNL     1     -11.123   6.997  70.532  1.00  0.00    -0.280 A  
HETATM   10  O   UNL     1     -11.181   8.065  72.667  1.00  0.00    -0.358 OA 
HETATM   11  C   UNL     1      -9.459   8.640  71.139  1.00  0.00    -0.274 A  
HETATM   12  H   UNL     1     -12.634   6.407  71.762  1.00  0.00     0.000 HD 
HETATM   13  C   UNL     1     -10.541   6.834  69.278  1.00  0.00    -0.262 A  
HETATM   14  O   UNL     1     -12.237   6.296  70.906  1.00  0.00    -0.129 OA 
HETATM   15  C   UNL     1      -8.868   8.484  69.883  1.00  0.00    -0.137 A  
HETATM   16  H   UNL     1     -10.817   8.680  73.294  1.00  0.00     0.000 HD 
ENDBRANCH   6   7
ENDBRANCH   5   6
ENDBRANCH   3   5
ENDBRANCH   2   3
BRANCH   2  17
HETATM   17  C   UNL     1      -9.165  11.055  66.332  1.00  0.00    -0.192 C  
BRANCH  17  18
HETATM   18  C   UNL     1     -10.691  11.215  66.347  1.00  0.00    -0.303 C  
BRANCH  18  19
HETATM   19  C   UNL     1     -11.167  11.676  67.705  1.00  0.00    -0.333 A  
HETATM   20  C   UNL     1     -11.322  13.041  67.981  1.00  0.00    -0.327 A  
HETATM   21  C   UNL     1     -11.510  10.737  68.690  1.00  0.00    -0.365 A  
HETATM   22  C   UNL     1     -12.003  11.155  69.927  1.00  0.00    -0.439 A  
HETATM   23  H   UNL     1     -12.758  13.894  71.537  1.00  0.00     0.000 HD 
HETATM   24  C   UNL     1     -11.813  13.459  69.219  1.00  0.00    -0.385 A  
HETATM   25  C   UNL     1     -12.156  12.515  70.178  1.00  0.00    -0.292 A  
HETATM   26  O   UNL     1     -12.653  12.965  71.366  1.00  0.00    -0.322 OA 
ENDBRANCH  18  19
ENDBRANCH  17  18
ENDBRANCH   2  17
TORSDOF 7
ENDMDL
MODEL      216
REMARK 921   NORMALIZED FREE ENERGY PREDICTED BY IDOCK:   -4.44 KCAL/MOL
REMARK 922        TOTAL FREE ENERGY PREDICTED BY IDOCK:   -7.42 KCAL/MOL
REMARK 923 INTER-LIGAND FREE ENERGY PREDICTED BY IDOCK:   -6.69 KCAL/MOL
REMARK 924 INTRA-LIGAND FREE ENERGY PREDICTED BY IDOCK:   -0.73 KCAL/MOL
REMARK 927      BINDING AFFINITY PREDICTED BY RF-SCORE:    0.00 PKD
ROOT
HETATM    1  C   UNL     1     -12.428  13.894  66.088  1.00  0.00    -0.478 C  
HETATM    2  C   UNL     1     -11.314  14.123  67.116  1.00  0.00    -0.332 C  
ENDROOT
BRANCH   2   3
HETATM    3  N   UNL     1     -11.334  15.490  67.661  1.00  0.00    -0.301 NA 
HETATM    4  H   UNL     1     -11.153  15.471  68.665  1.00  0.00     0.000 HD 
BRANCH   3   5
HETATM    5  C   UNL     1     -10.426  16.440  67.000  1.00  0.00    -0.291 C  
BRANCH   5   6
HETATM    6  C   UNL     1     -10.682  17.908  67.365  1.00  0.00    -0.306 C  
BRANCH   6   7
HETATM    7  C   UNL     1      -9.407  18.682  67.591  1.00  0.00    -0.309 A  
HETATM    8  C   UNL     1      -7.095  20.174  68.044  1.00  0.00    -0.284 A  
HETATM    9  C   UNL     1      -7.313  18.994  68.749  1.00  0.00    -0.331 A  
HETATM   10  O   UNL     1      -5.977  20.919  68.286  1.00  0.00    -0.305 OA 
HETATM   11  C   UNL     1      -8.008  20.615  67.098  1.00  0.00    -0.323 A  
HETATM   12  H   UNL     1      -5.586  19.135  69.817  1.00  0.00     0.000 HD 
HETATM   13  C   UNL     1      -8.461  18.239  68.528  1.00  0.00    -0.325 A  
HETATM   14  O   UNL     1      -6.369  18.619  69.666  1.00  0.00    -0.269 OA 
HETATM   15  C   UNL     1      -9.164  19.864  66.869  1.00  0.00    -0.475 A  
HETATM   16  H   UNL     1      -5.828  21.725  67.804  1.00  0.00     0.000 HD 
ENDBRANCH   6   7
ENDBRANCH   5   6
ENDBRANCH   3   5
ENDBRANCH   2   3
BRANCH   2  17
HETATM   17  C   UNL     1      -9.949  13.838  66.458  1.00  0.00    -0.290 C  
BRANCH  17  18
HETATM   18  C   UNL     1      -9.068  12.881  67.270  1.00  0.00    -0.208 C  
BRANCH  18  19
HETATM   19  C   UNL     1      -9.576  11.462  67.159  1.00  0.00    -0.193 A  
HETATM   20  C   UNL     1      -9.485  10.765  65.947  1.00  0.00    -0.236 A  
HETATM   21  C   UNL     1     -10.099  10.809  68.285  1.00  0.00    -0.187 A  
HETATM   22  C   UNL     1     -10.519   9.479  68.203  1.00  0.00    -0.268 A  
HETATM   23  H   UNL     1     -10.720   7.036  66.046  1.00  0.00     0.000 HD 
HETATM   24  C   UNL     1      -9.907   9.436  65.864  1.00  0.00    -0.362 A  
HETATM   25  C   UNL     1     -10.413   8.803  66.992  1.00  0.00    -0.268 A  
HETATM   26  O   UNL     1     -10.793   7.498  66.873  1.00  0.00    -0.345 OA 
ENDBRANCH  18  19
ENDBRANCH  17  18
ENDBRANCH   2  17
TORSDOF 7
ENDMDL
MODEL      217
REMARK 921   NORMALIZED FREE ENERGY PREDICTED BY IDOCK:   -4.44 KCAL/MOL
REMARK 922        TOTAL FREE ENERGY PREDICTED BY IDOCK:   -7.41 KCAL/MOL
REMARK 923 INTER-LIGAND FREE ENERGY PREDICTED BY IDOCK:   -6.78 KCAL/MOL
REMARK 924 INTRA-LIGAND FREE ENERGY PREDICTED BY IDOCK:   -0.63 KCAL/MOL
REMARK 927      BINDING AFFINITY PREDICTED BY RF-SCORE:    0.00 PKD
ROOT
HETATM    1  C   UNL     1      -9.053  12.504  67.675  1.00  0.00    -0.187 C  
HETATM    2  C   UNL     1     -10.474  12.942  68.050  1.00  0.00    -0.230 C  
ENDROOT
BRANCH   2   3
HETATM    3  N   UNL     1     -10.488  13.851  69.208  1.00  0.00    -0.437 NA 
HETATM    4  H   UNL     1     -10.051  13.401  70.012  1.00  0.00     0.000 HD 
BRANCH   3   5
HETATM    5  C   UNL     1      -9.882  15.170  68.973  1.00  0.00    -0.238 C  
BRANCH   5   6
HETATM    6  C   UNL     1     -10.790  16.150  68.218  1.00  0.00    -0.326 C  
BRANCH   6   7
HETATM    7  C   UNL     1     -10.087  17.437  67.862  1.00  0.00    -0.326 A  
HETATM    8  C   UNL     1      -8.825  19.851  67.271  1.00  0.00    -0.334 A  
HETATM    9  C   UNL     1      -8.074  18.753  67.680  1.00  0.00    -0.251 A  
HETATM   10  O   UNL     1      -8.209  21.042  67.008  1.00  0.00    -0.576 OA 
HETATM   11  C   UNL     1     -10.201  19.759  67.133  1.00  0.00    -0.574 A  
HETATM   12  H   UNL     1      -6.297  19.743  67.592  1.00  0.00     0.000 HD 
HETATM   13  C   UNL     1      -8.693  17.542  67.974  1.00  0.00    -0.254 A  
HETATM   14  O   UNL     1      -6.720  18.917  67.792  1.00  0.00    -0.207 OA 
HETATM   15  C   UNL     1     -10.832  18.547  67.426  1.00  0.00    -0.342 A  
HETATM   16  H   UNL     1      -8.721  21.791  66.729  1.00  0.00     0.000 HD 
ENDBRANCH   6   7
ENDBRANCH   5   6
ENDBRANCH   3   5
ENDBRANCH   2   3
BRANCH   2  17
HETATM   17  C   UNL     1     -11.327  11.693  68.349  1.00  0.00    -0.339 C  
BRANCH  17  18
HETATM   18  C   UNL     1     -10.692  10.751  69.379  1.00  0.00    -0.272 C  
BRANCH  18  19
HETATM   19  C   UNL     1     -10.642   9.336  68.851  1.00  0.00    -0.222 A  
HETATM   20  C   UNL     1     -10.829   8.247  69.712  1.00  0.00    -0.186 A  
HETATM   21  C   UNL     1     -10.457   9.099  67.481  1.00  0.00    -0.335 A  
HETATM   22  C   UNL     1     -10.466   7.797  66.978  1.00  0.00    -0.419 A  
HETATM   23  H   UNL     1     -10.831   4.714  67.992  1.00  0.00     0.000 HD 
HETATM   24  C   UNL     1     -10.836   6.944  69.210  1.00  0.00    -0.270 A  
HETATM   25  C   UNL     1     -10.662   6.730  67.849  1.00  0.00    -0.256 A  
HETATM   26  O   UNL     1     -10.697   5.443  67.397  1.00  0.00    -0.201 OA 
ENDBRANCH  18  19
ENDBRANCH  17  18
ENDBRANCH   2  17
TORSDOF 7
ENDMDL
MODEL      218
REMARK 921   NORMALIZED FREE ENERGY PREDICTED BY IDOCK:   -4.43 KCAL/MOL
REMARK 922        TOTAL FREE ENERGY PREDICTED BY IDOCK:   -7.41 KCAL/MOL
REMARK 923 INTER-LIGAND FREE ENERGY PREDICTED BY IDOCK:   -6.42 KCAL/MOL
REMARK 924 INTRA-LIGAND FREE ENERGY PREDICTED BY IDOCK:   -0.99 KCAL/MOL
REMARK 927      BINDING AFFINITY PREDICTED BY RF-SCORE:    0.00 PKD
ROOT
HETATM    1  C   UNL     1     -12.828  10.186  71.836  1.00  0.00    -0.526 C  
HETATM    2  C   UNL     1     -11.700   9.820  70.865  1.00  0.00    -0.347 C  
ENDROOT
BRANCH   2   3
HETATM    3  N   UNL     1     -12.009  10.211  69.481  1.00  0.00    -0.490 NA 
HETATM    4  H   UNL     1     -12.903   9.812  69.194  1.00  0.00     0.000 HD 
BRANCH   3   5
HETATM    5  C   UNL     1     -11.995  11.659  69.223  1.00  0.00    -0.317 C  
BRANCH   5   6
HETATM    6  C   UNL     1     -10.724  12.156  68.520  1.00  0.00    -0.257 C  
BRANCH   6   7
HETATM    7  C   UNL     1     -10.883  12.238  67.022  1.00  0.00    -0.288 A  
HETATM    8  C   UNL     1     -11.216  12.315  64.255  1.00  0.00    -0.350 A  
HETATM    9  C   UNL     1     -11.880  13.234  65.064  1.00  0.00    -0.352 A  
HETATM   10  O   UNL     1     -11.402  12.336  62.902  1.00  0.00    -0.626 OA 
HETATM   11  C   UNL     1     -10.371  11.365  64.806  1.00  0.00    -0.349 A  
HETATM   12  H   UNL     1     -12.808  14.163  63.508  1.00  0.00     0.000 HD 
HETATM   13  C   UNL     1     -11.717  13.207  66.446  1.00  0.00    -0.429 A  
HETATM   14  O   UNL     1     -12.697  14.145  64.451  1.00  0.00    -0.667 OA 
HETATM   15  C   UNL     1     -10.201  11.330  66.193  1.00  0.00    -0.291 A  
HETATM   16  H   UNL     1     -10.950  11.709  62.350  1.00  0.00     0.000 HD 
ENDBRANCH   6   7
ENDBRANCH   5   6
ENDBRANCH   3   5
ENDBRANCH   2   3
BRANCH   2  17
HETATM   17  C   UNL     1     -11.439   8.302  70.939  1.00  0.00    -0.296 C  
BRANCH  17  18
HETATM   18  C   UNL     1     -10.740   7.741  69.694  1.00  0.00    -0.223 C  
BRANCH  18  19
HETATM   19  C   UNL     1      -9.242   7.908  69.802  1.00  0.00    -0.150 A  
HETATM   20  C   UNL     1      -8.592   8.955  69.134  1.00  0.00    -0.134 A  
HETATM   21  C   UNL     1      -8.490   7.045  70.613  1.00  0.00    -0.139 A  
HETATM   22  C   UNL     1      -7.114   7.229  70.761  1.00  0.00    -0.065 A  
HETATM   23  H   UNL     1      -4.725   9.224  69.774  1.00  0.00     0.000 HD 
HETATM   24  C   UNL     1      -7.215   9.138  69.280  1.00  0.00    -0.065 A  
HETATM   25  C   UNL     1      -6.490   8.279  70.096  1.00  0.00    -0.035 A  
HETATM   26  O   UNL     1      -5.151   8.506  70.228  1.00  0.00    -0.022 OA 
ENDBRANCH  18  19
ENDBRANCH  17  18
ENDBRANCH   2  17
TORSDOF 7
ENDMDL
MODEL      219
REMARK 921   NORMALIZED FREE ENERGY PREDICTED BY IDOCK:   -4.43 KCAL/MOL
REMARK 922        TOTAL FREE ENERGY PREDICTED BY IDOCK:   -7.41 KCAL/MOL
REMARK 923 INTER-LIGAND FREE ENERGY PREDICTED BY IDOCK:   -6.51 KCAL/MOL
REMARK 924 INTRA-LIGAND FREE ENERGY PREDICTED BY IDOCK:   -0.89 KCAL/MOL
REMARK 927      BINDING AFFINITY PREDICTED BY RF-SCORE:    0.00 PKD
ROOT
HETATM    1  C   UNL     1      -8.364   9.972  64.664  1.00  0.00    -0.167 C  
HETATM    2  C   UNL     1      -8.551   9.211  65.981  1.00  0.00    -0.146 C  
ENDROOT
BRANCH   2   3
HETATM    3  N   UNL     1      -8.156  10.016  67.148  1.00  0.00    -0.116 NA 
HETATM    4  H   UNL     1      -7.221   9.751  67.457  1.00  0.00     0.000 HD 
BRANCH   3   5
HETATM    5  C   UNL     1      -8.233  11.472  66.958  1.00  0.00    -0.167 C  
BRANCH   5   6
HETATM    6  C   UNL     1      -9.494  12.114  67.551  1.00  0.00    -0.180 C  
BRANCH   6   7
HETATM    7  C   UNL     1     -10.331  12.820  66.513  1.00  0.00    -0.262 A  
HETATM    8  C   UNL     1     -11.816  14.110  64.537  1.00  0.00    -0.436 A  
HETATM    9  C   UNL     1     -12.251  12.893  65.054  1.00  0.00    -0.464 A  
HETATM   10  O   UNL     1     -12.529  14.728  63.549  1.00  0.00    -1.053 OA 
HETATM   11  C   UNL     1     -10.655  14.705  65.005  1.00  0.00    -0.461 A  
HETATM   12  H   UNL     1     -13.905  12.809  63.871  1.00  0.00     0.000 HD 
HETATM   13  C   UNL     1     -11.520  12.243  66.044  1.00  0.00    -0.434 A  
HETATM   14  O   UNL     1     -13.407  12.365  64.546  1.00  0.00    -0.800 OA 
HETATM   15  C   UNL     1      -9.913  14.060  65.998  1.00  0.00    -0.331 A  
HETATM   16  H   UNL     1     -12.232  15.558  63.196  1.00  0.00     0.000 HD 
ENDBRANCH   6   7
ENDBRANCH   5   6
ENDBRANCH   3   5
ENDBRANCH   2   3
BRANCH   2  17
HETATM   17  C   UNL     1      -7.727   7.909  65.935  1.00  0.00    -0.093 C  
BRANCH  17  18
HETATM   18  C   UNL     1      -8.591   6.641  65.890  1.00  0.00    -0.153 C  
BRANCH  18  19
HETATM   19  C   UNL     1      -9.184   6.350  67.249  1.00  0.00    -0.122 A  
HETATM   20  C   UNL     1     -10.556   6.100  67.389  1.00  0.00    -0.352 A  
HETATM   21  C   UNL     1      -8.358   6.275  68.380  1.00  0.00    -0.115 A  
HETATM   22  C   UNL     1      -8.891   5.951  69.629  1.00  0.00    -0.131 A  
HETATM   23  H   UNL     1     -11.745   5.187  71.020  1.00  0.00     0.000 HD 
HETATM   24  C   UNL     1     -11.091   5.777  68.638  1.00  0.00    -0.061 A  
HETATM   25  C   UNL     1     -10.255   5.699  69.744  1.00  0.00    -0.251 A  
HETATM   26  O   UNL     1     -10.814   5.360  70.942  1.00  0.00    -0.218 OA 
ENDBRANCH  18  19
ENDBRANCH  17  18
ENDBRANCH   2  17
TORSDOF 7
ENDMDL
MODEL      220
REMARK 921   NORMALIZED FREE ENERGY PREDICTED BY IDOCK:   -4.43 KCAL/MOL
REMARK 922        TOTAL FREE ENERGY PREDICTED BY IDOCK:   -7.40 KCAL/MOL
REMARK 923 INTER-LIGAND FREE ENERGY PREDICTED BY IDOCK:   -5.19 KCAL/MOL
REMARK 924 INTRA-LIGAND FREE ENERGY PREDICTED BY IDOCK:   -2.22 KCAL/MOL
REMARK 927      BINDING AFFINITY PREDICTED BY RF-SCORE:    0.00 PKD
ROOT
HETATM    1  C   UNL     1      -6.814  10.331  66.432  1.00  0.00    -0.106 C  
HETATM    2  C   UNL     1      -7.417  11.073  67.630  1.00  0.00    -0.096 C  
ENDROOT
BRANCH   2   3
HETATM    3  N   UNL     1      -8.838  10.744  67.829  1.00  0.00    -0.129 NA 
HETATM    4  H   UNL     1      -9.285  11.456  68.407  1.00  0.00     0.000 HD 
BRANCH   3   5
HETATM    5  C   UNL     1      -9.610  10.535  66.595  1.00  0.00    -0.172 C  
BRANCH   5   6
HETATM    6  C   UNL     1     -10.996  11.191  66.606  1.00  0.00    -0.289 C  
BRANCH   6   7
HETATM    7  C   UNL     1     -10.931  12.691  66.455  1.00  0.00    -0.302 A  
HETATM    8  C   UNL     1     -10.870  15.458  66.118  1.00  0.00    -0.313 A  
HETATM    9  C   UNL     1     -11.333  14.910  67.312  1.00  0.00    -0.349 A  
HETATM   10  O   UNL     1     -10.867  16.813  65.944  1.00  0.00    -0.202 OA 
HETATM   11  C   UNL     1     -10.419  14.644  65.092  1.00  0.00    -0.440 A  
HETATM   12  H   UNL     1     -11.741  16.716  68.159  1.00  0.00     0.000 HD 
HETATM   13  C   UNL     1     -11.363  13.531  67.492  1.00  0.00    -0.335 A  
HETATM   14  O   UNL     1     -11.761  15.774  68.282  1.00  0.00    -0.345 OA 
HETATM   15  C   UNL     1     -10.446  13.257  65.263  1.00  0.00    -0.324 A  
HETATM   16  H   UNL     1     -10.552  17.187  65.129  1.00  0.00     0.000 HD 
ENDBRANCH   6   7
ENDBRANCH   5   6
ENDBRANCH   3   5
ENDBRANCH   2   3
BRANCH   2  17
HETATM   17  C   UNL     1      -7.252  12.592  67.421  1.00  0.00    -0.146 C  
BRANCH  17  18
HETATM   18  C   UNL     1      -7.639  13.423  68.651  1.00  0.00    -0.101 C  
BRANCH  18  19
HETATM   19  C   UNL     1      -7.835  14.874  68.276  1.00  0.00    -0.122 A  
HETATM   20  C   UNL     1      -8.524  15.745  69.131  1.00  0.00    -0.251 A  
HETATM   21  C   UNL     1      -7.285  15.377  67.088  1.00  0.00    -0.179 A  
HETATM   22  C   UNL     1      -7.414  16.729  66.763  1.00  0.00    -0.279 A  
HETATM   23  H   UNL     1      -8.692  19.489  67.953  1.00  0.00     0.000 HD 
HETATM   24  C   UNL     1      -8.655  17.096  68.806  1.00  0.00    -0.236 A  
HETATM   25  C   UNL     1      -8.095  17.578  67.630  1.00  0.00    -0.207 A  
HETATM   26  O   UNL     1      -8.228  18.909  67.360  1.00  0.00    -0.266 OA 
ENDBRANCH  18  19
ENDBRANCH  17  18
ENDBRANCH   2  17
TORSDOF 7
ENDMDL
MODEL      221
REMARK 921   NORMALIZED FREE ENERGY PREDICTED BY IDOCK:   -4.43 KCAL/MOL
REMARK 922        TOTAL FREE ENERGY PREDICTED BY IDOCK:   -7.40 KCAL/MOL
REMARK 923 INTER-LIGAND FREE ENERGY PREDICTED BY IDOCK:   -6.17 KCAL/MOL
REMARK 924 INTRA-LIGAND FREE ENERGY PREDICTED BY IDOCK:   -1.24 KCAL/MOL
REMARK 927      BINDING AFFINITY PREDICTED BY RF-SCORE:    0.00 PKD
ROOT
HETATM    1  C   UNL     1      -8.946   7.956  73.306  1.00  0.00    -0.326 C  
HETATM    2  C   UNL     1     -10.034   8.289  72.278  1.00  0.00    -0.296 C  
ENDROOT
BRANCH   2   3
HETATM    3  N   UNL     1     -11.359   7.802  72.694  1.00  0.00    -0.376 NA 
HETATM    4  H   UNL     1     -11.294   7.334  73.598  1.00  0.00     0.000 HD 
BRANCH   3   5
HETATM    5  C   UNL     1     -12.417   8.823  72.729  1.00  0.00    -0.031 C  
BRANCH   5   6
HETATM    6  C   UNL     1     -12.866   9.306  71.343  1.00  0.00    -0.398 C  
BRANCH   6   7
HETATM    7  C   UNL     1     -12.735  10.800  71.177  1.00  0.00    -0.532 A  
HETATM    8  C   UNL     1     -12.451  13.563  70.943  1.00  0.00    -0.369 A  
HETATM    9  C   UNL     1     -11.808  12.717  70.043  1.00  0.00    -0.281 A  
HETATM   10  O   UNL     1     -12.288  14.916  70.844  1.00  0.00    -0.284 OA 
HETATM   11  C   UNL     1     -13.252  13.051  71.951  1.00  0.00    -0.527 A  
HETATM   12  H   UNL     1     -10.940  14.235  69.001  1.00  0.00     0.000 HD 
HETATM   13  C   UNL     1     -11.946  11.336  70.149  1.00  0.00    -0.452 A  
HETATM   14  O   UNL     1     -11.034  13.292  69.072  1.00  0.00    -0.247 OA 
HETATM   15  C   UNL     1     -13.397  11.666  72.065  1.00  0.00    -0.405 A  
HETATM   16  H   UNL     1     -12.727  15.494  71.458  1.00  0.00     0.000 HD 
ENDBRANCH   6   7
ENDBRANCH   5   6
ENDBRANCH   3   5
ENDBRANCH   2   3
BRANCH   2  17
HETATM   17  C   UNL     1      -9.650   7.675  70.917  1.00  0.00    -0.167 C  
BRANCH  17  18
HETATM   18  C   UNL     1      -8.479   8.392  70.232  1.00  0.00    -0.126 C  
BRANCH  18  19
HETATM   19  C   UNL     1      -8.844   8.780  68.818  1.00  0.00    -0.134 A  
HETATM   20  C   UNL     1      -7.851   9.158  67.904  1.00  0.00    -0.100 A  
HETATM   21  C   UNL     1     -10.178   8.716  68.388  1.00  0.00    -0.232 A  
HETATM   22  C   UNL     1     -10.514   9.018  67.067  1.00  0.00    -0.316 A  
HETATM   23  H   UNL     1      -9.108   9.918  64.260  1.00  0.00     0.000 HD 
HETATM   24  C   UNL     1      -8.186   9.462  66.583  1.00  0.00    -0.112 A  
HETATM   25  C   UNL     1      -9.511   9.384  66.174  1.00  0.00    -0.226 A  
HETATM   26  O   UNL     1      -9.793   9.669  64.870  1.00  0.00    -0.232 OA 
ENDBRANCH  18  19
ENDBRANCH  17  18
ENDBRANCH   2  17
TORSDOF 7
ENDMDL
MODEL      222
REMARK 921   NORMALIZED FREE ENERGY PREDICTED BY IDOCK:   -4.39 KCAL/MOL
REMARK 922        TOTAL FREE ENERGY PREDICTED BY IDOCK:   -7.35 KCAL/MOL
REMARK 923 INTER-LIGAND FREE ENERGY PREDICTED BY IDOCK:   -6.13 KCAL/MOL
REMARK 924 INTRA-LIGAND FREE ENERGY PREDICTED BY IDOCK:   -1.22 KCAL/MOL
REMARK 927      BINDING AFFINITY PREDICTED BY RF-SCORE:    0.00 PKD
ROOT
HETATM    1  C   UNL     1     -11.901  11.075  67.586  1.00  0.00     0.078 C  
HETATM    2  C   UNL     1     -10.983  12.223  68.019  1.00  0.00    -0.225 C  
ENDROOT
BRANCH   2   3
HETATM    3  N   UNL     1      -9.639  12.113  67.430  1.00  0.00    -0.176 NA 
HETATM    4  H   UNL     1      -9.391  11.132  67.302  1.00  0.00     0.000 HD 
BRANCH   3   5
HETATM    5  C   UNL     1      -9.446  12.852  66.173  1.00  0.00    -0.154 C  
BRANCH   5   6
HETATM    6  C   UNL     1     -10.374  14.063  66.010  1.00  0.00    -0.312 C  
BRANCH   6   7
HETATM    7  C   UNL     1      -9.823  15.309  66.659  1.00  0.00    -0.263 A  
HETATM    8  C   UNL     1      -8.822  17.654  67.787  1.00  0.00    -0.240 A  
HETATM    9  C   UNL     1      -9.998  17.091  68.276  1.00  0.00    -0.285 A  
HETATM   10  O   UNL     1      -8.348  18.818  68.322  1.00  0.00    -0.307 OA 
HETATM   11  C   UNL     1      -8.125  17.053  66.751  1.00  0.00    -0.277 A  
HETATM   12  H   UNL     1     -10.286  18.538  69.679  1.00  0.00     0.000 HD 
HETATM   13  C   UNL     1     -10.504  15.919  67.724  1.00  0.00    -0.287 A  
HETATM   14  O   UNL     1     -10.632  17.738  69.302  1.00  0.00    -0.176 OA 
HETATM   15  C   UNL     1      -8.626  15.876  66.189  1.00  0.00    -0.276 A  
HETATM   16  H   UNL     1      -7.545  19.203  67.988  1.00  0.00     0.000 HD 
ENDBRANCH   6   7
ENDBRANCH   5   6
ENDBRANCH   3   5
ENDBRANCH   2   3
BRANCH   2  17
HETATM   17  C   UNL     1     -10.885  12.241  69.558  1.00  0.00     0.089 C  
BRANCH  17  18
HETATM   18  C   UNL     1     -12.233  12.033  70.259  1.00  0.00    -0.348 C  
BRANCH  18  19
HETATM   19  C   UNL     1     -12.577  13.226  71.122  1.00  0.00    -0.412 A  
HETATM   20  C   UNL     1     -11.971  14.469  70.894  1.00  0.00    -0.389 A  
HETATM   21  C   UNL     1     -13.546  13.113  72.129  1.00  0.00    -0.637 A  
HETATM   22  C   UNL     1     -13.908  14.225  72.893  1.00  0.00    -0.152 A  
HETATM   23  H   UNL     1     -13.223  17.404  73.184  1.00  0.00     0.000 HD 
HETATM   24  C   UNL     1     -12.331  15.580  71.658  1.00  0.00    -0.471 A  
HETATM   25  C   UNL     1     -13.300  15.451  72.645  1.00  0.00    -0.504 A  
HETATM   26  O   UNL     1     -13.638  16.567  73.354  1.00  0.00    -0.404 OA 
ENDBRANCH  18  19
ENDBRANCH  17  18
ENDBRANCH   2  17
TORSDOF 7
ENDMDL
MODEL      223
REMARK 921   NORMALIZED FREE ENERGY PREDICTED BY IDOCK:   -4.38 KCAL/MOL
REMARK 922        TOTAL FREE ENERGY PREDICTED BY IDOCK:   -7.34 KCAL/MOL
REMARK 923 INTER-LIGAND FREE ENERGY PREDICTED BY IDOCK:   -4.59 KCAL/MOL
REMARK 924 INTRA-LIGAND FREE ENERGY PREDICTED BY IDOCK:   -2.75 KCAL/MOL
REMARK 927      BINDING AFFINITY PREDICTED BY RF-SCORE:    0.00 PKD
ROOT
HETATM    1  C   UNL     1     -12.660   7.579  71.155  1.00  0.00    -0.293 C  
HETATM    2  C   UNL     1     -11.694   7.516  72.344  1.00  0.00    -0.290 C  
ENDROOT
BRANCH   2   3
HETATM    3  N   UNL     1     -10.652   8.552  72.268  1.00  0.00    -0.339 NA 
HETATM    4  H   UNL     1      -9.736   8.143  72.451  1.00  0.00     0.000 HD 
BRANCH   3   5
HETATM    5  C   UNL     1     -10.623   9.319  71.013  1.00  0.00    -0.316 C  
BRANCH   5   6
HETATM    6  C   UNL     1      -9.248   9.355  70.334  1.00  0.00    -0.305 C  
BRANCH   6   7
HETATM    7  C   UNL     1      -9.208   8.550  69.059  1.00  0.00    -0.146 A  
HETATM    8  C   UNL     1      -9.152   7.133  66.658  1.00  0.00    -0.149 A  
HETATM    9  C   UNL     1      -7.979   7.324  67.383  1.00  0.00    -0.112 A  
HETATM   10  O   UNL     1      -9.119   6.463  65.468  1.00  0.00    -0.362 OA 
HETATM   11  C   UNL     1     -10.362   7.626  67.123  1.00  0.00    -0.385 A  
HETATM   12  H   UNL     1      -6.811   6.329  66.045  1.00  0.00     0.000 HD 
HETATM   13  C   UNL     1      -7.996   8.026  68.585  1.00  0.00    -0.123 A  
HETATM   14  O   UNL     1      -6.822   6.808  66.865  1.00  0.00    -0.061 OA 
HETATM   15  C   UNL     1     -10.389   8.332  68.328  1.00  0.00    -0.242 A  
HETATM   16  H   UNL     1      -9.920   6.333  64.973  1.00  0.00     0.000 HD 
ENDBRANCH   6   7
ENDBRANCH   5   6
ENDBRANCH   3   5
ENDBRANCH   2   3
BRANCH   2  17
HETATM   17  C   UNL     1     -11.045   6.118  72.395  1.00  0.00    -0.316 C  
BRANCH  17  18
HETATM   18  C   UNL     1      -9.522   6.145  72.213  1.00  0.00    -0.156 C  
BRANCH  18  19
HETATM   19  C   UNL     1      -9.117   5.366  70.983  1.00  0.00    -0.167 A  
HETATM   20  C   UNL     1     -10.077   4.971  70.041  1.00  0.00    -0.342 A  
HETATM   21  C   UNL     1      -7.766   5.073  70.744  1.00  0.00    -0.078 A  
HETATM   22  C   UNL     1      -7.379   4.402  69.582  1.00  0.00    -0.051 A  
HETATM   23  H   UNL     1      -8.673   3.131  66.866  1.00  0.00     0.000 HD 
HETATM   24  C   UNL     1      -9.691   4.299  68.879  1.00  0.00    -0.195 A  
HETATM   25  C   UNL     1      -8.348   4.026  68.656  1.00  0.00    -0.082 A  
HETATM   26  O   UNL     1      -8.012   3.387  67.499  1.00  0.00    -0.080 OA 
ENDBRANCH  18  19
ENDBRANCH  17  18
ENDBRANCH   2  17
TORSDOF 7
ENDMDL
MODEL      224
REMARK 921   NORMALIZED FREE ENERGY PREDICTED BY IDOCK:   -4.38 KCAL/MOL
REMARK 922        TOTAL FREE ENERGY PREDICTED BY IDOCK:   -7.33 KCAL/MOL
REMARK 923 INTER-LIGAND FREE ENERGY PREDICTED BY IDOCK:   -6.13 KCAL/MOL
REMARK 924 INTRA-LIGAND FREE ENERGY PREDICTED BY IDOCK:   -1.20 KCAL/MOL
REMARK 927      BINDING AFFINITY PREDICTED BY RF-SCORE:    0.00 PKD
ROOT
HETATM    1  C   UNL     1      -8.412   9.929  67.076  1.00  0.00    -0.121 C  
HETATM    2  C   UNL     1      -8.518  10.413  68.526  1.00  0.00    -0.129 C  
ENDROOT
BRANCH   2   3
HETATM    3  N   UNL     1      -9.595   9.731  69.262  1.00  0.00    -0.185 NA 
HETATM    4  H   UNL     1      -9.504   9.907  70.262  1.00  0.00     0.000 HD 
BRANCH   3   5
HETATM    5  C   UNL     1     -10.959  10.052  68.813  1.00  0.00    -0.202 C  
BRANCH   5   6
HETATM    6  C   UNL     1     -11.909  10.462  69.946  1.00  0.00    -0.314 C  
BRANCH   6   7
HETATM    7  C   UNL     1     -12.158  11.949  69.986  1.00  0.00    -0.366 A  
HETATM    8  C   UNL     1     -12.679  14.688  70.001  1.00  0.00    -0.152 A  
HETATM    9  C   UNL     1     -12.995  13.912  71.113  1.00  0.00    -0.318 A  
HETATM   10  O   UNL     1     -12.959  16.025  69.999  1.00  0.00    -0.615 OA 
HETATM   11  C   UNL     1     -12.088  14.120  68.883  1.00  0.00    -0.339 A  
HETATM   12  H   UNL     1     -13.752  15.473  72.177  1.00  0.00     0.000 HD 
HETATM   13  C   UNL     1     -12.736  12.545  71.118  1.00  0.00    -0.340 A  
HETATM   14  O   UNL     1     -13.575  14.540  72.181  1.00  0.00    -0.349 OA 
HETATM   15  C   UNL     1     -11.824  12.748  68.879  1.00  0.00    -0.351 A  
HETATM   16  H   UNL     1     -12.744  16.555  69.240  1.00  0.00     0.000 HD 
ENDBRANCH   6   7
ENDBRANCH   5   6
ENDBRANCH   3   5
ENDBRANCH   2   3
BRANCH   2  17
HETATM   17  C   UNL     1      -8.756  11.936  68.537  1.00  0.00    -0.108 C  
BRANCH  17  18
HETATM   18  C   UNL     1      -7.652  12.731  67.827  1.00  0.00    -0.141 C  
BRANCH  18  19
HETATM   19  C   UNL     1      -8.193  14.040  67.297  1.00  0.00    -0.187 A  
HETATM   20  C   UNL     1      -7.514  15.241  67.539  1.00  0.00    -0.216 A  
HETATM   21  C   UNL     1      -9.355  14.058  66.513  1.00  0.00    -0.274 A  
HETATM   22  C   UNL     1      -9.829  15.256  65.973  1.00  0.00    -0.357 A  
HETATM   23  H   UNL     1      -9.077  18.432  65.863  1.00  0.00     0.000 HD 
HETATM   24  C   UNL     1      -7.987  16.440  67.001  1.00  0.00    -0.240 A  
HETATM   25  C   UNL     1      -9.135  16.437  66.219  1.00  0.00    -0.327 A  
HETATM   26  O   UNL     1      -9.551  17.626  65.696  1.00  0.00    -0.503 OA 
ENDBRANCH  18  19
ENDBRANCH  17  18
ENDBRANCH   2  17
TORSDOF 7
ENDMDL
MODEL      225
REMARK 921   NORMALIZED FREE ENERGY PREDICTED BY IDOCK:   -4.38 KCAL/MOL
REMARK 922        TOTAL FREE ENERGY PREDICTED BY IDOCK:   -7.33 KCAL/MOL
REMARK 923 INTER-LIGAND FREE ENERGY PREDICTED BY IDOCK:   -6.66 KCAL/MOL
REMARK 924 INTRA-LIGAND FREE ENERGY PREDICTED BY IDOCK:   -0.68 KCAL/MOL
REMARK 927      BINDING AFFINITY PREDICTED BY RF-SCORE:    0.00 PKD
ROOT
HETATM    1  C   UNL     1      -7.127   6.952  67.386  1.00  0.00    -0.084 C  
HETATM    2  C   UNL     1      -8.576   7.433  67.523  1.00  0.00    -0.122 C  
ENDROOT
BRANCH   2   3
HETATM    3  N   UNL     1      -9.462   6.384  68.052  1.00  0.00    -0.117 NA 
HETATM    4  H   UNL     1      -9.177   5.471  67.698  1.00  0.00     0.000 HD 
BRANCH   3   5
HETATM    5  C   UNL     1      -9.577   6.345  69.518  1.00  0.00    -0.144 C  
BRANCH   5   6
HETATM    6  C   UNL     1     -10.968   5.945  70.026  1.00  0.00    -0.430 C  
BRANCH   6   7
HETATM    7  C   UNL     1     -11.715   7.101  70.645  1.00  0.00    -0.348 A  
HETATM    8  C   UNL     1     -13.070   9.210  71.866  1.00  0.00    -0.411 A  
HETATM    9  C   UNL     1     -11.962   9.464  71.063  1.00  0.00    -0.315 A  
HETATM   10  O   UNL     1     -13.717  10.241  72.485  1.00  0.00    -0.577 OA 
HETATM   11  C   UNL     1     -13.527   7.915  72.057  1.00  0.00    -0.258 A  
HETATM   12  H   UNL     1     -12.034  11.480  71.339  1.00  0.00     0.000 HD 
HETATM   13  C   UNL     1     -11.281   8.419  70.445  1.00  0.00    -0.220 A  
HETATM   14  O   UNL     1     -11.569  10.767  70.918  1.00  0.00    -0.306 OA 
HETATM   15  C   UNL     1     -12.849   6.859  71.441  1.00  0.00    -0.365 A  
HETATM   16  H   UNL     1     -14.473  10.068  73.034  1.00  0.00     0.000 HD 
ENDBRANCH   6   7
ENDBRANCH   5   6
ENDBRANCH   3   5
ENDBRANCH   2   3
BRANCH   2  17
HETATM   17  C   UNL     1      -9.084   7.908  66.147  1.00  0.00    -0.210 C  
BRANCH  17  18
HETATM   18  C   UNL     1      -8.430   9.211  65.670  1.00  0.00    -0.151 C  
BRANCH  18  19
HETATM   19  C   UNL     1      -9.475  10.182  65.171  1.00  0.00    -0.319 A  
HETATM   20  C   UNL     1     -10.311  10.855  66.072  1.00  0.00    -0.304 A  
HETATM   21  C   UNL     1      -9.586  10.460  63.800  1.00  0.00    -0.366 A  
HETATM   22  C   UNL     1     -10.511  11.398  63.338  1.00  0.00    -0.452 A  
HETATM   23  H   UNL     1     -12.786  13.451  64.467  1.00  0.00     0.000 HD 
HETATM   24  C   UNL     1     -11.238  11.792  65.611  1.00  0.00    -0.324 A  
HETATM   25  C   UNL     1     -11.326  12.060  64.251  1.00  0.00    -0.364 A  
HETATM   26  O   UNL     1     -12.229  12.998  63.844  1.00  0.00    -0.471 OA 
ENDBRANCH  18  19
ENDBRANCH  17  18
ENDBRANCH   2  17
TORSDOF 7
ENDMDL
MODEL      226
REMARK 921   NORMALIZED FREE ENERGY PREDICTED BY IDOCK:   -4.36 KCAL/MOL
REMARK 922        TOTAL FREE ENERGY PREDICTED BY IDOCK:   -7.31 KCAL/MOL
REMARK 923 INTER-LIGAND FREE ENERGY PREDICTED BY IDOCK:   -6.54 KCAL/MOL
REMARK 924 INTRA-LIGAND FREE ENERGY PREDICTED BY IDOCK:   -0.77 KCAL/MOL
REMARK 927      BINDING AFFINITY PREDICTED BY RF-SCORE:    0.00 PKD
ROOT
HETATM    1  C   UNL     1      -9.384  11.012  66.942  1.00  0.00    -0.189 C  
HETATM    2  C   UNL     1     -10.721  10.384  67.349  1.00  0.00    -0.283 C  
ENDROOT
BRANCH   2   3
HETATM    3  N   UNL     1     -11.338  11.080  68.490  1.00  0.00    -0.263 NA 
HETATM    4  H   UNL     1     -11.153  10.572  69.354  1.00  0.00     0.000 HD 
BRANCH   3   5
HETATM    5  C   UNL     1     -10.955  12.492  68.640  1.00  0.00    -0.255 C  
BRANCH   5   6
HETATM    6  C   UNL     1     -11.924  13.478  67.974  1.00  0.00    -0.372 C  
BRANCH   6   7
HETATM    7  C   UNL     1     -11.225  14.691  67.413  1.00  0.00    -0.351 A  
HETATM    8  C   UNL     1     -10.000  16.949  66.328  1.00  0.00    -0.309 A  
HETATM    9  C   UNL     1     -10.362  16.929  67.672  1.00  0.00    -0.317 A  
HETATM   10  O   UNL     1      -9.426  18.066  65.791  1.00  0.00    -0.495 OA 
HETATM   11  C   UNL     1     -10.225  15.848  65.516  1.00  0.00    -0.394 A  
HETATM   12  H   UNL     1      -9.694  18.817  68.037  1.00  0.00     0.000 HD 
HETATM   13  C   UNL     1     -10.969  15.806  68.225  1.00  0.00    -0.325 A  
HETATM   14  O   UNL     1     -10.108  18.051  68.414  1.00  0.00    -0.346 OA 
HETATM   15  C   UNL     1     -10.835  14.716  66.062  1.00  0.00    -0.318 A  
HETATM   16  H   UNL     1      -9.179  18.080  64.873  1.00  0.00     0.000 HD 
ENDBRANCH   6   7
ENDBRANCH   5   6
ENDBRANCH   3   5
ENDBRANCH   2   3
BRANCH   2  17
HETATM   17  C   UNL     1     -10.499   8.898  67.697  1.00  0.00    -0.320 C  
BRANCH  17  18
HETATM   18  C   UNL     1      -9.299   8.659  68.621  1.00  0.00    -0.142 C  
BRANCH  18  19
HETATM   19  C   UNL     1      -9.753   8.125  69.960  1.00  0.00    -0.172 A  
HETATM   20  C   UNL     1      -9.989   6.755  70.137  1.00  0.00    -0.191 A  
HETATM   21  C   UNL     1      -9.893   8.989  71.056  1.00  0.00    -0.352 A  
HETATM   22  C   UNL     1     -10.257   8.493  72.309  1.00  0.00    -0.395 A  
HETATM   23  H   UNL     1     -10.971   5.667  73.783  1.00  0.00     0.000 HD 
HETATM   24  C   UNL     1     -10.356   6.258  71.390  1.00  0.00    -0.251 A  
HETATM   25  C   UNL     1     -10.480   7.129  72.465  1.00  0.00    -0.223 A  
HETATM   26  O   UNL     1     -10.819   6.599  73.676  1.00  0.00    -0.274 OA 
ENDBRANCH  18  19
ENDBRANCH  17  18
ENDBRANCH   2  17
TORSDOF 7
ENDMDL
MODEL      227
REMARK 921   NORMALIZED FREE ENERGY PREDICTED BY IDOCK:   -4.36 KCAL/MOL
REMARK 922        TOTAL FREE ENERGY PREDICTED BY IDOCK:   -7.30 KCAL/MOL
REMARK 923 INTER-LIGAND FREE ENERGY PREDICTED BY IDOCK:   -6.62 KCAL/MOL
REMARK 924 INTRA-LIGAND FREE ENERGY PREDICTED BY IDOCK:   -0.68 KCAL/MOL
REMARK 927      BINDING AFFINITY PREDICTED BY RF-SCORE:    0.00 PKD
ROOT
HETATM    1  C   UNL     1     -11.976  14.871  68.767  1.00  0.00    -0.284 C  
HETATM    2  C   UNL     1     -10.776  13.934  68.938  1.00  0.00    -0.236 C  
ENDROOT
BRANCH   2   3
HETATM    3  N   UNL     1      -9.608  14.624  69.509  1.00  0.00    -0.419 NA 
HETATM    4  H   UNL     1      -8.948  13.945  69.887  1.00  0.00     0.000 HD 
BRANCH   3   5
HETATM    5  C   UNL     1      -8.918  15.545  68.593  1.00  0.00    -0.194 C  
BRANCH   5   6
HETATM    6  C   UNL     1      -9.102  17.028  68.941  1.00  0.00    -0.208 C  
BRANCH   6   7
HETATM    7  C   UNL     1      -9.716  17.818  67.811  1.00  0.00    -0.285 A  
HETATM    8  C   UNL     1     -10.774  19.309  65.707  1.00  0.00    -0.330 A  
HETATM    9  C   UNL     1     -10.733  17.920  65.626  1.00  0.00    -0.052 A  
HETATM   10  O   UNL     1     -11.268  20.040  64.664  1.00  0.00    -0.008 OA 
HETATM   11  C   UNL     1     -10.310  19.969  66.834  1.00  0.00    -0.567 A  
HETATM   12  H   UNL     1     -11.567  17.851  63.770  1.00  0.00     0.000 HD 
HETATM   13  C   UNL     1     -10.211  17.166  66.672  1.00  0.00    -0.319 A  
HETATM   14  O   UNL     1     -11.211  17.337  64.484  1.00  0.00    -1.083 OA 
HETATM   15  C   UNL     1      -9.783  19.220  67.890  1.00  0.00    -0.422 A  
HETATM   16  H   UNL     1     -11.296  20.989  64.718  1.00  0.00     0.000 HD 
ENDBRANCH   6   7
ENDBRANCH   5   6
ENDBRANCH   3   5
ENDBRANCH   2   3
BRANCH   2  17
HETATM   17  C   UNL     1     -10.410  13.323  67.570  1.00  0.00    -0.229 C  
BRANCH  17  18
HETATM   18  C   UNL     1      -9.190  12.395  67.622  1.00  0.00    -0.185 C  
BRANCH  18  19
HETATM   19  C   UNL     1      -9.607  10.953  67.448  1.00  0.00    -0.181 A  
HETATM   20  C   UNL     1     -10.190  10.247  68.509  1.00  0.00    -0.192 A  
HETATM   21  C   UNL     1      -9.462  10.320  66.205  1.00  0.00    -0.229 A  
HETATM   22  C   UNL     1      -9.897   9.006  66.022  1.00  0.00    -0.312 A  
HETATM   23  H   UNL     1     -11.335   6.583  67.673  1.00  0.00     0.000 HD 
HETATM   24  C   UNL     1     -10.623   8.932  68.328  1.00  0.00    -0.203 A  
HETATM   25  C   UNL     1     -10.480   8.325  67.087  1.00  0.00    -0.316 A  
HETATM   26  O   UNL     1     -10.937   7.047  66.947  1.00  0.00    -0.371 OA 
ENDBRANCH  18  19
ENDBRANCH  17  18
ENDBRANCH   2  17
TORSDOF 7
ENDMDL
MODEL      228
REMARK 921   NORMALIZED FREE ENERGY PREDICTED BY IDOCK:   -4.35 KCAL/MOL
REMARK 922        TOTAL FREE ENERGY PREDICTED BY IDOCK:   -7.29 KCAL/MOL
REMARK 923 INTER-LIGAND FREE ENERGY PREDICTED BY IDOCK:   -5.60 KCAL/MOL
REMARK 924 INTRA-LIGAND FREE ENERGY PREDICTED BY IDOCK:   -1.68 KCAL/MOL
REMARK 927      BINDING AFFINITY PREDICTED BY RF-SCORE:    0.00 PKD
ROOT
HETATM    1  C   UNL     1      -9.113  14.201  66.846  1.00  0.00    -0.260 C  
HETATM    2  C   UNL     1     -10.409  13.832  66.116  1.00  0.00    -0.301 C  
ENDROOT
BRANCH   2   3
HETATM    3  N   UNL     1     -11.436  13.315  67.034  1.00  0.00    -0.322 NA 
HETATM    4  H   UNL     1     -11.979  12.582  66.577  1.00  0.00     0.000 HD 
BRANCH   3   5
HETATM    5  C   UNL     1     -10.932  12.838  68.331  1.00  0.00    -0.254 C  
BRANCH   5   6
HETATM    6  C   UNL     1     -11.945  12.008  69.129  1.00  0.00    -0.326 C  
BRANCH   6   7
HETATM    7  C   UNL     1     -11.291  10.918  69.942  1.00  0.00    -0.381 A  
HETATM    8  C   UNL     1     -10.138   8.848  71.412  1.00  0.00    -0.309 A  
HETATM    9  C   UNL     1      -9.418   9.466  70.393  1.00  0.00    -0.268 A  
HETATM   10  O   UNL     1      -9.582   7.816  72.112  1.00  0.00    -0.159 OA 
HETATM   11  C   UNL     1     -11.424   9.260  71.722  1.00  0.00    -0.448 A  
HETATM   12  H   UNL     1      -7.768   8.301  70.645  1.00  0.00     0.000 HD 
HETATM   13  C   UNL     1      -9.982  10.503  69.656  1.00  0.00    -0.149 A  
HETATM   14  O   UNL     1      -8.153   9.009  70.142  1.00  0.00    -0.099 OA 
HETATM   15  C   UNL     1     -12.000  10.300  70.988  1.00  0.00    -0.483 A  
HETATM   16  H   UNL     1     -10.073   7.394  72.808  1.00  0.00     0.000 HD 
ENDBRANCH   6   7
ENDBRANCH   5   6
ENDBRANCH   3   5
ENDBRANCH   2   3
BRANCH   2  17
HETATM   17  C   UNL     1     -10.098  12.784  65.029  1.00  0.00    -0.239 C  
BRANCH  17  18
HETATM   18  C   UNL     1     -10.870  11.470  65.208  1.00  0.00    -0.319 C  
BRANCH  18  19
HETATM   19  C   UNL     1      -9.974  10.398  65.785  1.00  0.00    -0.334 A  
HETATM   20  C   UNL     1     -10.522   9.230  66.332  1.00  0.00    -0.157 A  
HETATM   21  C   UNL     1      -8.580  10.538  65.732  1.00  0.00    -0.180 A  
HETATM   22  C   UNL     1      -7.746   9.526  66.212  1.00  0.00    -0.101 A  
HETATM   23  H   UNL     1      -7.918   6.561  67.570  1.00  0.00     0.000 HD 
HETATM   24  C   UNL     1      -9.689   8.218  66.814  1.00  0.00    -0.307 A  
HETATM   25  C   UNL     1      -8.310   8.371  66.744  1.00  0.00    -0.109 A  
HETATM   26  O   UNL     1      -7.533   7.350  67.206  1.00  0.00    -0.098 OA 
ENDBRANCH  18  19
ENDBRANCH  17  18
ENDBRANCH   2  17
TORSDOF 7
ENDMDL
MODEL      229
REMARK 921   NORMALIZED FREE ENERGY PREDICTED BY IDOCK:   -4.34 KCAL/MOL
REMARK 922        TOTAL FREE ENERGY PREDICTED BY IDOCK:   -7.27 KCAL/MOL
REMARK 923 INTER-LIGAND FREE ENERGY PREDICTED BY IDOCK:   -6.20 KCAL/MOL
REMARK 924 INTRA-LIGAND FREE ENERGY PREDICTED BY IDOCK:   -1.07 KCAL/MOL
REMARK 927      BINDING AFFINITY PREDICTED BY RF-SCORE:    0.00 PKD
ROOT
HETATM    1  C   UNL     1      -8.790   7.688  71.386  1.00  0.00    -0.141 C  
HETATM    2  C   UNL     1      -9.797   8.830  71.208  1.00  0.00    -0.266 C  
ENDROOT
BRANCH   2   3
HETATM    3  N   UNL     1     -11.189   8.354  71.248  1.00  0.00    -0.250 NA 
HETATM    4  H   UNL     1     -11.214   7.357  71.462  1.00  0.00     0.000 HD 
BRANCH   3   5
HETATM    5  C   UNL     1     -12.074   9.091  72.164  1.00  0.00    -0.342 C  
BRANCH   5   6
HETATM    6  C   UNL     1     -13.188   9.876  71.459  1.00  0.00    -0.501 C  
BRANCH   6   7
HETATM    7  C   UNL     1     -12.882  11.349  71.350  1.00  0.00    -0.502 A  
HETATM    8  C   UNL     1     -12.366  14.076  71.082  1.00  0.00    -0.365 A  
HETATM    9  C   UNL     1     -13.086  13.607  72.177  1.00  0.00    -0.396 A  
HETATM   10  O   UNL     1     -12.138  15.415  70.937  1.00  0.00    -0.302 OA 
HETATM   11  C   UNL     1     -11.882  13.201  70.122  1.00  0.00    -0.328 A  
HETATM   12  H   UNL     1     -13.354  15.455  72.986  1.00  0.00     0.000 HD 
HETATM   13  C   UNL     1     -13.345  12.247  72.323  1.00  0.00    -0.375 A  
HETATM   14  O   UNL     1     -13.531  14.527  73.086  1.00  0.00    -0.609 OA 
HETATM   15  C   UNL     1     -12.138  11.834  70.260  1.00  0.00    -0.426 A  
HETATM   16  H   UNL     1     -11.648  15.736  70.189  1.00  0.00     0.000 HD 
ENDBRANCH   6   7
ENDBRANCH   5   6
ENDBRANCH   3   5
ENDBRANCH   2   3
BRANCH   2  17
HETATM   17  C   UNL     1      -9.522   9.545  69.871  1.00  0.00    -0.247 C  
BRANCH  17  18
HETATM   18  C   UNL     1     -10.338   8.983  68.699  1.00  0.00    -0.233 C  
BRANCH  18  19
HETATM   19  C   UNL     1      -9.427   8.543  67.576  1.00  0.00    -0.182 A  
HETATM   20  C   UNL     1      -9.716   7.389  66.835  1.00  0.00    -0.265 A  
HETATM   21  C   UNL     1      -8.308   9.314  67.229  1.00  0.00    -0.125 A  
HETATM   22  C   UNL     1      -7.495   8.944  66.157  1.00  0.00    -0.090 A  
HETATM   23  H   UNL     1      -7.259   6.629  63.865  1.00  0.00     0.000 HD 
HETATM   24  C   UNL     1      -8.902   7.017  65.763  1.00  0.00    -0.088 A  
HETATM   25  C   UNL     1      -7.804   7.799  65.429  1.00  0.00    -0.114 A  
HETATM   26  O   UNL     1      -7.047   7.410  64.362  1.00  0.00    -0.056 OA 
ENDBRANCH  18  19
ENDBRANCH  17  18
ENDBRANCH   2  17
TORSDOF 7
ENDMDL
MODEL      230
REMARK 921   NORMALIZED FREE ENERGY PREDICTED BY IDOCK:   -4.34 KCAL/MOL
REMARK 922        TOTAL FREE ENERGY PREDICTED BY IDOCK:   -7.27 KCAL/MOL
REMARK 923 INTER-LIGAND FREE ENERGY PREDICTED BY IDOCK:   -5.63 KCAL/MOL
REMARK 924 INTRA-LIGAND FREE ENERGY PREDICTED BY IDOCK:   -1.64 KCAL/MOL
REMARK 927      BINDING AFFINITY PREDICTED BY RF-SCORE:    0.00 PKD
ROOT
HETATM    1  C   UNL     1     -12.121  11.525  70.455  1.00  0.00    -0.471 C  
HETATM    2  C   UNL     1     -11.850  11.122  69.001  1.00  0.00    -0.348 C  
ENDROOT
BRANCH   2   3
HETATM    3  N   UNL     1     -10.622  10.322  68.866  1.00  0.00    -0.206 NA 
HETATM    4  H   UNL     1     -10.777   9.378  69.222  1.00  0.00     0.000 HD 
BRANCH   3   5
HETATM    5  C   UNL     1     -10.060  10.265  67.508  1.00  0.00    -0.198 C  
BRANCH   5   6
HETATM    6  C   UNL     1      -8.528  10.181  67.468  1.00  0.00    -0.118 C  
BRANCH   6   7
HETATM    7  C   UNL     1      -7.864  11.444  67.958  1.00  0.00    -0.121 A  
HETATM    8  C   UNL     1      -6.561  13.747  68.838  1.00  0.00    -0.104 A  
HETATM    9  C   UNL     1      -7.431  13.809  67.752  1.00  0.00    -0.163 A  
HETATM   10  O   UNL     1      -5.902  14.870  69.250  1.00  0.00    -0.099 OA 
HETATM   11  C   UNL     1      -6.344  12.552  69.506  1.00  0.00    -0.112 A  
HETATM   12  H   UNL     1      -7.149  15.801  67.445  1.00  0.00     0.000 HD 
HETATM   13  C   UNL     1      -8.089  12.666  67.308  1.00  0.00    -0.178 A  
HETATM   14  O   UNL     1      -7.599  15.022  67.142  1.00  0.00    -0.202 OA 
HETATM   15  C   UNL     1      -7.000  11.399  69.067  1.00  0.00    -0.106 A  
HETATM   16  H   UNL     1      -5.309  14.828  69.991  1.00  0.00     0.000 HD 
ENDBRANCH   6   7
ENDBRANCH   5   6
ENDBRANCH   3   5
ENDBRANCH   2   3
BRANCH   2  17
HETATM   17  C   UNL     1     -11.750  12.392  68.133  1.00  0.00    -0.408 C  
BRANCH  17  18
HETATM   18  C   UNL     1     -11.504  13.670  68.946  1.00  0.00    -0.344 C  
BRANCH  18  19
HETATM   19  C   UNL     1     -11.141  14.821  68.036  1.00  0.00    -0.294 A  
HETATM   20  C   UNL     1     -11.051  14.632  66.650  1.00  0.00    -0.334 A  
HETATM   21  C   UNL     1     -10.939  16.104  68.565  1.00  0.00    -0.338 A  
HETATM   22  C   UNL     1     -10.659  17.183  67.724  1.00  0.00    -0.360 A  
HETATM   23  H   UNL     1     -10.276  17.863  64.553  1.00  0.00     0.000 HD 
HETATM   24  C   UNL     1     -10.768  15.710  65.808  1.00  0.00    -0.350 A  
HETATM   25  C   UNL     1     -10.582  16.976  66.350  1.00  0.00    -0.172 A  
HETATM   26  O   UNL     1     -10.329  18.005  65.491  1.00  0.00    -0.606 OA 
ENDBRANCH  18  19
ENDBRANCH  17  18
ENDBRANCH   2  17
TORSDOF 7
ENDMDL
MODEL      231
REMARK 921   NORMALIZED FREE ENERGY PREDICTED BY IDOCK:   -4.33 KCAL/MOL
REMARK 922        TOTAL FREE ENERGY PREDICTED BY IDOCK:   -7.26 KCAL/MOL
REMARK 923 INTER-LIGAND FREE ENERGY PREDICTED BY IDOCK:   -6.50 KCAL/MOL
REMARK 924 INTRA-LIGAND FREE ENERGY PREDICTED BY IDOCK:   -0.76 KCAL/MOL
REMARK 927      BINDING AFFINITY PREDICTED BY RF-SCORE:    0.00 PKD
ROOT
HETATM    1  C   UNL     1      -9.460   9.259  65.097  1.00  0.00    -0.184 C  
HETATM    2  C   UNL     1      -9.753  10.719  65.461  1.00  0.00    -0.239 C  
ENDROOT
BRANCH   2   3
HETATM    3  N   UNL     1      -9.360  11.648  64.390  1.00  0.00    -0.427 NA 
HETATM    4  H   UNL     1      -8.894  11.141  63.638  1.00  0.00     0.000 HD 
BRANCH   3   5
HETATM    5  C   UNL     1     -10.452  12.470  63.845  1.00  0.00    -0.434 C  
BRANCH   5   6
HETATM    6  C   UNL     1     -11.518  12.858  64.877  1.00  0.00    -0.351 C  
BRANCH   6   7
HETATM    7  C   UNL     1     -11.088  14.008  65.754  1.00  0.00    -0.305 A  
HETATM    8  C   UNL     1     -10.321  16.186  67.316  1.00  0.00    -0.287 A  
HETATM    9  C   UNL     1     -11.358  15.357  67.736  1.00  0.00    -0.306 A  
HETATM   10  O   UNL     1      -9.965  17.269  68.068  1.00  0.00    -0.278 OA 
HETATM   11  C   UNL     1      -9.646  15.934  66.132  1.00  0.00    -0.365 A  
HETATM   12  H   UNL     1     -11.714  16.411  69.440  1.00  0.00     0.000 HD 
HETATM   13  C   UNL     1     -11.746  14.265  66.966  1.00  0.00    -0.427 A  
HETATM   14  O   UNL     1     -11.979  15.666  68.915  1.00  0.00    -0.367 OA 
HETATM   15  C   UNL     1     -10.028  14.840  65.352  1.00  0.00    -0.369 A  
HETATM   16  H   UNL     1      -9.258  17.835  67.782  1.00  0.00     0.000 HD 
ENDBRANCH   6   7
ENDBRANCH   5   6
ENDBRANCH   3   5
ENDBRANCH   2   3
BRANCH   2  17
HETATM   17  C   UNL     1      -9.014  11.075  66.766  1.00  0.00    -0.163 C  
BRANCH  17  18
HETATM   18  C   UNL     1      -9.954  11.449  67.919  1.00  0.00    -0.190 C  
BRANCH  18  19
HETATM   19  C   UNL     1     -10.292  10.233  68.750  1.00  0.00    -0.211 A  
HETATM   20  C   UNL     1      -9.892   8.954  68.338  1.00  0.00    -0.191 A  
HETATM   21  C   UNL     1     -10.966  10.376  69.972  1.00  0.00    -0.370 A  
HETATM   22  C   UNL     1     -11.231   9.263  70.771  1.00  0.00    -0.351 A  
HETATM   23  H   UNL     1     -10.758   6.032  70.816  1.00  0.00     0.000 HD 
HETATM   24  C   UNL     1     -10.158   7.840  69.136  1.00  0.00    -0.196 A  
HETATM   25  C   UNL     1     -10.818   8.003  70.347  1.00  0.00    -0.247 A  
HETATM   26  O   UNL     1     -11.040   6.892  71.106  1.00  0.00    -0.244 OA 
ENDBRANCH  18  19
ENDBRANCH  17  18
ENDBRANCH   2  17
TORSDOF 7
ENDMDL
MODEL      232
REMARK 921   NORMALIZED FREE ENERGY PREDICTED BY IDOCK:   -4.30 KCAL/MOL
REMARK 922        TOTAL FREE ENERGY PREDICTED BY IDOCK:   -7.22 KCAL/MOL
REMARK 923 INTER-LIGAND FREE ENERGY PREDICTED BY IDOCK:   -6.51 KCAL/MOL
REMARK 924 INTRA-LIGAND FREE ENERGY PREDICTED BY IDOCK:   -0.71 KCAL/MOL
REMARK 927      BINDING AFFINITY PREDICTED BY RF-SCORE:    0.00 PKD
ROOT
HETATM    1  C   UNL     1      -8.876  12.323  66.914  1.00  0.00    -0.207 C  
HETATM    2  C   UNL     1      -9.437  11.175  66.067  1.00  0.00    -0.208 C  
ENDROOT
BRANCH   2   3
HETATM    3  N   UNL     1     -10.833  11.413  65.664  1.00  0.00    -0.251 NA 
HETATM    4  H   UNL     1     -11.329  11.920  66.397  1.00  0.00     0.000 HD 
BRANCH   3   5
HETATM    5  C   UNL     1     -11.002  12.095  64.372  1.00  0.00    -0.326 C  
BRANCH   5   6
HETATM    6  C   UNL     1     -11.958  13.295  64.419  1.00  0.00    -0.459 C  
BRANCH   6   7
HETATM    7  C   UNL     1     -11.554  14.321  65.449  1.00  0.00    -0.346 A  
HETATM    8  C   UNL     1     -10.762  16.157  67.392  1.00  0.00    -0.291 A  
HETATM    9  C   UNL     1     -10.306  16.286  66.082  1.00  0.00    -0.341 A  
HETATM   10  O   UNL     1     -10.351  17.040  68.349  1.00  0.00    -0.308 OA 
HETATM   11  C   UNL     1     -11.625  15.131  67.745  1.00  0.00    -0.303 A  
HETATM   12  H   UNL     1      -9.191  17.944  66.473  1.00  0.00     0.000 HD 
HETATM   13  C   UNL     1     -10.699  15.378  65.104  1.00  0.00    -0.460 A  
HETATM   14  O   UNL     1      -9.459  17.324  65.805  1.00  0.00    -0.527 OA 
HETATM   15  C   UNL     1     -12.024  14.213  66.770  1.00  0.00    -0.475 A  
HETATM   16  H   UNL     1     -10.662  16.952  69.242  1.00  0.00     0.000 HD 
ENDBRANCH   6   7
ENDBRANCH   5   6
ENDBRANCH   3   5
ENDBRANCH   2   3
BRANCH   2  17
HETATM   17  C   UNL     1      -9.336   9.859  66.865  1.00  0.00    -0.184 C  
BRANCH  17  18
HETATM   18  C   UNL     1     -10.639   9.476  67.579  1.00  0.00    -0.338 C  
BRANCH  18  19
HETATM   19  C   UNL     1     -10.495   8.142  68.275  1.00  0.00    -0.210 A  
HETATM   20  C   UNL     1     -10.740   8.025  69.649  1.00  0.00    -0.207 A  
HETATM   21  C   UNL     1     -10.162   6.994  67.541  1.00  0.00    -0.257 A  
HETATM   22  C   UNL     1     -10.082   5.749  68.167  1.00  0.00    -0.204 A  
HETATM   23  H   UNL     1     -10.465   4.389  71.112  1.00  0.00     0.000 HD 
HETATM   24  C   UNL     1     -10.659   6.781  70.277  1.00  0.00    -0.251 A  
HETATM   25  C   UNL     1     -10.338   5.654  69.532  1.00  0.00    -0.275 A  
HETATM   26  O   UNL     1     -10.290   4.454  70.180  1.00  0.00    -0.081 OA 
ENDBRANCH  18  19
ENDBRANCH  17  18
ENDBRANCH   2  17
TORSDOF 7
ENDMDL
MODEL      233
REMARK 921   NORMALIZED FREE ENERGY PREDICTED BY IDOCK:   -4.30 KCAL/MOL
REMARK 922        TOTAL FREE ENERGY PREDICTED BY IDOCK:   -7.21 KCAL/MOL
REMARK 923 INTER-LIGAND FREE ENERGY PREDICTED BY IDOCK:   -6.58 KCAL/MOL
REMARK 924 INTRA-LIGAND FREE ENERGY PREDICTED BY IDOCK:   -0.64 KCAL/MOL
REMARK 927      BINDING AFFINITY PREDICTED BY RF-SCORE:    0.00 PKD
ROOT
HETATM    1  C   UNL     1      -9.663  11.962  68.220  1.00  0.00    -0.200 C  
HETATM    2  C   UNL     1     -10.655  11.701  67.081  1.00  0.00    -0.232 C  
ENDROOT
BRANCH   2   3
HETATM    3  N   UNL     1     -11.990  12.251  67.370  1.00  0.00    -0.544 NA 
HETATM    4  H   UNL     1     -12.377  11.814  68.206  1.00  0.00     0.000 HD 
BRANCH   3   5
HETATM    5  C   UNL     1     -12.048  13.716  67.492  1.00  0.00    -0.316 C  
BRANCH   5   6
HETATM    6  C   UNL     1     -11.373  14.468  66.337  1.00  0.00    -0.349 C  
BRANCH   6   7
HETATM    7  C   UNL     1     -10.607  15.681  66.803  1.00  0.00    -0.307 A  
HETATM    8  C   UNL     1      -9.155  17.877  67.724  1.00  0.00    -0.258 A  
HETATM    9  C   UNL     1      -8.867  17.322  66.480  1.00  0.00    -0.261 A  
HETATM   10  O   UNL     1      -8.426  18.935  68.186  1.00  0.00    -0.289 OA 
HETATM   11  C   UNL     1     -10.173  17.362  68.512  1.00  0.00    -0.369 A  
HETATM   12  H   UNL     1      -7.359  18.627  66.077  1.00  0.00     0.000 HD 
HETATM   13  C   UNL     1      -9.588  16.228  66.009  1.00  0.00    -0.371 A  
HETATM   14  O   UNL     1      -7.850  17.882  65.755  1.00  0.00    -0.542 OA 
HETATM   15  C   UNL     1     -10.902  16.265  68.047  1.00  0.00    -0.339 A  
HETATM   16  H   UNL     1      -8.622  19.314  69.035  1.00  0.00     0.000 HD 
ENDBRANCH   6   7
ENDBRANCH   5   6
ENDBRANCH   3   5
ENDBRANCH   2   3
BRANCH   2  17
HETATM   17  C   UNL     1     -10.754  10.183  66.832  1.00  0.00    -0.231 C  
BRANCH  17  18
HETATM   18  C   UNL     1      -9.389   9.497  66.691  1.00  0.00    -0.207 C  
BRANCH  18  19
HETATM   19  C   UNL     1      -9.555   8.004  66.527  1.00  0.00    -0.295 A  
HETATM   20  C   UNL     1      -8.650   7.267  65.750  1.00  0.00    -0.143 A  
HETATM   21  C   UNL     1     -10.588   7.330  67.194  1.00  0.00    -0.416 A  
HETATM   22  C   UNL     1     -10.713   5.944  67.092  1.00  0.00    -0.387 A  
HETATM   23  H   UNL     1      -9.250   3.385  65.685  1.00  0.00     0.000 HD 
HETATM   24  C   UNL     1      -8.776   5.881  65.646  1.00  0.00    -0.149 A  
HETATM   25  C   UNL     1      -9.800   5.230  66.322  1.00  0.00    -0.182 A  
HETATM   26  O   UNL     1      -9.874   3.872  66.211  1.00  0.00    -0.191 OA 
ENDBRANCH  18  19
ENDBRANCH  17  18
ENDBRANCH   2  17
TORSDOF 7
ENDMDL
MODEL      234
REMARK 921   NORMALIZED FREE ENERGY PREDICTED BY IDOCK:   -4.26 KCAL/MOL
REMARK 922        TOTAL FREE ENERGY PREDICTED BY IDOCK:   -7.17 KCAL/MOL
REMARK 923 INTER-LIGAND FREE ENERGY PREDICTED BY IDOCK:   -6.26 KCAL/MOL
REMARK 924 INTRA-LIGAND FREE ENERGY PREDICTED BY IDOCK:   -0.91 KCAL/MOL
REMARK 927      BINDING AFFINITY PREDICTED BY RF-SCORE:    0.00 PKD
ROOT
HETATM    1  C   UNL     1      -9.970  11.312  68.588  1.00  0.00    -0.210 C  
HETATM    2  C   UNL     1     -10.972  10.894  67.506  1.00  0.00    -0.293 C  
ENDROOT
BRANCH   2   3
HETATM    3  N   UNL     1     -10.322  10.186  66.391  1.00  0.00    -0.215 NA 
HETATM    4  H   UNL     1      -9.658  10.803  65.922  1.00  0.00     0.000 HD 
BRANCH   3   5
HETATM    5  C   UNL     1      -9.668   8.919  66.752  1.00  0.00    -0.219 C  
BRANCH   5   6
HETATM    6  C   UNL     1     -10.615   7.877  67.361  1.00  0.00    -0.342 C  
BRANCH   6   7
HETATM    7  C   UNL     1     -10.272   7.545  68.792  1.00  0.00    -0.206 A  
HETATM    8  C   UNL     1      -9.626   7.013  71.452  1.00  0.00    -0.162 A  
HETATM    9  C   UNL     1     -10.925   6.807  70.995  1.00  0.00    -0.255 A  
HETATM   10  O   UNL     1      -9.317   6.778  72.761  1.00  0.00    -0.136 OA 
HETATM   11  C   UNL     1      -8.635   7.465  70.594  1.00  0.00    -0.141 A  
HETATM   12  H   UNL     1     -11.624   6.181  72.801  1.00  0.00     0.000 HD 
HETATM   13  C   UNL     1     -11.257   7.065  69.668  1.00  0.00    -0.222 A  
HETATM   14  O   UNL     1     -11.851   6.357  71.896  1.00  0.00    -0.315 OA 
HETATM   15  C   UNL     1      -8.959   7.728  69.261  1.00  0.00    -0.139 A  
HETATM   16  H   UNL     1      -8.431   6.919  73.074  1.00  0.00     0.000 HD 
ENDBRANCH   6   7
ENDBRANCH   5   6
ENDBRANCH   3   5
ENDBRANCH   2   3
BRANCH   2  17
HETATM   17  C   UNL     1     -11.703  12.145  66.981  1.00  0.00    -0.373 C  
BRANCH  17  18
HETATM   18  C   UNL     1     -11.779  13.284  68.006  1.00  0.00    -0.394 C  
BRANCH  18  19
HETATM   19  C   UNL     1     -11.311  14.585  67.396  1.00  0.00    -0.370 A  
HETATM   20  C   UNL     1     -11.042  15.696  68.207  1.00  0.00    -0.336 A  
HETATM   21  C   UNL     1     -11.090  14.679  66.015  1.00  0.00    -0.332 A  
HETATM   22  C   UNL     1     -10.603  15.861  65.452  1.00  0.00    -0.439 A  
HETATM   23  H   UNL     1      -9.658  18.860  66.334  1.00  0.00     0.000 HD 
HETATM   24  C   UNL     1     -10.557  16.879  67.645  1.00  0.00    -0.325 A  
HETATM   25  C   UNL     1     -10.336  16.950  66.276  1.00  0.00    -0.308 A  
HETATM   26  O   UNL     1      -9.841  18.116  65.771  1.00  0.00    -0.527 OA 
ENDBRANCH  18  19
ENDBRANCH  17  18
ENDBRANCH   2  17
TORSDOF 7
ENDMDL
MODEL      235
REMARK 921   NORMALIZED FREE ENERGY PREDICTED BY IDOCK:   -4.26 KCAL/MOL
REMARK 922        TOTAL FREE ENERGY PREDICTED BY IDOCK:   -7.17 KCAL/MOL
REMARK 923 INTER-LIGAND FREE ENERGY PREDICTED BY IDOCK:   -6.13 KCAL/MOL
REMARK 924 INTRA-LIGAND FREE ENERGY PREDICTED BY IDOCK:   -1.04 KCAL/MOL
REMARK 927      BINDING AFFINITY PREDICTED BY RF-SCORE:    0.00 PKD
ROOT
HETATM    1  C   UNL     1      -8.243  13.341  67.518  1.00  0.00    -0.184 C  
HETATM    2  C   UNL     1      -9.674  13.316  66.970  1.00  0.00    -0.238 C  
ENDROOT
BRANCH   2   3
HETATM    3  N   UNL     1     -10.515  14.369  67.563  1.00  0.00    -0.252 NA 
HETATM    4  H   UNL     1      -9.949  14.980  68.152  1.00  0.00     0.000 HD 
BRANCH   3   5
HETATM    5  C   UNL     1     -11.286  15.169  66.599  1.00  0.00    -0.234 C  
BRANCH   5   6
HETATM    6  C   UNL     1     -10.436  16.137  65.766  1.00  0.00    -0.384 C  
BRANCH   6   7
HETATM    7  C   UNL     1      -9.606  17.064  66.620  1.00  0.00    -0.279 A  
HETATM    8  C   UNL     1      -8.048  18.816  68.128  1.00  0.00    -0.299 A  
HETATM    9  C   UNL     1      -9.436  18.861  68.221  1.00  0.00    -0.348 A  
HETATM   10  O   UNL     1      -7.286  19.694  68.846  1.00  0.00    -0.348 OA 
HETATM   11  C   UNL     1      -7.421  17.895  67.304  1.00  0.00    -0.213 A  
HETATM   12  H   UNL     1      -9.449  20.390  69.564  1.00  0.00     0.000 HD 
HETATM   13  C   UNL     1     -10.223  17.987  67.477  1.00  0.00    -0.376 A  
HETATM   14  O   UNL     1      -9.987  19.794  69.056  1.00  0.00    -0.434 OA 
HETATM   15  C   UNL     1      -8.202  17.015  66.551  1.00  0.00    -0.314 A  
HETATM   16  H   UNL     1      -6.339  19.665  68.782  1.00  0.00     0.000 HD 
ENDBRANCH   6   7
ENDBRANCH   5   6
ENDBRANCH   3   5
ENDBRANCH   2   3
BRANCH   2  17
HETATM   17  C   UNL     1     -10.297  11.931  67.238  1.00  0.00    -0.228 C  
BRANCH  17  18
HETATM   18  C   UNL     1     -11.026  11.344  66.022  1.00  0.00    -0.286 C  
BRANCH  18  19
HETATM   19  C   UNL     1     -10.040  10.750  65.043  1.00  0.00    -0.377 A  
HETATM   20  C   UNL     1      -8.939  10.011  65.499  1.00  0.00    -0.206 A  
HETATM   21  C   UNL     1     -10.244  10.888  63.662  1.00  0.00    -0.395 A  
HETATM   22  C   UNL     1      -9.367  10.294  62.752  1.00  0.00    -0.340 A  
HETATM   23  H   UNL     1      -6.677   8.444  62.695  1.00  0.00     0.000 HD 
HETATM   24  C   UNL     1      -8.061   9.419  64.589  1.00  0.00    -0.133 A  
HETATM   25  C   UNL     1      -8.286   9.559  63.226  1.00  0.00    -0.162 A  
HETATM   26  O   UNL     1      -7.416   8.946  62.371  1.00  0.00    -0.103 OA 
ENDBRANCH  18  19
ENDBRANCH  17  18
ENDBRANCH   2  17
TORSDOF 7
ENDMDL
MODEL      236
REMARK 921   NORMALIZED FREE ENERGY PREDICTED BY IDOCK:   -4.25 KCAL/MOL
REMARK 922        TOTAL FREE ENERGY PREDICTED BY IDOCK:   -7.16 KCAL/MOL
REMARK 923 INTER-LIGAND FREE ENERGY PREDICTED BY IDOCK:   -6.55 KCAL/MOL
REMARK 924 INTRA-LIGAND FREE ENERGY PREDICTED BY IDOCK:   -0.60 KCAL/MOL
REMARK 927      BINDING AFFINITY PREDICTED BY RF-SCORE:    0.00 PKD
ROOT
HETATM    1  C   UNL     1     -12.595  11.438  70.945  1.00  0.00    -0.453 C  
HETATM    2  C   UNL     1     -11.628  10.774  69.959  1.00  0.00    -0.334 C  
ENDROOT
BRANCH   2   3
HETATM    3  N   UNL     1     -10.553  10.039  70.644  1.00  0.00    -0.376 NA 
HETATM    4  H   UNL     1     -10.740   9.996  71.646  1.00  0.00     0.000 HD 
BRANCH   3   5
HETATM    5  C   UNL     1     -10.287   8.690  70.120  1.00  0.00    -0.207 C  
BRANCH   5   6
HETATM    6  C   UNL     1     -11.392   7.671  70.426  1.00  0.00    -0.235 C  
BRANCH   6   7
HETATM    7  C   UNL     1     -10.999   6.693  71.505  1.00  0.00    -0.287 A  
HETATM    8  C   UNL     1     -10.352   4.888  73.529  1.00  0.00    -0.202 A  
HETATM    9  C   UNL     1     -10.361   4.473  72.200  1.00  0.00    -0.162 A  
HETATM   10  O   UNL     1     -10.062   3.996  74.522  1.00  0.00    -0.153 OA 
HETATM   11  C   UNL     1     -10.645   6.200  73.865  1.00  0.00    -0.230 A  
HETATM   12  H   UNL     1      -9.843   2.553  72.638  1.00  0.00     0.000 HD 
HETATM   13  C   UNL     1     -10.678   5.366  71.182  1.00  0.00    -0.239 A  
HETATM   14  O   UNL     1     -10.059   3.163  71.943  1.00  0.00    -0.160 OA 
HETATM   15  C   UNL     1     -10.966   7.105  72.849  1.00  0.00    -0.359 A  
HETATM   16  H   UNL     1     -10.056   4.279  75.429  1.00  0.00     0.000 HD 
ENDBRANCH   6   7
ENDBRANCH   5   6
ENDBRANCH   3   5
ENDBRANCH   2   3
BRANCH   2  17
HETATM   17  C   UNL     1     -11.024  11.853  69.037  1.00  0.00    -0.267 C  
BRANCH  17  18
HETATM   18  C   UNL     1     -12.008  12.376  67.983  1.00  0.00    -0.264 C  
BRANCH  18  19
HETATM   19  C   UNL     1     -11.488  12.113  66.588  1.00  0.00    -0.426 A  
HETATM   20  C   UNL     1     -11.944  12.873  65.503  1.00  0.00    -0.482 A  
HETATM   21  C   UNL     1     -10.504  11.137  66.373  1.00  0.00    -0.311 A  
HETATM   22  C   UNL     1      -9.978  10.928  65.097  1.00  0.00    -0.341 A  
HETATM   23  H   UNL     1     -10.253  12.068  62.049  1.00  0.00     0.000 HD 
HETATM   24  C   UNL     1     -11.420  12.663  64.225  1.00  0.00    -0.420 A  
HETATM   25  C   UNL     1     -10.439  11.699  64.034  1.00  0.00    -0.367 A  
HETATM   26  O   UNL     1      -9.939  11.541  62.774  1.00  0.00    -0.275 OA 
ENDBRANCH  18  19
ENDBRANCH  17  18
ENDBRANCH   2  17
TORSDOF 7
ENDMDL
MODEL      237
REMARK 921   NORMALIZED FREE ENERGY PREDICTED BY IDOCK:   -4.25 KCAL/MOL
REMARK 922        TOTAL FREE ENERGY PREDICTED BY IDOCK:   -7.16 KCAL/MOL
REMARK 923 INTER-LIGAND FREE ENERGY PREDICTED BY IDOCK:   -5.61 KCAL/MOL
REMARK 924 INTRA-LIGAND FREE ENERGY PREDICTED BY IDOCK:   -1.54 KCAL/MOL
REMARK 927      BINDING AFFINITY PREDICTED BY RF-SCORE:    0.00 PKD
ROOT
HETATM    1  C   UNL     1      -9.233   8.692  66.037  1.00  0.00    -0.276 C  
HETATM    2  C   UNL     1     -10.211   8.410  67.183  1.00  0.00    -0.292 C  
ENDROOT
BRANCH   2   3
HETATM    3  N   UNL     1     -11.124   7.298  66.872  1.00  0.00    -0.574 NA 
HETATM    4  H   UNL     1     -11.096   7.088  65.875  1.00  0.00     0.000 HD 
BRANCH   3   5
HETATM    5  C   UNL     1     -10.904   6.072  67.654  1.00  0.00    -0.295 C  
BRANCH   5   6
HETATM    6  C   UNL     1     -11.006   6.271  69.172  1.00  0.00    -0.442 C  
BRANCH   6   7
HETATM    7  C   UNL     1     -10.237   5.231  69.948  1.00  0.00    -0.364 A  
HETATM    8  C   UNL     1      -8.888   3.282  71.417  1.00  0.00    -0.085 A  
HETATM    9  C   UNL     1      -8.980   3.173  70.033  1.00  0.00    -0.103 A  
HETATM   10  O   UNL     1      -8.251   2.313  72.139  1.00  0.00    -0.053 OA 
HETATM   11  C   UNL     1      -9.446   4.363  72.083  1.00  0.00    -0.186 A  
HETATM   12  H   UNL     1      -7.949   1.420  69.950  1.00  0.00     0.000 HD 
HETATM   13  C   UNL     1      -9.647   4.142  69.289  1.00  0.00    -0.256 A  
HETATM   14  O   UNL     1      -8.404   2.081  69.443  1.00  0.00    -0.044 OA 
HETATM   15  C   UNL     1     -10.118   5.341  71.345  1.00  0.00    -0.266 A  
HETATM   16  H   UNL     1      -8.188   2.387  73.084  1.00  0.00     0.000 HD 
ENDBRANCH   6   7
ENDBRANCH   5   6
ENDBRANCH   3   5
ENDBRANCH   2   3
BRANCH   2  17
HETATM   17  C   UNL     1     -11.019   9.687  67.487  1.00  0.00    -0.166 C  
BRANCH  17  18
HETATM   18  C   UNL     1     -10.340  10.612  68.504  1.00  0.00    -0.202 C  
BRANCH  18  19
HETATM   19  C   UNL     1     -10.002   9.859  69.770  1.00  0.00    -0.275 A  
HETATM   20  C   UNL     1      -8.696   9.408  70.004  1.00  0.00    -0.227 A  
HETATM   21  C   UNL     1     -10.983   9.647  70.750  1.00  0.00    -0.397 A  
HETATM   22  C   UNL     1     -10.664   9.001  71.946  1.00  0.00    -0.401 A  
HETATM   23  H   UNL     1      -8.109   7.655  73.471  1.00  0.00     0.000 HD 
HETATM   24  C   UNL     1      -8.376   8.760  71.199  1.00  0.00    -0.219 A  
HETATM   25  C   UNL     1      -9.359   8.568  72.162  1.00  0.00    -0.283 A  
HETATM   26  O   UNL     1      -9.000   7.950  73.324  1.00  0.00    -0.207 OA 
ENDBRANCH  18  19
ENDBRANCH  17  18
ENDBRANCH   2  17
TORSDOF 7
ENDMDL
MODEL      238
REMARK 921   NORMALIZED FREE ENERGY PREDICTED BY IDOCK:   -4.23 KCAL/MOL
REMARK 922        TOTAL FREE ENERGY PREDICTED BY IDOCK:   -7.12 KCAL/MOL
REMARK 923 INTER-LIGAND FREE ENERGY PREDICTED BY IDOCK:   -6.73 KCAL/MOL
REMARK 924 INTRA-LIGAND FREE ENERGY PREDICTED BY IDOCK:   -0.39 KCAL/MOL
REMARK 927      BINDING AFFINITY PREDICTED BY RF-SCORE:    0.00 PKD
ROOT
HETATM    1  C   UNL     1     -12.367  12.705  65.332  1.00  0.00    -0.499 C  
HETATM    2  C   UNL     1     -12.025  12.627  66.824  1.00  0.00    -0.292 C  
ENDROOT
BRANCH   2   3
HETATM    3  N   UNL     1     -12.214  13.917  67.506  1.00  0.00    -0.494 NA 
HETATM    4  H   UNL     1     -12.677  13.776  68.404  1.00  0.00     0.000 HD 
BRANCH   3   5
HETATM    5  C   UNL     1     -10.991  14.714  67.688  1.00  0.00    -0.293 C  
BRANCH   5   6
HETATM    6  C   UNL     1     -10.656  15.625  66.499  1.00  0.00    -0.307 C  
BRANCH   6   7
HETATM    7  C   UNL     1      -9.879  16.852  66.908  1.00  0.00    -0.278 A  
HETATM    8  C   UNL     1      -8.455  19.151  67.587  1.00  0.00    -0.291 A  
HETATM    9  C   UNL     1      -9.674  18.878  68.202  1.00  0.00    -0.347 A  
HETATM   10  O   UNL     1      -7.772  20.291  67.899  1.00  0.00    -0.287 OA 
HETATM   11  C   UNL     1      -7.924  18.282  66.647  1.00  0.00    -0.273 A  
HETATM   12  H   UNL     1      -9.647  20.562  69.345  1.00  0.00     0.000 HD 
HETATM   13  C   UNL     1     -10.390  17.731  67.874  1.00  0.00    -0.388 A  
HETATM   14  O   UNL     1     -10.136  19.779  69.121  1.00  0.00    -0.438 OA 
HETATM   15  C   UNL     1      -8.636  17.128  66.310  1.00  0.00    -0.276 A  
HETATM   16  H   UNL     1      -6.940  20.478  67.480  1.00  0.00     0.000 HD 
ENDBRANCH   6   7
ENDBRANCH   5   6
ENDBRANCH   3   5
ENDBRANCH   2   3
BRANCH   2  17
HETATM   17  C   UNL     1     -10.566  12.155  66.986  1.00  0.00    -0.256 C  
BRANCH  17  18
HETATM   18  C   UNL     1     -10.276  11.520  68.351  1.00  0.00    -0.211 C  
BRANCH  18  19
HETATM   19  C   UNL     1     -10.448  10.019  68.290  1.00  0.00    -0.246 A  
HETATM   20  C   UNL     1     -10.459   9.353  67.057  1.00  0.00    -0.302 A  
HETATM   21  C   UNL     1     -10.548   9.270  69.471  1.00  0.00    -0.236 A  
HETATM   22  C   UNL     1     -10.651   7.878  69.423  1.00  0.00    -0.209 A  
HETATM   23  H   UNL     1     -10.730   5.438  67.254  1.00  0.00     0.000 HD 
HETATM   24  C   UNL     1     -10.563   7.961  67.008  1.00  0.00    -0.381 A  
HETATM   25  C   UNL     1     -10.651   7.236  68.189  1.00  0.00    -0.177 A  
HETATM   26  O   UNL     1     -10.730   5.877  68.097  1.00  0.00    -0.248 OA 
ENDBRANCH  18  19
ENDBRANCH  17  18
ENDBRANCH   2  17
TORSDOF 7
ENDMDL
MODEL      239
REMARK 921   NORMALIZED FREE ENERGY PREDICTED BY IDOCK:   -4.19 KCAL/MOL
REMARK 922        TOTAL FREE ENERGY PREDICTED BY IDOCK:   -7.07 KCAL/MOL
REMARK 923 INTER-LIGAND FREE ENERGY PREDICTED BY IDOCK:   -5.60 KCAL/MOL
REMARK 924 INTRA-LIGAND FREE ENERGY PREDICTED BY IDOCK:   -1.47 KCAL/MOL
REMARK 927      BINDING AFFINITY PREDICTED BY RF-SCORE:    0.00 PKD
ROOT
HETATM    1  C   UNL     1      -9.833   9.369  65.796  1.00  0.00    -0.345 C  
HETATM    2  C   UNL     1     -10.252  10.694  66.444  1.00  0.00    -0.234 C  
ENDROOT
BRANCH   2   3
HETATM    3  N   UNL     1     -10.074  11.838  65.536  1.00  0.00    -0.240 NA 
HETATM    4  H   UNL     1      -9.307  11.656  64.888  1.00  0.00     0.000 HD 
BRANCH   3   5
HETATM    5  C   UNL     1     -11.278  12.240  64.793  1.00  0.00    -0.318 C  
BRANCH   5   6
HETATM    6  C   UNL     1     -12.344  12.929  65.656  1.00  0.00    -0.482 C  
BRANCH   6   7
HETATM    7  C   UNL     1     -11.814  14.147  66.371  1.00  0.00    -0.440 A  
HETATM    8  C   UNL     1     -10.786  16.347  67.740  1.00  0.00    -0.328 A  
HETATM    9  C   UNL     1     -10.487  16.162  66.393  1.00  0.00    -0.301 A  
HETATM   10  O   UNL     1     -10.259  17.410  68.417  1.00  0.00    -0.317 OA 
HETATM   11  C   UNL     1     -11.608  15.458  68.414  1.00  0.00    -0.368 A  
HETATM   12  H   UNL     1      -9.322  17.826  66.266  1.00  0.00     0.000 HD 
HETATM   13  C   UNL     1     -10.998  15.069  65.700  1.00  0.00    -0.357 A  
HETATM   14  O   UNL     1      -9.671  17.080  65.792  1.00  0.00    -0.522 OA 
HETATM   15  C   UNL     1     -12.126  14.357  67.726  1.00  0.00    -0.304 A  
HETATM   16  H   UNL     1     -10.463  17.537  69.336  1.00  0.00     0.000 HD 
ENDBRANCH   6   7
ENDBRANCH   5   6
ENDBRANCH   3   5
ENDBRANCH   2   3
BRANCH   2  17
HETATM   17  C   UNL     1      -9.433  10.910  67.732  1.00  0.00    -0.165 C  
BRANCH  17  18
HETATM   18  C   UNL     1      -7.927  11.058  67.480  1.00  0.00    -0.116 C  
BRANCH  18  19
HETATM   19  C   UNL     1      -7.459  12.449  67.841  1.00  0.00    -0.120 A  
HETATM   20  C   UNL     1      -6.197  12.904  67.434  1.00  0.00    -0.109 A  
HETATM   21  C   UNL     1      -8.304  13.320  68.544  1.00  0.00    -0.075 A  
HETATM   22  C   UNL     1      -7.899  14.625  68.832  1.00  0.00    -0.148 A  
HETATM   23  H   UNL     1      -5.363  16.628  68.367  1.00  0.00     0.000 HD 
HETATM   24  C   UNL     1      -5.791  14.209  67.722  1.00  0.00    -0.090 A  
HETATM   25  C   UNL     1      -6.646  15.059  68.412  1.00  0.00    -0.102 A  
HETATM   26  O   UNL     1      -6.218  16.332  68.654  1.00  0.00    -0.117 OA 
ENDBRANCH  18  19
ENDBRANCH  17  18
ENDBRANCH   2  17
TORSDOF 7
ENDMDL
MODEL      240
REMARK 921   NORMALIZED FREE ENERGY PREDICTED BY IDOCK:   -4.17 KCAL/MOL
REMARK 922        TOTAL FREE ENERGY PREDICTED BY IDOCK:   -7.04 KCAL/MOL
REMARK 923 INTER-LIGAND FREE ENERGY PREDICTED BY IDOCK:   -6.41 KCAL/MOL
REMARK 924 INTRA-LIGAND FREE ENERGY PREDICTED BY IDOCK:   -0.63 KCAL/MOL
REMARK 927      BINDING AFFINITY PREDICTED BY RF-SCORE:    0.00 PKD
ROOT
HETATM    1  C   UNL     1     -12.110  13.110  70.102  1.00  0.00    -0.392 C  
HETATM    2  C   UNL     1     -11.971  11.667  69.603  1.00  0.00    -0.324 C  
ENDROOT
BRANCH   2   3
HETATM    3  N   UNL     1     -11.197  10.829  70.532  1.00  0.00    -0.446 NA 
HETATM    4  H   UNL     1     -11.802  10.473  71.272  1.00  0.00     0.000 HD 
BRANCH   3   5
HETATM    5  C   UNL     1     -10.456   9.723  69.907  1.00  0.00    -0.261 C  
BRANCH   5   6
HETATM    6  C   UNL     1     -11.210   8.387  69.907  1.00  0.00    -0.029 C  
BRANCH   6   7
HETATM    7  C   UNL     1     -10.311   7.212  70.207  1.00  0.00    -0.214 A  
HETATM    8  C   UNL     1      -8.671   5.009  70.686  1.00  0.00    -0.122 A  
HETATM    9  C   UNL     1      -8.110   6.271  70.506  1.00  0.00    -0.113 A  
HETATM   10  O   UNL     1      -7.865   3.926  70.892  1.00  0.00    -0.050 OA 
HETATM   11  C   UNL     1     -10.045   4.831  70.648  1.00  0.00    -0.288 A  
HETATM   12  H   UNL     1      -6.194   5.617  70.718  1.00  0.00     0.000 HD 
HETATM   13  C   UNL     1      -8.920   7.378  70.271  1.00  0.00    -0.147 A  
HETATM   14  O   UNL     1      -6.746   6.372  70.558  1.00  0.00    -0.050 OA 
HETATM   15  C   UNL     1     -10.866   5.937  70.412  1.00  0.00    -0.378 A  
HETATM   16  H   UNL     1      -8.247   3.065  71.015  1.00  0.00     0.000 HD 
ENDBRANCH   6   7
ENDBRANCH   5   6
ENDBRANCH   3   5
ENDBRANCH   2   3
BRANCH   2  17
HETATM   17  C   UNL     1     -11.300  11.673  68.214  1.00  0.00    -0.348 C  
BRANCH  17  18
HETATM   18  C   UNL     1     -10.215  12.746  68.065  1.00  0.00    -0.228 C  
BRANCH  18  19
HETATM   19  C   UNL     1     -10.522  13.659  66.900  1.00  0.00    -0.272 A  
HETATM   20  C   UNL     1     -11.646  13.432  66.094  1.00  0.00    -0.378 A  
HETATM   21  C   UNL     1      -9.713  14.775  66.643  1.00  0.00    -0.281 A  
HETATM   22  C   UNL     1     -10.023  15.653  65.603  1.00  0.00    -0.388 A  
HETATM   23  H   UNL     1     -12.267  16.094  63.272  1.00  0.00     0.000 HD 
HETATM   24  C   UNL     1     -11.956  14.309  65.053  1.00  0.00    -0.412 A  
HETATM   25  C   UNL     1     -11.148  15.414  64.820  1.00  0.00    -0.403 A  
HETATM   26  O   UNL     1     -11.499  16.257  63.806  1.00  0.00    -0.888 OA 
ENDBRANCH  18  19
ENDBRANCH  17  18
ENDBRANCH   2  17
TORSDOF 7
ENDMDL
MODEL      241
REMARK 921   NORMALIZED FREE ENERGY PREDICTED BY IDOCK:   -4.16 KCAL/MOL
REMARK 922        TOTAL FREE ENERGY PREDICTED BY IDOCK:   -7.02 KCAL/MOL
REMARK 923 INTER-LIGAND FREE ENERGY PREDICTED BY IDOCK:   -6.10 KCAL/MOL
REMARK 924 INTRA-LIGAND FREE ENERGY PREDICTED BY IDOCK:   -0.92 KCAL/MOL
REMARK 927      BINDING AFFINITY PREDICTED BY RF-SCORE:    0.00 PKD
ROOT
HETATM    1  C   UNL     1     -13.033   8.094  71.736  1.00  0.00    -0.364 C  
HETATM    2  C   UNL     1     -11.818   8.697  72.451  1.00  0.00    -0.331 C  
ENDROOT
BRANCH   2   3
HETATM    3  N   UNL     1     -10.993   9.516  71.550  1.00  0.00    -0.357 NA 
HETATM    4  H   UNL     1     -10.004   9.376  71.754  1.00  0.00     0.000 HD 
BRANCH   3   5
HETATM    5  C   UNL     1     -11.246   9.314  70.115  1.00  0.00    -0.208 C  
BRANCH   5   6
HETATM    6  C   UNL     1     -10.205   9.970  69.198  1.00  0.00    -0.224 C  
BRANCH   6   7
HETATM    7  C   UNL     1     -10.764  11.142  68.429  1.00  0.00    -0.234 A  
HETATM    8  C   UNL     1     -11.864  13.262  66.991  1.00  0.00    -0.390 A  
HETATM    9  C   UNL     1     -11.727  13.354  68.374  1.00  0.00    -0.355 A  
HETATM   10  O   UNL     1     -12.428  14.290  66.291  1.00  0.00    -0.445 OA 
HETATM   11  C   UNL     1     -11.443  12.131  66.309  1.00  0.00    -0.433 A  
HETATM   12  H   UNL     1     -12.539  15.217  68.484  1.00  0.00     0.000 HD 
HETATM   13  C   UNL     1     -11.175  12.303  69.101  1.00  0.00    -0.300 A  
HETATM   14  O   UNL     1     -12.163  14.500  68.980  1.00  0.00    -0.275 OA 
HETATM   15  C   UNL     1     -10.888  11.071  67.031  1.00  0.00    -0.334 A  
HETATM   16  H   UNL     1     -12.523  14.228  65.348  1.00  0.00     0.000 HD 
ENDBRANCH   6   7
ENDBRANCH   5   6
ENDBRANCH   3   5
ENDBRANCH   2   3
BRANCH   2  17
HETATM   17  C   UNL     1     -10.970   7.560  73.056  1.00  0.00    -0.443 C  
BRANCH  17  18
HETATM   18  C   UNL     1      -9.511   7.568  72.581  1.00  0.00    -0.212 C  
BRANCH  18  19
HETATM   19  C   UNL     1      -9.327   6.638  71.403  1.00  0.00    -0.151 A  
HETATM   20  C   UNL     1     -10.199   5.559  71.205  1.00  0.00    -0.285 A  
HETATM   21  C   UNL     1      -8.311   6.876  70.466  1.00  0.00    -0.129 A  
HETATM   22  C   UNL     1      -8.171   6.054  69.346  1.00  0.00    -0.115 A  
HETATM   23  H   UNL     1      -9.565   3.452  67.950  1.00  0.00     0.000 HD 
HETATM   24  C   UNL     1     -10.058   4.735  70.086  1.00  0.00    -0.310 A  
HETATM   25  C   UNL     1      -9.052   4.993  69.164  1.00  0.00    -0.100 A  
HETATM   26  O   UNL     1      -8.963   4.177  68.074  1.00  0.00    -0.107 OA 
ENDBRANCH  18  19
ENDBRANCH  17  18
ENDBRANCH   2  17
TORSDOF 7
ENDMDL
MODEL      242
REMARK 921   NORMALIZED FREE ENERGY PREDICTED BY IDOCK:   -4.15 KCAL/MOL
REMARK 922        TOTAL FREE ENERGY PREDICTED BY IDOCK:   -7.01 KCAL/MOL
REMARK 923 INTER-LIGAND FREE ENERGY PREDICTED BY IDOCK:   -5.90 KCAL/MOL
REMARK 924 INTRA-LIGAND FREE ENERGY PREDICTED BY IDOCK:   -1.11 KCAL/MOL
REMARK 927      BINDING AFFINITY PREDICTED BY RF-SCORE:    0.00 PKD
ROOT
HETATM    1  C   UNL     1      -8.778   7.694  71.402  1.00  0.00    -0.132 C  
HETATM    2  C   UNL     1      -9.794   8.812  71.147  1.00  0.00    -0.244 C  
ENDROOT
BRANCH   2   3
HETATM    3  N   UNL     1     -11.177   8.311  71.118  1.00  0.00    -0.252 NA 
HETATM    4  H   UNL     1     -11.194   7.315  71.338  1.00  0.00     0.000 HD 
BRANCH   3   5
HETATM    5  C   UNL     1     -12.123   9.036  71.981  1.00  0.00    -0.370 C  
BRANCH   5   6
HETATM    6  C   UNL     1     -13.218   9.788  71.214  1.00  0.00    -0.452 C  
BRANCH   6   7
HETATM    7  C   UNL     1     -12.959  11.273  71.137  1.00  0.00    -0.369 A  
HETATM    8  C   UNL     1     -12.526  14.019  70.925  1.00  0.00    -0.369 A  
HETATM    9  C   UNL     1     -13.300  13.513  71.966  1.00  0.00    -0.475 A  
HETATM   10  O   UNL     1     -12.338  15.367  70.806  1.00  0.00    -0.334 OA 
HETATM   11  C   UNL     1     -11.947  13.171  69.994  1.00  0.00    -0.391 A  
HETATM   12  H   UNL     1     -13.690  15.342  72.769  1.00  0.00     0.000 HD 
HETATM   13  C   UNL     1     -13.519  12.144  72.083  1.00  0.00    -0.383 A  
HETATM   14  O   UNL     1     -13.840  14.408  72.849  1.00  0.00    -0.589 OA 
HETATM   15  C   UNL     1     -12.161  11.795  70.104  1.00  0.00    -0.398 A  
HETATM   16  H   UNL     1     -11.810  15.712  70.096  1.00  0.00     0.000 HD 
ENDBRANCH   6   7
ENDBRANCH   5   6
ENDBRANCH   3   5
ENDBRANCH   2   3
BRANCH   2  17
HETATM   17  C   UNL     1      -9.458   9.509  69.813  1.00  0.00    -0.228 C  
BRANCH  17  18
HETATM   18  C   UNL     1      -7.958   9.522  69.492  1.00  0.00    -0.110 C  
BRANCH  18  19
HETATM   19  C   UNL     1      -7.476  10.933  69.245  1.00  0.00    -0.124 A  
HETATM   20  C   UNL     1      -6.226  11.353  69.721  1.00  0.00    -0.135 A  
HETATM   21  C   UNL     1      -8.255  11.825  68.492  1.00  0.00    -0.134 A  
HETATM   22  C   UNL     1      -7.791  13.112  68.213  1.00  0.00    -0.143 A  
HETATM   23  H   UNL     1      -5.191  15.016  68.746  1.00  0.00     0.000 HD 
HETATM   24  C   UNL     1      -5.762  12.641  69.444  1.00  0.00    -0.087 A  
HETATM   25  C   UNL     1      -6.543  13.506  68.688  1.00  0.00    -0.098 A  
HETATM   26  O   UNL     1      -6.043  14.747  68.422  1.00  0.00    -0.086 OA 
ENDBRANCH  18  19
ENDBRANCH  17  18
ENDBRANCH   2  17
TORSDOF 7
ENDMDL
MODEL      243
REMARK 921   NORMALIZED FREE ENERGY PREDICTED BY IDOCK:   -4.13 KCAL/MOL
REMARK 922        TOTAL FREE ENERGY PREDICTED BY IDOCK:   -6.98 KCAL/MOL
REMARK 923 INTER-LIGAND FREE ENERGY PREDICTED BY IDOCK:   -6.52 KCAL/MOL
REMARK 924 INTRA-LIGAND FREE ENERGY PREDICTED BY IDOCK:   -0.46 KCAL/MOL
REMARK 927      BINDING AFFINITY PREDICTED BY RF-SCORE:    0.00 PKD
ROOT
HETATM    1  C   UNL     1      -8.747  10.285  64.561  1.00  0.00    -0.205 C  
HETATM    2  C   UNL     1      -9.961  10.406  65.489  1.00  0.00    -0.282 C  
ENDROOT
BRANCH   2   3
HETATM    3  N   UNL     1     -10.384  11.804  65.673  1.00  0.00    -0.243 NA 
HETATM    4  H   UNL     1     -10.815  12.156  64.818  1.00  0.00     0.000 HD 
BRANCH   3   5
HETATM    5  C   UNL     1     -11.270  12.042  66.822  1.00  0.00    -0.322 C  
BRANCH   5   6
HETATM    6  C   UNL     1     -10.595  12.769  67.992  1.00  0.00    -0.238 C  
BRANCH   6   7
HETATM    7  C   UNL     1     -10.679  14.271  67.870  1.00  0.00    -0.244 A  
HETATM    8  C   UNL     1     -10.767  17.052  67.694  1.00  0.00    -0.295 A  
HETATM    9  C   UNL     1     -10.454  16.291  66.570  1.00  0.00    -0.290 A  
HETATM   10  O   UNL     1     -10.782  18.415  67.613  1.00  0.00    -0.423 OA 
HETATM   11  C   UNL     1     -11.055  16.444  68.905  1.00  0.00    -0.328 A  
HETATM   12  H   UNL     1     -10.211  17.907  65.356  1.00  0.00     0.000 HD 
HETATM   13  C   UNL     1     -10.412  14.902  66.646  1.00  0.00    -0.292 A  
HETATM   14  O   UNL     1     -10.182  16.959  65.407  1.00  0.00    -0.605 OA 
HETATM   15  C   UNL     1     -11.015  15.050  68.992  1.00  0.00    -0.253 A  
HETATM   16  H   UNL     1     -10.995  18.935  68.380  1.00  0.00     0.000 HD 
ENDBRANCH   6   7
ENDBRANCH   5   6
ENDBRANCH   3   5
ENDBRANCH   2   3
BRANCH   2  17
HETATM   17  C   UNL     1      -9.621   9.774  66.854  1.00  0.00    -0.228 C  
BRANCH  17  18
HETATM   18  C   UNL     1     -10.431   8.508  67.161  1.00  0.00    -0.370 C  
BRANCH  18  19
HETATM   19  C   UNL     1     -10.646   8.358  68.649  1.00  0.00    -0.149 A  
HETATM   20  C   UNL     1     -10.762   7.087  69.228  1.00  0.00    -0.245 A  
HETATM   21  C   UNL     1     -10.680   9.490  69.476  1.00  0.00    -0.246 A  
HETATM   22  C   UNL     1     -10.821   9.355  70.859  1.00  0.00    -0.392 A  
HETATM   23  H   UNL     1     -11.119   7.037  73.140  1.00  0.00     0.000 HD 
HETATM   24  C   UNL     1     -10.905   6.951  70.610  1.00  0.00    -0.280 A  
HETATM   25  C   UNL     1     -10.927   8.084  71.414  1.00  0.00    -0.234 A  
HETATM   26  O   UNL     1     -11.047   7.906  72.761  1.00  0.00    -0.357 OA 
ENDBRANCH  18  19
ENDBRANCH  17  18
ENDBRANCH   2  17
TORSDOF 7
ENDMDL
MODEL      244
REMARK 921   NORMALIZED FREE ENERGY PREDICTED BY IDOCK:   -4.12 KCAL/MOL
REMARK 922        TOTAL FREE ENERGY PREDICTED BY IDOCK:   -6.97 KCAL/MOL
REMARK 923 INTER-LIGAND FREE ENERGY PREDICTED BY IDOCK:   -4.61 KCAL/MOL
REMARK 924 INTRA-LIGAND FREE ENERGY PREDICTED BY IDOCK:   -2.37 KCAL/MOL
REMARK 927      BINDING AFFINITY PREDICTED BY RF-SCORE:    0.00 PKD
ROOT
HETATM    1  C   UNL     1      -7.535   3.479  67.549  1.00  0.00    -0.066 C  
HETATM    2  C   UNL     1      -9.016   3.181  67.290  1.00  0.00    -0.157 C  
ENDROOT
BRANCH   2   3
HETATM    3  N   UNL     1      -9.445   3.617  65.951  1.00  0.00    -0.224 NA 
HETATM    4  H   UNL     1     -10.079   2.929  65.544  1.00  0.00     0.000 HD 
BRANCH   3   5
HETATM    5  C   UNL     1     -10.047   4.958  65.894  1.00  0.00    -0.211 C  
BRANCH   5   6
HETATM    6  C   UNL     1      -9.030   6.093  65.718  1.00  0.00    -0.099 C  
BRANCH   6   7
HETATM    7  C   UNL     1      -9.199   7.188  66.742  1.00  0.00    -0.188 A  
HETATM    8  C   UNL     1      -9.578   9.170  68.666  1.00  0.00    -0.152 A  
HETATM    9  C   UNL     1      -8.437   8.373  68.700  1.00  0.00    -0.128 A  
HETATM   10  O   UNL     1      -9.776  10.122  69.625  1.00  0.00    -0.228 OA 
HETATM   11  C   UNL     1     -10.529   9.005  67.672  1.00  0.00    -0.324 A  
HETATM   12  H   UNL     1      -7.676   9.268  70.363  1.00  0.00     0.000 HD 
HETATM   13  C   UNL     1      -8.236   7.384  67.742  1.00  0.00    -0.119 A  
HETATM   14  O   UNL     1      -7.539   8.593  69.709  1.00  0.00    -0.075 OA 
HETATM   15  C   UNL     1     -10.337   8.014  66.706  1.00  0.00    -0.360 A  
HETATM   16  H   UNL     1     -10.554  10.666  69.602  1.00  0.00     0.000 HD 
ENDBRANCH   6   7
ENDBRANCH   5   6
ENDBRANCH   3   5
ENDBRANCH   2   3
BRANCH   2  17
HETATM   17  C   UNL     1      -9.870   3.877  68.369  1.00  0.00    -0.012 C  
BRANCH  17  18
HETATM   18  C   UNL     1      -9.067   4.293  69.608  1.00  0.00    -0.179 C  
BRANCH  18  19
HETATM   19  C   UNL     1      -9.810   5.345  70.398  1.00  0.00    -0.270 A  
HETATM   20  C   UNL     1      -9.266   5.865  71.580  1.00  0.00    -0.156 A  
HETATM   21  C   UNL     1     -11.031   5.851  69.929  1.00  0.00    -0.444 A  
HETATM   22  C   UNL     1     -11.695   6.863  70.624  1.00  0.00    -0.417 A  
HETATM   23  H   UNL     1     -11.355   8.721  73.289  1.00  0.00     0.000 HD 
HETATM   24  C   UNL     1      -9.930   6.876  72.278  1.00  0.00    -0.176 A  
HETATM   25  C   UNL     1     -11.134   7.371  71.792  1.00  0.00    -0.238 A  
HETATM   26  O   UNL     1     -11.739   8.373  72.492  1.00  0.00    -0.388 OA 
ENDBRANCH  18  19
ENDBRANCH  17  18
ENDBRANCH   2  17
TORSDOF 7
ENDMDL
MODEL      245
REMARK 921   NORMALIZED FREE ENERGY PREDICTED BY IDOCK:   -4.12 KCAL/MOL
REMARK 922        TOTAL FREE ENERGY PREDICTED BY IDOCK:   -6.97 KCAL/MOL
REMARK 923 INTER-LIGAND FREE ENERGY PREDICTED BY IDOCK:   -6.20 KCAL/MOL
REMARK 924 INTRA-LIGAND FREE ENERGY PREDICTED BY IDOCK:   -0.77 KCAL/MOL
REMARK 927      BINDING AFFINITY PREDICTED BY RF-SCORE:    0.00 PKD
ROOT
HETATM    1  C   UNL     1      -8.418  10.227  67.479  1.00  0.00    -0.118 C  
HETATM    2  C   UNL     1      -8.976  11.176  68.546  1.00  0.00    -0.168 C  
ENDROOT
BRANCH   2   3
HETATM    3  N   UNL     1      -9.755  10.464  69.571  1.00  0.00    -0.351 NA 
HETATM    4  H   UNL     1      -9.492  10.790  70.501  1.00  0.00     0.000 HD 
BRANCH   3   5
HETATM    5  C   UNL     1     -11.215  10.531  69.405  1.00  0.00    -0.269 C  
BRANCH   5   6
HETATM    6  C   UNL     1     -11.990  10.632  70.725  1.00  0.00    -0.477 C  
BRANCH   6   7
HETATM    7  C   UNL     1     -12.561  12.009  70.960  1.00  0.00    -0.370 A  
HETATM    8  C   UNL     1     -13.574  14.557  71.468  1.00  0.00    -0.390 A  
HETATM    9  C   UNL     1     -12.653  14.364  70.442  1.00  0.00    -0.345 A  
HETATM   10  O   UNL     1     -14.049  15.809  71.734  1.00  0.00    -0.425 OA 
HETATM   11  C   UNL     1     -14.014  13.490  72.237  1.00  0.00    -0.638 A  
HETATM   12  H   UNL     1     -12.613  16.327  69.904  1.00  0.00     0.000 HD 
HETATM   13  C   UNL     1     -12.144  13.096  70.177  1.00  0.00    -0.392 A  
HETATM   14  O   UNL     1     -12.265  15.462  69.723  1.00  0.00    -0.337 OA 
HETATM   15  C   UNL     1     -13.508  12.213  71.979  1.00  0.00    -0.388 A  
HETATM   16  H   UNL     1     -14.678  15.941  72.434  1.00  0.00     0.000 HD 
ENDBRANCH   6   7
ENDBRANCH   5   6
ENDBRANCH   3   5
ENDBRANCH   2   3
BRANCH   2  17
HETATM   17  C   UNL     1      -9.854  12.245  67.864  1.00  0.00    -0.201 C  
BRANCH  17  18
HETATM   18  C   UNL     1      -9.294  12.730  66.521  1.00  0.00    -0.221 C  
BRANCH  18  19
HETATM   19  C   UNL     1      -8.459  13.976  66.709  1.00  0.00    -0.019 A  
HETATM   20  C   UNL     1      -8.976  15.236  66.379  1.00  0.00    -0.339 A  
HETATM   21  C   UNL     1      -7.174  13.889  67.264  1.00  0.00     0.019 A  
HETATM   22  C   UNL     1      -6.420  15.041  67.492  1.00  0.00    -0.121 A  
HETATM   23  H   UNL     1      -6.625  18.284  67.166  1.00  0.00     0.000 HD 
HETATM   24  C   UNL     1      -8.221  16.389  66.605  1.00  0.00    -0.314 A  
HETATM   25  C   UNL     1      -6.954  16.283  67.165  1.00  0.00    -0.208 A  
HETATM   26  O   UNL     1      -6.260  17.436  67.389  1.00  0.00    -0.132 OA 
ENDBRANCH  18  19
ENDBRANCH  17  18
ENDBRANCH   2  17
TORSDOF 7
ENDMDL
MODEL      246
REMARK 921   NORMALIZED FREE ENERGY PREDICTED BY IDOCK:   -4.10 KCAL/MOL
REMARK 922        TOTAL FREE ENERGY PREDICTED BY IDOCK:   -6.95 KCAL/MOL
REMARK 923 INTER-LIGAND FREE ENERGY PREDICTED BY IDOCK:   -5.98 KCAL/MOL
REMARK 924 INTRA-LIGAND FREE ENERGY PREDICTED BY IDOCK:   -0.96 KCAL/MOL
REMARK 927      BINDING AFFINITY PREDICTED BY RF-SCORE:    0.00 PKD
ROOT
HETATM    1  C   UNL     1     -12.296  12.467  64.822  1.00  0.00    -0.544 C  
HETATM    2  C   UNL     1     -12.149  12.850  66.299  1.00  0.00    -0.365 C  
ENDROOT
BRANCH   2   3
HETATM    3  N   UNL     1     -12.216  14.305  66.505  1.00  0.00    -0.450 NA 
HETATM    4  H   UNL     1     -12.750  14.516  67.348  1.00  0.00     0.000 HD 
BRANCH   3   5
HETATM    5  C   UNL     1     -10.916  14.992  66.543  1.00  0.00    -0.327 C  
BRANCH   5   6
HETATM    6  C   UNL     1     -10.820  16.091  67.610  1.00  0.00    -0.311 C  
BRANCH   6   7
HETATM    7  C   UNL     1      -9.448  16.180  68.232  1.00  0.00    -0.208 A  
HETATM    8  C   UNL     1      -6.882  16.300  69.315  1.00  0.00    -0.211 A  
HETATM    9  C   UNL     1      -7.498  17.458  68.850  1.00  0.00    -0.235 A  
HETATM   10  O   UNL     1      -5.614  16.355  69.820  1.00  0.00    -0.146 OA 
HETATM   11  C   UNL     1      -7.536  15.078  69.264  1.00  0.00    -0.188 A  
HETATM   12  H   UNL     1      -5.919  18.661  69.301  1.00  0.00     0.000 HD 
HETATM   13  C   UNL     1      -8.780  17.410  68.312  1.00  0.00    -0.261 A  
HETATM   14  O   UNL     1      -6.794  18.629  68.934  1.00  0.00    -0.267 OA 
HETATM   15  C   UNL     1      -8.823  15.020  68.724  1.00  0.00    -0.192 A  
HETATM   16  H   UNL     1      -5.193  15.564  70.137  1.00  0.00     0.000 HD 
ENDBRANCH   6   7
ENDBRANCH   5   6
ENDBRANCH   3   5
ENDBRANCH   2   3
BRANCH   2  17
HETATM   17  C   UNL     1     -10.810  12.303  66.834  1.00  0.00    -0.290 C  
BRANCH  17  18
HETATM   18  C   UNL     1     -10.886  11.816  68.286  1.00  0.00    -0.259 C  
BRANCH  18  19
HETATM   19  C   UNL     1     -10.772  10.310  68.352  1.00  0.00    -0.263 A  
HETATM   20  C   UNL     1     -10.451   9.569  67.207  1.00  0.00    -0.328 A  
HETATM   21  C   UNL     1     -10.936   9.642  69.574  1.00  0.00    -0.233 A  
HETATM   22  C   UNL     1     -10.776   8.257  69.653  1.00  0.00    -0.196 A  
HETATM   23  H   UNL     1     -10.042   5.701  67.757  1.00  0.00     0.000 HD 
HETATM   24  C   UNL     1     -10.293   8.184  67.284  1.00  0.00    -0.373 A  
HETATM   25  C   UNL     1     -10.450   7.541  68.505  1.00  0.00    -0.180 A  
HETATM   26  O   UNL     1     -10.266   6.189  68.541  1.00  0.00    -0.155 OA 
ENDBRANCH  18  19
ENDBRANCH  17  18
ENDBRANCH   2  17
TORSDOF 7
ENDMDL
MODEL      247
REMARK 921   NORMALIZED FREE ENERGY PREDICTED BY IDOCK:   -4.08 KCAL/MOL
REMARK 922        TOTAL FREE ENERGY PREDICTED BY IDOCK:   -6.91 KCAL/MOL
REMARK 923 INTER-LIGAND FREE ENERGY PREDICTED BY IDOCK:   -4.80 KCAL/MOL
REMARK 924 INTRA-LIGAND FREE ENERGY PREDICTED BY IDOCK:   -2.11 KCAL/MOL
REMARK 927      BINDING AFFINITY PREDICTED BY RF-SCORE:    0.00 PKD
ROOT
HETATM    1  C   UNL     1     -10.125  17.315  68.784  1.00  0.00    -0.337 C  
HETATM    2  C   UNL     1     -10.285  15.923  69.405  1.00  0.00    -0.262 C  
ENDROOT
BRANCH   2   3
HETATM    3  N   UNL     1      -9.054  15.123  69.302  1.00  0.00    -0.313 NA 
HETATM    4  H   UNL     1      -9.169  14.237  69.794  1.00  0.00     0.000 HD 
BRANCH   3   5
HETATM    5  C   UNL     1      -8.579  14.883  67.930  1.00  0.00    -0.160 C  
BRANCH   5   6
HETATM    6  C   UNL     1      -7.224  14.166  67.855  1.00  0.00    -0.165 C  
BRANCH   6   7
HETATM    7  C   UNL     1      -7.359  12.664  67.897  1.00  0.00    -0.116 A  
HETATM    8  C   UNL     1      -7.683   9.897  68.010  1.00  0.00    -0.086 A  
HETATM    9  C   UNL     1      -7.654  10.546  66.778  1.00  0.00    -0.115 A  
HETATM   10  O   UNL     1      -7.870   8.545  68.065  1.00  0.00    -0.101 OA 
HETATM   11  C   UNL     1      -7.534  10.607  69.191  1.00  0.00    -0.123 A  
HETATM   12  H   UNL     1      -7.919   8.840  65.700  1.00  0.00     0.000 HD 
HETATM   13  C   UNL     1      -7.488  11.926  66.711  1.00  0.00    -0.017 A  
HETATM   14  O   UNL     1      -7.805   9.782  65.654  1.00  0.00    -0.107 OA 
HETATM   15  C   UNL     1      -7.368  11.993  69.133  1.00  0.00     0.048 A  
HETATM   16  H   UNL     1      -7.890   8.101  68.905  1.00  0.00     0.000 HD 
ENDBRANCH   6   7
ENDBRANCH   5   6
ENDBRANCH   3   5
ENDBRANCH   2   3
BRANCH   2  17
HETATM   17  C   UNL     1     -11.450  15.190  68.711  1.00  0.00    -0.335 C  
BRANCH  17  18
HETATM   18  C   UNL     1     -12.020  14.029  69.536  1.00  0.00    -0.390 C  
BRANCH  18  19
HETATM   19  C   UNL     1     -11.669  12.701  68.905  1.00  0.00    -0.370 A  
HETATM   20  C   UNL     1     -11.585  11.540  69.686  1.00  0.00    -0.403 A  
HETATM   21  C   UNL     1     -11.473  12.607  67.519  1.00  0.00    -0.397 A  
HETATM   22  C   UNL     1     -11.204  11.374  66.922  1.00  0.00    -0.331 A  
HETATM   23  H   UNL     1     -10.844   8.225  67.712  1.00  0.00     0.000 HD 
HETATM   24  C   UNL     1     -11.314  10.307  69.090  1.00  0.00    -0.244 A  
HETATM   25  C   UNL     1     -11.133  10.232  67.715  1.00  0.00    -0.269 A  
HETATM   26  O   UNL     1     -10.892   9.005  67.170  1.00  0.00    -0.210 OA 
ENDBRANCH  18  19
ENDBRANCH  17  18
ENDBRANCH   2  17
TORSDOF 7
ENDMDL
MODEL      248
REMARK 921   NORMALIZED FREE ENERGY PREDICTED BY IDOCK:   -4.08 KCAL/MOL
REMARK 922        TOTAL FREE ENERGY PREDICTED BY IDOCK:   -6.91 KCAL/MOL
REMARK 923 INTER-LIGAND FREE ENERGY PREDICTED BY IDOCK:   -6.12 KCAL/MOL
REMARK 924 INTRA-LIGAND FREE ENERGY PREDICTED BY IDOCK:   -0.78 KCAL/MOL
REMARK 927      BINDING AFFINITY PREDICTED BY RF-SCORE:    0.00 PKD
ROOT
HETATM    1  C   UNL     1     -11.905  12.868  66.557  1.00  0.00    -0.473 C  
HETATM    2  C   UNL     1     -11.177  13.404  65.319  1.00  0.00    -0.289 C  
ENDROOT
BRANCH   2   3
HETATM    3  N   UNL     1      -9.821  12.848  65.188  1.00  0.00    -0.496 NA 
HETATM    4  H   UNL     1      -9.186  13.554  64.815  1.00  0.00     0.000 HD 
BRANCH   3   5
HETATM    5  C   UNL     1      -9.263  12.265  66.418  1.00  0.00    -0.203 C  
BRANCH   5   6
HETATM    6  C   UNL     1      -8.464  10.975  66.192  1.00  0.00    -0.168 C  
BRANCH   6   7
HETATM    7  C   UNL     1      -9.124   9.766  66.809  1.00  0.00    -0.169 A  
HETATM    8  C   UNL     1     -10.420   7.567  67.930  1.00  0.00    -0.204 A  
HETATM    9  C   UNL     1      -9.696   7.423  66.750  1.00  0.00    -0.207 A  
HETATM   10  O   UNL     1     -11.077   6.496  68.464  1.00  0.00    -0.421 OA 
HETATM   11  C   UNL     1     -10.494   8.793  68.573  1.00  0.00    -0.212 A  
HETATM   12  H   UNL     1     -10.112   5.440  66.559  1.00  0.00     0.000 HD 
HETATM   13  C   UNL     1      -9.042   8.513  66.184  1.00  0.00    -0.245 A  
HETATM   14  O   UNL     1      -9.665   6.183  66.172  1.00  0.00    -0.110 OA 
HETATM   15  C   UNL     1      -9.841   9.894  68.012  1.00  0.00    -0.170 A  
HETATM   16  H   UNL     1     -11.572   6.594  69.270  1.00  0.00     0.000 HD 
ENDBRANCH   6   7
ENDBRANCH   5   6
ENDBRANCH   3   5
ENDBRANCH   2   3
BRANCH   2  17
HETATM   17  C   UNL     1     -11.111  14.942  65.396  1.00  0.00    -0.366 C  
BRANCH  17  18
HETATM   18  C   UNL     1     -10.695  15.468  66.776  1.00  0.00    -0.305 C  
BRANCH  18  19
HETATM   19  C   UNL     1      -9.658  16.559  66.642  1.00  0.00    -0.275 A  
HETATM   20  C   UNL     1      -9.999  17.899  66.871  1.00  0.00    -0.335 A  
HETATM   21  C   UNL     1      -8.327  16.236  66.337  1.00  0.00    -0.365 A  
HETATM   22  C   UNL     1      -7.352  17.233  66.267  1.00  0.00    -0.342 A  
HETATM   23  H   UNL     1      -7.031  20.463  66.630  1.00  0.00     0.000 HD 
HETATM   24  C   UNL     1      -9.025  18.897  66.800  1.00  0.00    -0.320 A  
HETATM   25  C   UNL     1      -7.711  18.556  66.506  1.00  0.00    -0.255 A  
HETATM   26  O   UNL     1      -6.787  19.559  66.467  1.00  0.00    -0.191 OA 
ENDBRANCH  18  19
ENDBRANCH  17  18
ENDBRANCH   2  17
TORSDOF 7
ENDMDL
MODEL      249
REMARK 921   NORMALIZED FREE ENERGY PREDICTED BY IDOCK:   -4.07 KCAL/MOL
REMARK 922        TOTAL FREE ENERGY PREDICTED BY IDOCK:   -6.89 KCAL/MOL
REMARK 923 INTER-LIGAND FREE ENERGY PREDICTED BY IDOCK:   -6.35 KCAL/MOL
REMARK 924 INTRA-LIGAND FREE ENERGY PREDICTED BY IDOCK:   -0.55 KCAL/MOL
REMARK 927      BINDING AFFINITY PREDICTED BY RF-SCORE:    0.00 PKD
ROOT
HETATM    1  C   UNL     1      -9.799  10.501  63.830  1.00  0.00    -0.363 C  
HETATM    2  C   UNL     1      -9.990  11.086  65.234  1.00  0.00    -0.266 C  
ENDROOT
BRANCH   2   3
HETATM    3  N   UNL     1      -9.213  12.320  65.432  1.00  0.00    -0.420 NA 
HETATM    4  H   UNL     1      -9.035  12.771  64.534  1.00  0.00     0.000 HD 
BRANCH   3   5
HETATM    5  C   UNL     1      -9.802  13.284  66.374  1.00  0.00    -0.281 C  
BRANCH   5   6
HETATM    6  C   UNL     1      -8.791  13.908  67.344  1.00  0.00    -0.209 C  
BRANCH   6   7
HETATM    7  C   UNL     1      -9.157  15.318  67.739  1.00  0.00    -0.182 A  
HETATM    8  C   UNL     1      -9.871  17.891  68.539  1.00  0.00    -0.367 A  
HETATM    9  C   UNL     1      -8.531  17.515  68.514  1.00  0.00    -0.280 A  
HETATM   10  O   UNL     1     -10.222  19.143  68.958  1.00  0.00    -0.537 OA 
HETATM   11  C   UNL     1     -10.865  17.005  68.153  1.00  0.00    -0.338 A  
HETATM   12  H   UNL     1      -7.855  19.316  69.180  1.00  0.00     0.000 HD 
HETATM   13  C   UNL     1      -8.163  16.235  68.112  1.00  0.00    -0.163 A  
HETATM   14  O   UNL     1      -7.604  18.442  68.906  1.00  0.00    -0.287 OA 
HETATM   15  C   UNL     1     -10.505  15.717  67.749  1.00  0.00    -0.273 A  
HETATM   16  H   UNL     1     -11.136  19.400  68.976  1.00  0.00     0.000 HD 
ENDBRANCH   6   7
ENDBRANCH   5   6
ENDBRANCH   3   5
ENDBRANCH   2   3
BRANCH   2  17
HETATM   17  C   UNL     1      -9.582  10.032  66.282  1.00  0.00    -0.256 C  
BRANCH  17  18
HETATM   18  C   UNL     1     -10.690   9.717  67.296  1.00  0.00    -0.296 C  
BRANCH  18  19
HETATM   19  C   UNL     1     -10.498   8.340  67.886  1.00  0.00    -0.259 A  
HETATM   20  C   UNL     1     -10.311   8.175  69.266  1.00  0.00    -0.222 A  
HETATM   21  C   UNL     1     -10.557   7.204  67.066  1.00  0.00    -0.413 A  
HETATM   22  C   UNL     1     -10.437   5.925  67.613  1.00  0.00    -0.301 A  
HETATM   23  H   UNL     1     -10.036   4.456  70.502  1.00  0.00     0.000 HD 
HETATM   24  C   UNL     1     -10.189   6.897  69.814  1.00  0.00    -0.210 A  
HETATM   25  C   UNL     1     -10.260   5.784  68.986  1.00  0.00    -0.217 A  
HETATM   26  O   UNL     1     -10.157   4.553  69.564  1.00  0.00    -0.205 OA 
ENDBRANCH  18  19
ENDBRANCH  17  18
ENDBRANCH   2  17
TORSDOF 7
ENDMDL
MODEL      250
REMARK 921   NORMALIZED FREE ENERGY PREDICTED BY IDOCK:   -4.06 KCAL/MOL
REMARK 922        TOTAL FREE ENERGY PREDICTED BY IDOCK:   -6.88 KCAL/MOL
REMARK 923 INTER-LIGAND FREE ENERGY PREDICTED BY IDOCK:   -6.23 KCAL/MOL
REMARK 924 INTRA-LIGAND FREE ENERGY PREDICTED BY IDOCK:   -0.65 KCAL/MOL
REMARK 927      BINDING AFFINITY PREDICTED BY RF-SCORE:    0.00 PKD
ROOT
HETATM    1  C   UNL     1     -10.695   5.399  66.509  1.00  0.00    -0.309 C  
HETATM    2  C   UNL     1     -11.008   6.704  67.249  1.00  0.00    -0.385 C  
ENDROOT
BRANCH   2   3
HETATM    3  N   UNL     1      -9.959   7.718  67.054  1.00  0.00    -0.219 NA 
HETATM    4  H   UNL     1      -9.158   7.307  66.575  1.00  0.00     0.000 HD 
BRANCH   3   5
HETATM    5  C   UNL     1     -10.393   8.940  66.360  1.00  0.00    -0.119 C  
BRANCH   5   6
HETATM    6  C   UNL     1     -10.557  10.157  67.280  1.00  0.00    -0.321 C  
BRANCH   6   7
HETATM    7  C   UNL     1     -10.724  11.446  66.514  1.00  0.00    -0.325 A  
HETATM    8  C   UNL     1     -10.949  13.836  65.096  1.00  0.00    -0.337 A  
HETATM    9  C   UNL     1     -11.326  12.635  64.502  1.00  0.00    -0.333 A  
HETATM   10  O   UNL     1     -11.033  15.003  64.391  1.00  0.00    -0.636 OA 
HETATM   11  C   UNL     1     -10.475  13.867  66.398  1.00  0.00    -0.284 A  
HETATM   12  H   UNL     1     -11.857  13.498  62.737  1.00  0.00     0.000 HD 
HETATM   13  C   UNL     1     -11.222  11.437  65.203  1.00  0.00    -0.146 A  
HETATM   14  O   UNL     1     -11.786  12.680  63.215  1.00  0.00    -0.504 OA 
HETATM   15  C   UNL     1     -10.367  12.669  67.109  1.00  0.00    -0.239 A  
HETATM   16  H   UNL     1     -10.775  15.823  64.796  1.00  0.00     0.000 HD 
ENDBRANCH   6   7
ENDBRANCH   5   6
ENDBRANCH   3   5
ENDBRANCH   2   3
BRANCH   2  17
HETATM   17  C   UNL     1     -11.181   6.407  68.752  1.00  0.00    -0.358 C  
BRANCH  17  18
HETATM   18  C   UNL     1      -9.952   5.747  69.390  1.00  0.00    -0.244 C  
BRANCH  18  19
HETATM   19  C   UNL     1      -9.475   6.545  70.582  1.00  0.00    -0.173 A  
HETATM   20  C   UNL     1     -10.345   7.419  71.249  1.00  0.00    -0.203 A  
HETATM   21  C   UNL     1      -8.169   6.381  71.066  1.00  0.00    -0.122 A  
HETATM   22  C   UNL     1      -7.740   7.073  72.201  1.00  0.00    -0.092 A  
HETATM   23  H   UNL     1      -8.853   9.195  74.420  1.00  0.00     0.000 HD 
HETATM   24  C   UNL     1      -9.916   8.113  72.382  1.00  0.00    -0.345 A  
HETATM   25  C   UNL     1      -8.622   7.929  72.852  1.00  0.00    -0.180 A  
HETATM   26  O   UNL     1      -8.250   8.610  73.975  1.00  0.00    -0.359 OA 
ENDBRANCH  18  19
ENDBRANCH  17  18
ENDBRANCH   2  17
TORSDOF 7
ENDMDL
MODEL      251
REMARK 921   NORMALIZED FREE ENERGY PREDICTED BY IDOCK:   -4.05 KCAL/MOL
REMARK 922        TOTAL FREE ENERGY PREDICTED BY IDOCK:   -6.87 KCAL/MOL
REMARK 923 INTER-LIGAND FREE ENERGY PREDICTED BY IDOCK:   -6.18 KCAL/MOL
REMARK 924 INTRA-LIGAND FREE ENERGY PREDICTED BY IDOCK:   -0.68 KCAL/MOL
REMARK 927      BINDING AFFINITY PREDICTED BY RF-SCORE:    0.00 PKD
ROOT
HETATM    1  C   UNL     1     -11.734  11.027  70.185  1.00  0.00    -0.442 C  
HETATM    2  C   UNL     1     -11.479  10.931  68.676  1.00  0.00    -0.311 C  
ENDROOT
BRANCH   2   3
HETATM    3  N   UNL     1     -10.101  10.515  68.371  1.00  0.00    -0.158 NA 
HETATM    4  H   UNL     1      -9.977   9.525  68.583  1.00  0.00     0.000 HD 
BRANCH   3   5
HETATM    5  C   UNL     1      -9.654  10.798  66.998  1.00  0.00    -0.169 C  
BRANCH   5   6
HETATM    6  C   UNL     1     -10.118   9.764  65.964  1.00  0.00    -0.322 C  
BRANCH   6   7
HETATM    7  C   UNL     1      -9.876   8.344  66.412  1.00  0.00    -0.310 A  
HETATM    8  C   UNL     1      -9.484   5.693  67.182  1.00  0.00    -0.117 A  
HETATM    9  C   UNL     1      -8.459   6.396  66.555  1.00  0.00    -0.118 A  
HETATM   10  O   UNL     1      -9.301   4.386  67.534  1.00  0.00    -0.134 OA 
HETATM   11  C   UNL     1     -10.702   6.300  67.448  1.00  0.00    -0.409 A  
HETATM   12  H   UNL     1      -7.158   4.831  66.589  1.00  0.00     0.000 HD 
HETATM   13  C   UNL     1      -8.642   7.721  66.171  1.00  0.00    -0.164 A  
HETATM   14  O   UNL     1      -7.283   5.735  66.326  1.00  0.00    -0.073 OA 
HETATM   15  C   UNL     1     -10.895   7.630  67.065  1.00  0.00    -0.219 A  
HETATM   16  H   UNL     1     -10.000   3.906  67.962  1.00  0.00     0.000 HD 
ENDBRANCH   6   7
ENDBRANCH   5   6
ENDBRANCH   3   5
ENDBRANCH   2   3
BRANCH   2  17
HETATM   17  C   UNL     1     -11.775  12.296  68.024  1.00  0.00    -0.417 C  
BRANCH  17  18
HETATM   18  C   UNL     1     -11.366  13.491  68.894  1.00  0.00    -0.332 C  
BRANCH  18  19
HETATM   19  C   UNL     1     -10.973  14.670  68.034  1.00  0.00    -0.274 A  
HETATM   20  C   UNL     1     -10.694  14.496  66.672  1.00  0.00    -0.305 A  
HETATM   21  C   UNL     1     -10.935  15.961  68.579  1.00  0.00    -0.324 A  
HETATM   22  C   UNL     1     -10.628  17.062  67.777  1.00  0.00    -0.350 A  
HETATM   23  H   UNL     1      -9.894  17.785  64.678  1.00  0.00     0.000 HD 
HETATM   24  C   UNL     1     -10.385  15.596  65.869  1.00  0.00    -0.368 A  
HETATM   25  C   UNL     1     -10.361  16.868  66.425  1.00  0.00    -0.300 A  
HETATM   26  O   UNL     1     -10.076  17.918  65.601  1.00  0.00    -0.567 OA 
ENDBRANCH  18  19
ENDBRANCH  17  18
ENDBRANCH   2  17
TORSDOF 7
ENDMDL
MODEL      252
REMARK 921   NORMALIZED FREE ENERGY PREDICTED BY IDOCK:   -4.04 KCAL/MOL
REMARK 922        TOTAL FREE ENERGY PREDICTED BY IDOCK:   -6.86 KCAL/MOL
REMARK 923 INTER-LIGAND FREE ENERGY PREDICTED BY IDOCK:   -5.83 KCAL/MOL
REMARK 924 INTRA-LIGAND FREE ENERGY PREDICTED BY IDOCK:   -1.03 KCAL/MOL
REMARK 927      BINDING AFFINITY PREDICTED BY RF-SCORE:    0.00 PKD
ROOT
HETATM    1  C   UNL     1     -12.563  12.677  64.580  1.00  0.00    -0.517 C  
HETATM    2  C   UNL     1     -11.430  13.441  65.276  1.00  0.00    -0.298 C  
ENDROOT
BRANCH   2   3
HETATM    3  N   UNL     1     -10.236  12.604  65.476  1.00  0.00    -0.279 NA 
HETATM    4  H   UNL     1      -9.943  12.637  66.452  1.00  0.00     0.000 HD 
BRANCH   3   5
HETATM    5  C   UNL     1     -10.372  11.207  65.034  1.00  0.00    -0.301 C  
BRANCH   5   6
HETATM    6  C   UNL     1     -10.407  10.189  66.182  1.00  0.00    -0.237 C  
BRANCH   6   7
HETATM    7  C   UNL     1      -9.041   9.923  66.765  1.00  0.00    -0.164 A  
HETATM    8  C   UNL     1      -6.489   9.501  67.806  1.00  0.00    -0.058 A  
HETATM    9  C   UNL     1      -7.553   9.782  68.659  1.00  0.00    -0.079 A  
HETATM   10  O   UNL     1      -5.234   9.323  68.315  1.00  0.00    -0.037 OA 
HETATM   11  C   UNL     1      -6.682   9.409  66.436  1.00  0.00    -0.075 A  
HETATM   12  H   UNL     1      -6.417   9.715  70.346  1.00  0.00     0.000 HD 
HETATM   13  C   UNL     1      -8.832   9.990  68.150  1.00  0.00    -0.122 A  
HETATM   14  O   UNL     1      -7.290   9.857  69.999  1.00  0.00    -0.121 OA 
HETATM   15  C   UNL     1      -7.962   9.617  65.916  1.00  0.00    -0.112 A  
HETATM   16  H   UNL     1      -4.508   9.131  67.733  1.00  0.00     0.000 HD 
ENDBRANCH   6   7
ENDBRANCH   5   6
ENDBRANCH   3   5
ENDBRANCH   2   3
BRANCH   2  17
HETATM   17  C   UNL     1     -11.935  13.971  66.633  1.00  0.00    -0.473 C  
BRANCH  17  18
HETATM   18  C   UNL     1     -11.059  13.547  67.819  1.00  0.00    -0.291 C  
BRANCH  18  19
HETATM   19  C   UNL     1     -11.815  13.689  69.120  1.00  0.00    -0.394 A  
HETATM   20  C   UNL     1     -12.240  14.949  69.563  1.00  0.00    -0.268 A  
HETATM   21  C   UNL     1     -12.143  12.554  69.875  1.00  0.00    -0.322 A  
HETATM   22  C   UNL     1     -12.890  12.673  71.049  1.00  0.00    -0.254 A  
HETATM   23  H   UNL     1     -14.343  14.952  72.882  1.00  0.00     0.000 HD 
HETATM   24  C   UNL     1     -12.985  15.069  70.738  1.00  0.00    -0.442 A  
HETATM   25  C   UNL     1     -13.309  13.932  71.466  1.00  0.00    -0.335 A  
HETATM   26  O   UNL     1     -14.056  14.092  72.597  1.00  0.00    -0.651 OA 
ENDBRANCH  18  19
ENDBRANCH  17  18
ENDBRANCH   2  17
TORSDOF 7
ENDMDL
MODEL      253
REMARK 921   NORMALIZED FREE ENERGY PREDICTED BY IDOCK:   -4.03 KCAL/MOL
REMARK 922        TOTAL FREE ENERGY PREDICTED BY IDOCK:   -6.84 KCAL/MOL
REMARK 923 INTER-LIGAND FREE ENERGY PREDICTED BY IDOCK:   -5.46 KCAL/MOL
REMARK 924 INTRA-LIGAND FREE ENERGY PREDICTED BY IDOCK:   -1.39 KCAL/MOL
REMARK 927      BINDING AFFINITY PREDICTED BY RF-SCORE:    0.00 PKD
ROOT
HETATM    1  C   UNL     1      -5.990  18.280  69.385  1.00  0.00    -0.247 C  
HETATM    2  C   UNL     1      -7.015  17.820  68.343  1.00  0.00    -0.228 C  
ENDROOT
BRANCH   2   3
HETATM    3  N   UNL     1      -8.241  18.635  68.371  1.00  0.00    -0.325 NA 
HETATM    4  H   UNL     1      -8.004  19.622  68.470  1.00  0.00     0.000 HD 
BRANCH   3   5
HETATM    5  C   UNL     1      -9.144  18.444  67.226  1.00  0.00    -0.266 C  
BRANCH   5   6
HETATM    6  C   UNL     1     -10.609  18.209  67.618  1.00  0.00    -0.424 C  
BRANCH   6   7
HETATM    7  C   UNL     1     -10.832  16.858  68.253  1.00  0.00    -0.357 A  
HETATM    8  C   UNL     1     -11.309  14.395  69.468  1.00  0.00    -0.276 A  
HETATM    9  C   UNL     1     -11.514  14.549  68.099  1.00  0.00    -0.312 A  
HETATM   10  O   UNL     1     -11.570  13.195  70.067  1.00  0.00    -0.480 OA 
HETATM   11  C   UNL     1     -10.851  15.450  70.241  1.00  0.00    -0.332 A  
HETATM   12  H   UNL     1     -12.128  12.629  67.820  1.00  0.00     0.000 HD 
HETATM   13  C   UNL     1     -11.274  15.773  67.482  1.00  0.00    -0.218 A  
HETATM   14  O   UNL     1     -11.965  13.464  67.399  1.00  0.00    -0.365 OA 
HETATM   15  C   UNL     1     -10.609  16.683  69.630  1.00  0.00    -0.274 A  
HETATM   16  H   UNL     1     -11.431  13.090  71.001  1.00  0.00     0.000 HD 
ENDBRANCH   6   7
ENDBRANCH   5   6
ENDBRANCH   3   5
ENDBRANCH   2   3
BRANCH   2  17
HETATM   17  C   UNL     1      -7.361  16.339  68.591  1.00  0.00    -0.180 C  
BRANCH  17  18
HETATM   18  C   UNL     1      -7.434  15.504  67.305  1.00  0.00    -0.258 C  
BRANCH  18  19
HETATM   19  C   UNL     1      -7.698  14.051  67.625  1.00  0.00    -0.188 A  
HETATM   20  C   UNL     1      -8.581  13.298  66.839  1.00  0.00    -0.116 A  
HETATM   21  C   UNL     1      -7.023  13.426  68.683  1.00  0.00    -0.101 A  
HETATM   22  C   UNL     1      -7.220  12.069  68.949  1.00  0.00    -0.089 A  
HETATM   23  H   UNL     1      -8.899   9.506  67.819  1.00  0.00     0.000 HD 
HETATM   24  C   UNL     1      -8.780  11.942  67.106  1.00  0.00    -0.176 A  
HETATM   25  C   UNL     1      -8.095  11.338  68.152  1.00  0.00    -0.134 A  
HETATM   26  O   UNL     1      -8.302  10.006  68.364  1.00  0.00    -0.108 OA 
ENDBRANCH  18  19
ENDBRANCH  17  18
ENDBRANCH   2  17
TORSDOF 7
ENDMDL
MODEL      254
REMARK 921   NORMALIZED FREE ENERGY PREDICTED BY IDOCK:   -4.03 KCAL/MOL
REMARK 922        TOTAL FREE ENERGY PREDICTED BY IDOCK:   -6.84 KCAL/MOL
REMARK 923 INTER-LIGAND FREE ENERGY PREDICTED BY IDOCK:   -6.11 KCAL/MOL
REMARK 924 INTRA-LIGAND FREE ENERGY PREDICTED BY IDOCK:   -0.73 KCAL/MOL
REMARK 927      BINDING AFFINITY PREDICTED BY RF-SCORE:    0.00 PKD
ROOT
HETATM    1  C   UNL     1      -9.308   3.992  66.875  1.00  0.00    -0.200 C  
HETATM    2  C   UNL     1      -9.749   5.419  67.220  1.00  0.00    -0.144 C  
ENDROOT
BRANCH   2   3
HETATM    3  N   UNL     1      -9.462   6.367  66.132  1.00  0.00    -0.343 NA 
HETATM    4  H   UNL     1     -10.218   6.355  65.448  1.00  0.00     0.000 HD 
BRANCH   3   5
HETATM    5  C   UNL     1      -9.190   7.747  66.563  1.00  0.00    -0.184 C  
BRANCH   5   6
HETATM    6  C   UNL     1     -10.452   8.582  66.821  1.00  0.00    -0.308 C  
BRANCH   6   7
HETATM    7  C   UNL     1     -10.265  10.039  66.479  1.00  0.00    -0.291 A  
HETATM    8  C   UNL     1      -9.839  12.726  65.868  1.00  0.00    -0.238 A  
HETATM    9  C   UNL     1     -10.135  11.818  64.854  1.00  0.00    -0.259 A  
HETATM   10  O   UNL     1      -9.603  14.036  65.564  1.00  0.00    -0.521 OA 
HETATM   11  C   UNL     1      -9.769  12.316  67.190  1.00  0.00    -0.203 A  
HETATM   12  H   UNL     1     -10.040  13.210  63.372  1.00  0.00     0.000 HD 
HETATM   13  C   UNL     1     -10.354  10.476  65.149  1.00  0.00    -0.310 A  
HETATM   14  O   UNL     1     -10.189  12.294  63.573  1.00  0.00    -0.427 OA 
HETATM   15  C   UNL     1      -9.987  10.970  67.496  1.00  0.00    -0.199 A  
HETATM   16  H   UNL     1      -9.400  14.656  66.255  1.00  0.00     0.000 HD 
ENDBRANCH   6   7
ENDBRANCH   5   6
ENDBRANCH   3   5
ENDBRANCH   2   3
BRANCH   2  17
HETATM   17  C   UNL     1      -9.040   5.870  68.513  1.00  0.00    -0.111 C  
BRANCH  17  18
HETATM   18  C   UNL     1      -9.588   5.196  69.778  1.00  0.00    -0.242 C  
BRANCH  18  19
HETATM   19  C   UNL     1     -10.358   6.186  70.621  1.00  0.00    -0.268 A  
HETATM   20  C   UNL     1     -11.677   6.528  70.292  1.00  0.00    -0.430 A  
HETATM   21  C   UNL     1      -9.778   6.735  71.773  1.00  0.00    -0.164 A  
HETATM   22  C   UNL     1     -10.503   7.607  72.587  1.00  0.00    -0.343 A  
HETATM   23  H   UNL     1     -13.460   8.979  72.792  1.00  0.00     0.000 HD 
HETATM   24  C   UNL     1     -12.403   7.402  71.104  1.00  0.00    -0.349 A  
HETATM   25  C   UNL     1     -11.814   7.928  72.247  1.00  0.00    -0.352 A  
HETATM   26  O   UNL     1     -12.565   8.760  73.024  1.00  0.00    -0.225 OA 
ENDBRANCH  18  19
ENDBRANCH  17  18
ENDBRANCH   2  17
TORSDOF 7
ENDMDL
MODEL      255
REMARK 921   NORMALIZED FREE ENERGY PREDICTED BY IDOCK:   -4.03 KCAL/MOL
REMARK 922        TOTAL FREE ENERGY PREDICTED BY IDOCK:   -6.84 KCAL/MOL
REMARK 923 INTER-LIGAND FREE ENERGY PREDICTED BY IDOCK:   -5.13 KCAL/MOL
REMARK 924 INTRA-LIGAND FREE ENERGY PREDICTED BY IDOCK:   -1.70 KCAL/MOL
REMARK 927      BINDING AFFINITY PREDICTED BY RF-SCORE:    0.00 PKD
ROOT
HETATM    1  C   UNL     1      -5.260   7.032  71.542  1.00  0.00    -0.027 C  
HETATM    2  C   UNL     1      -6.200   6.973  72.751  1.00  0.00    -0.052 C  
ENDROOT
BRANCH   2   3
HETATM    3  N   UNL     1      -6.545   5.591  73.119  1.00  0.00    -0.070 NA 
HETATM    4  H   UNL     1      -7.205   5.589  73.897  1.00  0.00     0.000 HD 
BRANCH   3   5
HETATM    5  C   UNL     1      -7.059   4.761  72.018  1.00  0.00    -0.062 C  
BRANCH   5   6
HETATM    6  C   UNL     1      -8.365   4.026  72.346  1.00  0.00    -0.099 C  
BRANCH   6   7
HETATM    7  C   UNL     1      -9.588   4.777  71.882  1.00  0.00    -0.206 A  
HETATM    8  C   UNL     1     -11.819   6.236  71.064  1.00  0.00    -0.154 A  
HETATM    9  C   UNL     1     -10.881   5.810  70.126  1.00  0.00    -0.313 A  
HETATM   10  O   UNL     1     -12.897   6.974  70.665  1.00  0.00    -0.587 OA 
HETATM   11  C   UNL     1     -11.669   5.929  72.407  1.00  0.00    -0.307 A  
HETATM   12  H   UNL     1     -11.854   6.648  68.547  1.00  0.00     0.000 HD 
HETATM   13  C   UNL     1      -9.766   5.078  70.524  1.00  0.00    -0.273 A  
HETATM   14  O   UNL     1     -11.093   6.148  68.818  1.00  0.00    -0.344 OA 
HETATM   15  C   UNL     1     -10.553   5.194  72.815  1.00  0.00    -0.278 A  
HETATM   16  H   UNL     1     -13.537   7.265  71.304  1.00  0.00     0.000 HD 
ENDBRANCH   6   7
ENDBRANCH   5   6
ENDBRANCH   3   5
ENDBRANCH   2   3
BRANCH   2  17
HETATM   17  C   UNL     1      -7.481   7.771  72.437  1.00  0.00    -0.098 C  
BRANCH  17  18
HETATM   18  C   UNL     1      -7.495   8.373  71.026  1.00  0.00    -0.075 C  
BRANCH  18  19
HETATM   19  C   UNL     1      -8.810   9.067  70.753  1.00  0.00    -0.281 A  
HETATM   20  C   UNL     1      -9.020   9.748  69.547  1.00  0.00    -0.215 A  
HETATM   21  C   UNL     1      -9.855   8.993  71.686  1.00  0.00    -0.366 A  
HETATM   22  C   UNL     1     -11.091   9.584  71.416  1.00  0.00    -0.438 A  
HETATM   23  H   UNL     1     -12.607  11.278  69.072  1.00  0.00     0.000 HD 
HETATM   24  C   UNL     1     -10.255  10.341  69.277  1.00  0.00    -0.244 A  
HETATM   25  C   UNL     1     -11.281  10.249  70.209  1.00  0.00    -0.323 A  
HETATM   26  O   UNL     1     -12.478  10.824  69.897  1.00  0.00    -0.322 OA 
ENDBRANCH  18  19
ENDBRANCH  17  18
ENDBRANCH   2  17
TORSDOF 7
ENDMDL
MODEL      256
REMARK 921   NORMALIZED FREE ENERGY PREDICTED BY IDOCK:   -4.03 KCAL/MOL
REMARK 922        TOTAL FREE ENERGY PREDICTED BY IDOCK:   -6.84 KCAL/MOL
REMARK 923 INTER-LIGAND FREE ENERGY PREDICTED BY IDOCK:   -4.82 KCAL/MOL
REMARK 924 INTRA-LIGAND FREE ENERGY PREDICTED BY IDOCK:   -2.01 KCAL/MOL
REMARK 927      BINDING AFFINITY PREDICTED BY RF-SCORE:    0.00 PKD
ROOT
HETATM    1  C   UNL     1      -7.010  11.585  67.218  1.00  0.00    -0.125 C  
HETATM    2  C   UNL     1      -7.733  10.280  67.571  1.00  0.00    -0.094 C  
ENDROOT
BRANCH   2   3
HETATM    3  N   UNL     1      -6.821   9.276  68.140  1.00  0.00    -0.064 NA 
HETATM    4  H   UNL     1      -5.908   9.693  68.324  1.00  0.00     0.000 HD 
BRANCH   3   5
HETATM    5  C   UNL     1      -7.317   8.594  69.345  1.00  0.00    -0.072 C  
BRANCH   5   6
HETATM    6  C   UNL     1      -7.873   9.542  70.416  1.00  0.00    -0.190 C  
BRANCH   6   7
HETATM    7  C   UNL     1      -9.315   9.255  70.755  1.00  0.00    -0.322 A  
HETATM    8  C   UNL     1     -11.993   8.705  71.301  1.00  0.00    -0.293 A  
HETATM    9  C   UNL     1     -10.994   7.881  71.811  1.00  0.00    -0.243 A  
HETATM   10  O   UNL     1     -13.306   8.418  71.545  1.00  0.00    -0.374 OA 
HETATM   11  C   UNL     1     -11.675   9.814  70.533  1.00  0.00    -0.343 A  
HETATM   12  H   UNL     1     -12.295   6.621  72.740  1.00  0.00     0.000 HD 
HETATM   13  C   UNL     1      -9.654   8.149  71.548  1.00  0.00    -0.226 A  
HETATM   14  O   UNL     1     -11.380   6.804  72.561  1.00  0.00    -0.262 OA 
HETATM   15  C   UNL     1     -10.333  10.091  70.264  1.00  0.00    -0.301 A  
HETATM   16  H   UNL     1     -13.988   8.980  71.197  1.00  0.00     0.000 HD 
ENDBRANCH   6   7
ENDBRANCH   5   6
ENDBRANCH   3   5
ENDBRANCH   2   3
BRANCH   2  17
HETATM   17  C   UNL     1      -8.412   9.719  66.305  1.00  0.00    -0.129 C  
BRANCH  17  18
HETATM   18  C   UNL     1      -9.846   9.230  66.548  1.00  0.00    -0.331 C  
BRANCH  18  19
HETATM   19  C   UNL     1      -9.861   7.755  66.876  1.00  0.00    -0.305 A  
HETATM   20  C   UNL     1      -9.152   6.842  66.084  1.00  0.00    -0.138 A  
HETATM   21  C   UNL     1     -10.543   7.290  68.010  1.00  0.00    -0.247 A  
HETATM   22  C   UNL     1     -10.513   5.936  68.350  1.00  0.00    -0.294 A  
HETATM   23  H   UNL     1      -9.237   3.113  67.318  1.00  0.00     0.000 HD 
HETATM   24  C   UNL     1      -9.124   5.487  66.422  1.00  0.00    -0.145 A  
HETATM   25  C   UNL     1      -9.797   5.047  67.555  1.00  0.00    -0.165 A  
HETATM   26  O   UNL     1      -9.726   3.720  67.861  1.00  0.00    -0.162 OA 
ENDBRANCH  18  19
ENDBRANCH  17  18
ENDBRANCH   2  17
TORSDOF 7
ENDMDL
MODEL      257
REMARK 921   NORMALIZED FREE ENERGY PREDICTED BY IDOCK:   -3.99 KCAL/MOL
REMARK 922        TOTAL FREE ENERGY PREDICTED BY IDOCK:   -6.79 KCAL/MOL
REMARK 923 INTER-LIGAND FREE ENERGY PREDICTED BY IDOCK:   -6.52 KCAL/MOL
REMARK 924 INTRA-LIGAND FREE ENERGY PREDICTED BY IDOCK:   -0.27 KCAL/MOL
REMARK 927      BINDING AFFINITY PREDICTED BY RF-SCORE:    0.00 PKD
ROOT
HETATM    1  C   UNL     1     -12.316  13.383  64.452  1.00  0.00    -0.399 C  
HETATM    2  C   UNL     1     -10.959  13.670  65.105  1.00  0.00    -0.330 C  
ENDROOT
BRANCH   2   3
HETATM    3  N   UNL     1     -10.570  12.622  66.062  1.00  0.00    -0.266 NA 
HETATM    4  H   UNL     1      -9.605  12.338  65.899  1.00  0.00     0.000 HD 
BRANCH   3   5
HETATM    5  C   UNL     1     -10.764  12.968  67.479  1.00  0.00    -0.238 C  
BRANCH   5   6
HETATM    6  C   UNL     1     -12.011  12.336  68.112  1.00  0.00    -0.256 C  
BRANCH   6   7
HETATM    7  C   UNL     1     -11.704  11.055  68.848  1.00  0.00    -0.400 A  
HETATM    8  C   UNL     1     -11.214   8.660  70.188  1.00  0.00    -0.146 A  
HETATM    9  C   UNL     1     -10.518   8.961  69.021  1.00  0.00    -0.214 A  
HETATM   10  O   UNL     1     -10.994   7.474  70.829  1.00  0.00    -0.242 OA 
HETATM   11  C   UNL     1     -12.142   9.547  70.710  1.00  0.00    -0.305 A  
HETATM   12  H   UNL     1      -9.457   7.224  69.025  1.00  0.00     0.000 HD 
HETATM   13  C   UNL     1     -10.752  10.156  68.346  1.00  0.00    -0.266 A  
HETATM   14  O   UNL     1      -9.616   8.039  68.564  1.00  0.00    -0.151 OA 
HETATM   15  C   UNL     1     -12.384  10.749  70.040  1.00  0.00    -0.371 A  
HETATM   16  H   UNL     1     -11.468   7.268  71.626  1.00  0.00     0.000 HD 
ENDBRANCH   6   7
ENDBRANCH   5   6
ENDBRANCH   3   5
ENDBRANCH   2   3
BRANCH   2  17
HETATM   17  C   UNL     1     -11.018  15.038  65.816  1.00  0.00    -0.351 C  
BRANCH  17  18
HETATM   18  C   UNL     1      -9.638  15.662  66.055  1.00  0.00    -0.386 C  
BRANCH  18  19
HETATM   19  C   UNL     1      -9.770  17.108  66.473  1.00  0.00    -0.299 A  
HETATM   20  C   UNL     1      -9.267  17.542  67.707  1.00  0.00    -0.253 A  
HETATM   21  C   UNL     1     -10.353  18.044  65.607  1.00  0.00    -0.055 A  
HETATM   22  C   UNL     1     -10.428  19.392  65.963  1.00  0.00    -0.596 A  
HETATM   23  H   UNL     1      -9.600  21.394  68.408  1.00  0.00     0.000 HD 
HETATM   24  C   UNL     1      -9.343  18.890  68.066  1.00  0.00    -0.349 A  
HETATM   25  C   UNL     1      -9.915  19.803  67.190  1.00  0.00    -0.409 A  
HETATM   26  O   UNL     1      -9.950  21.113  67.570  1.00  0.00    -0.235 OA 
ENDBRANCH  18  19
ENDBRANCH  17  18
ENDBRANCH   2  17
TORSDOF 7
ENDMDL
MODEL      258
REMARK 921   NORMALIZED FREE ENERGY PREDICTED BY IDOCK:   -3.99 KCAL/MOL
REMARK 922        TOTAL FREE ENERGY PREDICTED BY IDOCK:   -6.78 KCAL/MOL
REMARK 923 INTER-LIGAND FREE ENERGY PREDICTED BY IDOCK:   -5.11 KCAL/MOL
REMARK 924 INTRA-LIGAND FREE ENERGY PREDICTED BY IDOCK:   -1.67 KCAL/MOL
REMARK 927      BINDING AFFINITY PREDICTED BY RF-SCORE:    0.00 PKD
ROOT
HETATM    1  C   UNL     1      -7.875   9.271  67.279  1.00  0.00    -0.099 C  
HETATM    2  C   UNL     1      -7.715   9.517  68.784  1.00  0.00    -0.080 C  
ENDROOT
BRANCH   2   3
HETATM    3  N   UNL     1      -8.750   8.828  69.572  1.00  0.00    -0.136 NA 
HETATM    4  H   UNL     1      -8.683   9.101  70.553  1.00  0.00     0.000 HD 
BRANCH   3   5
HETATM    5  C   UNL     1     -10.127   9.009  69.089  1.00  0.00    -0.195 C  
BRANCH   5   6
HETATM    6  C   UNL     1     -10.915  10.092  69.836  1.00  0.00    -0.344 C  
BRANCH   6   7
HETATM    7  C   UNL     1     -11.221  11.290  68.971  1.00  0.00    -0.321 A  
HETATM    8  C   UNL     1     -11.861  13.469  67.353  1.00  0.00    -0.384 A  
HETATM    9  C   UNL     1     -11.740  13.634  68.731  1.00  0.00    -0.348 A  
HETATM   10  O   UNL     1     -12.201  14.531  66.565  1.00  0.00    -0.381 OA 
HETATM   11  C   UNL     1     -11.648  12.232  66.765  1.00  0.00    -0.434 A  
HETATM   12  H   UNL     1     -12.182  15.620  68.685  1.00  0.00     0.000 HD 
HETATM   13  C   UNL     1     -11.417  12.554  69.546  1.00  0.00    -0.299 A  
HETATM   14  O   UNL     1     -11.962  14.884  69.242  1.00  0.00    -0.306 OA 
HETATM   15  C   UNL     1     -11.324  11.142  67.576  1.00  0.00    -0.351 A  
HETATM   16  H   UNL     1     -12.284  14.419  65.625  1.00  0.00     0.000 HD 
ENDBRANCH   6   7
ENDBRANCH   5   6
ENDBRANCH   3   5
ENDBRANCH   2   3
BRANCH   2  17
HETATM   17  C   UNL     1      -7.765  11.033  69.058  1.00  0.00    -0.132 C  
BRANCH  17  18
HETATM   18  C   UNL     1      -6.529  11.787  68.550  1.00  0.00    -0.056 C  
BRANCH  18  19
HETATM   19  C   UNL     1      -6.898  13.185  68.112  1.00  0.00    -0.111 A  
HETATM   20  C   UNL     1      -5.987  14.240  68.254  1.00  0.00    -0.120 A  
HETATM   21  C   UNL     1      -8.140  13.433  67.509  1.00  0.00    -0.183 A  
HETATM   22  C   UNL     1      -8.465  14.711  67.051  1.00  0.00    -0.237 A  
HETATM   23  H   UNL     1      -7.181  17.707  66.843  1.00  0.00     0.000 HD 
HETATM   24  C   UNL     1      -6.312  15.520  67.798  1.00  0.00    -0.183 A  
HETATM   25  C   UNL     1      -7.543  15.743  67.195  1.00  0.00    -0.224 A  
HETATM   26  O   UNL     1      -7.811  17.002  66.745  1.00  0.00    -0.192 OA 
ENDBRANCH  18  19
ENDBRANCH  17  18
ENDBRANCH   2  17
TORSDOF 7
ENDMDL
MODEL      259
REMARK 921   NORMALIZED FREE ENERGY PREDICTED BY IDOCK:   -3.98 KCAL/MOL
REMARK 922        TOTAL FREE ENERGY PREDICTED BY IDOCK:   -6.77 KCAL/MOL
REMARK 923 INTER-LIGAND FREE ENERGY PREDICTED BY IDOCK:   -5.98 KCAL/MOL
REMARK 924 INTRA-LIGAND FREE ENERGY PREDICTED BY IDOCK:   -0.79 KCAL/MOL
REMARK 927      BINDING AFFINITY PREDICTED BY RF-SCORE:    0.00 PKD
ROOT
HETATM    1  C   UNL     1     -11.933  15.655  71.056  1.00  0.00    -0.445 C  
HETATM    2  C   UNL     1     -12.333  14.582  70.037  1.00  0.00    -0.323 C  
ENDROOT
BRANCH   2   3
HETATM    3  N   UNL     1     -12.048  13.222  70.521  1.00  0.00    -0.476 NA 
HETATM    4  H   UNL     1     -12.918  12.744  70.759  1.00  0.00     0.000 HD 
BRANCH   3   5
HETATM    5  C   UNL     1     -11.246  12.390  69.611  1.00  0.00    -0.036 C  
BRANCH   5   6
HETATM    6  C   UNL     1     -12.064  11.357  68.824  1.00  0.00    -0.256 C  
BRANCH   6   7
HETATM    7  C   UNL     1     -11.255  10.671  67.751  1.00  0.00    -0.383 A  
HETATM    8  C   UNL     1      -9.704   9.467  65.771  1.00  0.00    -0.287 A  
HETATM    9  C   UNL     1      -9.838   8.861  67.018  1.00  0.00    -0.214 A  
HETATM   10  O   UNL     1      -8.922   8.890  64.812  1.00  0.00    -0.384 OA 
HETATM   11  C   UNL     1     -10.349  10.661  65.489  1.00  0.00    -0.297 A  
HETATM   12  H   UNL     1      -8.646   7.280  66.547  1.00  0.00     0.000 HD 
HETATM   13  C   UNL     1     -10.613   9.452  68.011  1.00  0.00    -0.278 A  
HETATM   14  O   UNL     1      -9.175   7.683  67.225  1.00  0.00    -0.127 OA 
HETATM   15  C   UNL     1     -11.130  11.262  66.481  1.00  0.00    -0.280 A  
HETATM   16  H   UNL     1      -8.830   9.304  63.961  1.00  0.00     0.000 HD 
ENDBRANCH   6   7
ENDBRANCH   5   6
ENDBRANCH   3   5
ENDBRANCH   2   3
BRANCH   2  17
HETATM   17  C   UNL     1     -11.585  14.837  68.713  1.00  0.00    -0.347 C  
BRANCH  17  18
HETATM   18  C   UNL     1     -11.437  16.325  68.371  1.00  0.00    -0.243 C  
BRANCH  18  19
HETATM   19  C   UNL     1     -10.028  16.633  67.919  1.00  0.00    -0.254 A  
HETATM   20  C   UNL     1      -8.967  16.617  68.834  1.00  0.00    -0.239 A  
HETATM   21  C   UNL     1      -9.760  16.888  66.566  1.00  0.00    -0.295 A  
HETATM   22  C   UNL     1      -8.452  17.117  66.133  1.00  0.00    -0.238 A  
HETATM   23  H   UNL     1      -5.407  17.270  67.304  1.00  0.00     0.000 HD 
HETATM   24  C   UNL     1      -7.659  16.848  68.401  1.00  0.00    -0.209 A  
HETATM   25  C   UNL     1      -7.412  17.089  67.056  1.00  0.00    -0.191 A  
HETATM   26  O   UNL     1      -6.118  17.289  66.673  1.00  0.00    -0.178 OA 
ENDBRANCH  18  19
ENDBRANCH  17  18
ENDBRANCH   2  17
TORSDOF 7
ENDMDL
MODEL      260
REMARK 921   NORMALIZED FREE ENERGY PREDICTED BY IDOCK:   -3.98 KCAL/MOL
REMARK 922        TOTAL FREE ENERGY PREDICTED BY IDOCK:   -6.77 KCAL/MOL
REMARK 923 INTER-LIGAND FREE ENERGY PREDICTED BY IDOCK:   -5.21 KCAL/MOL
REMARK 924 INTRA-LIGAND FREE ENERGY PREDICTED BY IDOCK:   -1.56 KCAL/MOL
REMARK 927      BINDING AFFINITY PREDICTED BY RF-SCORE:    0.00 PKD
ROOT
HETATM    1  C   UNL     1      -5.932  17.750  66.715  1.00  0.00    -0.195 C  
HETATM    2  C   UNL     1      -7.083  16.800  67.066  1.00  0.00    -0.203 C  
ENDROOT
BRANCH   2   3
HETATM    3  N   UNL     1      -8.018  17.394  68.035  1.00  0.00    -0.217 NA 
HETATM    4  H   UNL     1      -7.640  18.270  68.396  1.00  0.00     0.000 HD 
BRANCH   3   5
HETATM    5  C   UNL     1      -9.387  17.600  67.537  1.00  0.00    -0.248 C  
BRANCH   5   6
HETATM    6  C   UNL     1     -10.482  17.170  68.522  1.00  0.00    -0.377 C  
BRANCH   6   7
HETATM    7  C   UNL     1     -10.931  15.746  68.307  1.00  0.00    -0.325 A  
HETATM    8  C   UNL     1     -11.685  13.096  67.880  1.00  0.00    -0.357 A  
HETATM    9  C   UNL     1     -11.582  13.592  69.177  1.00  0.00    -0.310 A  
HETATM   10  O   UNL     1     -12.027  11.790  67.673  1.00  0.00    -0.599 OA 
HETATM   11  C   UNL     1     -11.433  13.910  66.787  1.00  0.00    -0.369 A  
HETATM   12  H   UNL     1     -12.100  11.830  70.054  1.00  0.00     0.000 HD 
HETATM   13  C   UNL     1     -11.211  14.914  69.401  1.00  0.00    -0.302 A  
HETATM   14  O   UNL     1     -11.847  12.732  70.208  1.00  0.00    -0.307 OA 
HETATM   15  C   UNL     1     -11.059  15.239  67.002  1.00  0.00    -0.305 A  
HETATM   16  H   UNL     1     -12.097  11.451  66.788  1.00  0.00     0.000 HD 
ENDBRANCH   6   7
ENDBRANCH   5   6
ENDBRANCH   3   5
ENDBRANCH   2   3
BRANCH   2  17
HETATM   17  C   UNL     1      -6.503  15.487  67.629  1.00  0.00    -0.194 C  
BRANCH  17  18
HETATM   18  C   UNL     1      -7.423  14.801  68.647  1.00  0.00    -0.126 C  
BRANCH  18  19
HETATM   19  C   UNL     1      -7.407  13.301  68.457  1.00  0.00    -0.115 A  
HETATM   20  C   UNL     1      -6.580  12.491  69.247  1.00  0.00    -0.089 A  
HETATM   21  C   UNL     1      -8.259  12.699  67.520  1.00  0.00    -0.178 A  
HETATM   22  C   UNL     1      -8.290  11.310  67.378  1.00  0.00    -0.137 A  
HETATM   23  H   UNL     1      -6.918   8.625  68.632  1.00  0.00     0.000 HD 
HETATM   24  C   UNL     1      -6.609  11.102  69.104  1.00  0.00    -0.085 A  
HETATM   25  C   UNL     1      -7.467  10.524  68.178  1.00  0.00    -0.090 A  
HETATM   26  O   UNL     1      -7.480   9.163  68.085  1.00  0.00    -0.082 OA 
ENDBRANCH  18  19
ENDBRANCH  17  18
ENDBRANCH   2  17
TORSDOF 7
ENDMDL
MODEL      261
REMARK 921   NORMALIZED FREE ENERGY PREDICTED BY IDOCK:   -3.98 KCAL/MOL
REMARK 922        TOTAL FREE ENERGY PREDICTED BY IDOCK:   -6.77 KCAL/MOL
REMARK 923 INTER-LIGAND FREE ENERGY PREDICTED BY IDOCK:   -6.19 KCAL/MOL
REMARK 924 INTRA-LIGAND FREE ENERGY PREDICTED BY IDOCK:   -0.58 KCAL/MOL
REMARK 927      BINDING AFFINITY PREDICTED BY RF-SCORE:    0.00 PKD
ROOT
HETATM    1  C   UNL     1     -10.392  12.816  66.274  1.00  0.00    -0.271 C  
HETATM    2  C   UNL     1     -10.111  12.971  67.773  1.00  0.00    -0.229 C  
ENDROOT
BRANCH   2   3
HETATM    3  N   UNL     1      -9.877  11.676  68.432  1.00  0.00    -0.199 NA 
HETATM    4  H   UNL     1     -10.596  11.505  69.135  1.00  0.00     0.000 HD 
BRANCH   3   5
HETATM    5  C   UNL     1      -9.773  10.524  67.524  1.00  0.00    -0.166 C  
BRANCH   5   6
HETATM    6  C   UNL     1      -8.331  10.086  67.233  1.00  0.00    -0.121 C  
BRANCH   6   7
HETATM    7  C   UNL     1      -8.230   9.181  66.029  1.00  0.00    -0.115 A  
HETATM    8  C   UNL     1      -7.963   7.533  63.797  1.00  0.00    -0.082 A  
HETATM    9  C   UNL     1      -8.154   6.974  65.058  1.00  0.00    -0.119 A  
HETATM   10  O   UNL     1      -7.804   6.724  62.708  1.00  0.00    -0.100 OA 
HETATM   11  C   UNL     1      -7.921   8.908  63.629  1.00  0.00    -0.154 A  
HETATM   12  H   UNL     1      -8.092   5.054  64.384  1.00  0.00     0.000 HD 
HETATM   13  C   UNL     1      -8.293   7.788  66.178  1.00  0.00    -0.129 A  
HETATM   14  O   UNL     1      -8.187   5.609  65.149  1.00  0.00    -0.124 OA 
HETATM   15  C   UNL     1      -8.059   9.733  64.748  1.00  0.00    -0.146 A  
HETATM   16  H   UNL     1      -7.674   7.104  61.847  1.00  0.00     0.000 HD 
ENDBRANCH   6   7
ENDBRANCH   5   6
ENDBRANCH   3   5
ENDBRANCH   2   3
BRANCH   2  17
HETATM   17  C   UNL     1     -11.298  13.696  68.439  1.00  0.00    -0.329 C  
BRANCH  17  18
HETATM   18  C   UNL     1     -11.935  12.898  69.584  1.00  0.00    -0.358 C  
BRANCH  18  19
HETATM   19  C   UNL     1     -12.297  13.810  70.734  1.00  0.00    -0.451 A  
HETATM   20  C   UNL     1     -11.711  15.078  70.850  1.00  0.00    -0.376 A  
HETATM   21  C   UNL     1     -13.264  13.417  71.671  1.00  0.00    -0.449 A  
HETATM   22  C   UNL     1     -13.644  14.277  72.703  1.00  0.00    -0.601 A  
HETATM   23  H   UNL     1     -13.010  17.272  73.839  1.00  0.00     0.000 HD 
HETATM   24  C   UNL     1     -12.089  15.938  71.883  1.00  0.00    -0.578 A  
HETATM   25  C   UNL     1     -13.056  15.534  72.795  1.00  0.00    -0.480 A  
HETATM   26  O   UNL     1     -13.411  16.413  73.776  1.00  0.00    -0.614 OA 
ENDBRANCH  18  19
ENDBRANCH  17  18
ENDBRANCH   2  17
TORSDOF 7
ENDMDL
MODEL      262
REMARK 921   NORMALIZED FREE ENERGY PREDICTED BY IDOCK:   -3.97 KCAL/MOL
REMARK 922        TOTAL FREE ENERGY PREDICTED BY IDOCK:   -6.76 KCAL/MOL
REMARK 923 INTER-LIGAND FREE ENERGY PREDICTED BY IDOCK:   -5.81 KCAL/MOL
REMARK 924 INTRA-LIGAND FREE ENERGY PREDICTED BY IDOCK:   -0.96 KCAL/MOL
REMARK 927      BINDING AFFINITY PREDICTED BY RF-SCORE:    0.00 PKD
ROOT
HETATM    1  C   UNL     1      -6.821  11.370  67.466  1.00  0.00    -0.086 C  
HETATM    2  C   UNL     1      -7.430  10.013  67.838  1.00  0.00    -0.089 C  
ENDROOT
BRANCH   2   3
HETATM    3  N   UNL     1      -6.401   9.018  68.181  1.00  0.00    -0.055 NA 
HETATM    4  H   UNL     1      -5.543   9.486  68.472  1.00  0.00     0.000 HD 
BRANCH   3   5
HETATM    5  C   UNL     1      -6.804   8.026  69.190  1.00  0.00    -0.052 C  
BRANCH   5   6
HETATM    6  C   UNL     1      -7.367   8.638  70.479  1.00  0.00    -0.058 C  
BRANCH   6   7
HETATM    7  C   UNL     1      -8.798   8.236  70.737  1.00  0.00    -0.162 A  
HETATM    8  C   UNL     1     -11.464   7.572  71.208  1.00  0.00    -0.274 A  
HETATM    9  C   UNL     1     -10.843   7.168  70.030  1.00  0.00    -0.254 A  
HETATM   10  O   UNL     1     -12.779   7.271  71.425  1.00  0.00    -0.362 OA 
HETATM   11  C   UNL     1     -10.768   8.290  72.168  1.00  0.00    -0.389 A  
HETATM   12  H   UNL     1     -12.499   6.242  69.294  1.00  0.00     0.000 HD 
HETATM   13  C   UNL     1      -9.511   7.490  69.787  1.00  0.00    -0.156 A  
HETATM   14  O   UNL     1     -11.590   6.461  69.128  1.00  0.00    -0.318 OA 
HETATM   15  C   UNL     1      -9.431   8.619  71.933  1.00  0.00    -0.369 A  
HETATM   16  H   UNL     1     -13.204   7.547  72.229  1.00  0.00     0.000 HD 
ENDBRANCH   6   7
ENDBRANCH   5   6
ENDBRANCH   3   5
ENDBRANCH   2   3
BRANCH   2  17
HETATM   17  C   UNL     1      -8.285   9.502  66.661  1.00  0.00    -0.116 C  
BRANCH  17  18
HETATM   18  C   UNL     1      -8.167  10.366  65.399  1.00  0.00    -0.159 C  
BRANCH  18  19
HETATM   19  C   UNL     1      -9.474  11.065  65.105  1.00  0.00    -0.265 A  
HETATM   20  C   UNL     1      -9.967  11.135  63.795  1.00  0.00    -0.401 A  
HETATM   21  C   UNL     1     -10.235  11.609  66.150  1.00  0.00    -0.263 A  
HETATM   22  C   UNL     1     -11.471  12.207  65.892  1.00  0.00    -0.418 A  
HETATM   23  H   UNL     1     -13.479  12.851  63.399  1.00  0.00     0.000 HD 
HETATM   24  C   UNL     1     -11.201  11.734  63.536  1.00  0.00    -0.494 A  
HETATM   25  C   UNL     1     -11.945  12.259  64.586  1.00  0.00    -0.366 A  
HETATM   26  O   UNL     1     -13.155  12.816  64.291  1.00  0.00    -0.699 OA 
ENDBRANCH  18  19
ENDBRANCH  17  18
ENDBRANCH   2  17
TORSDOF 7
ENDMDL
MODEL      263
REMARK 921   NORMALIZED FREE ENERGY PREDICTED BY IDOCK:   -3.97 KCAL/MOL
REMARK 922        TOTAL FREE ENERGY PREDICTED BY IDOCK:   -6.75 KCAL/MOL
REMARK 923 INTER-LIGAND FREE ENERGY PREDICTED BY IDOCK:   -5.83 KCAL/MOL
REMARK 924 INTRA-LIGAND FREE ENERGY PREDICTED BY IDOCK:   -0.93 KCAL/MOL
REMARK 927      BINDING AFFINITY PREDICTED BY RF-SCORE:    0.00 PKD
ROOT
HETATM    1  C   UNL     1     -11.191  10.396  70.163  1.00  0.00    -0.393 C  
HETATM    2  C   UNL     1     -10.661  11.055  68.885  1.00  0.00    -0.207 C  
ENDROOT
BRANCH   2   3
HETATM    3  N   UNL     1      -9.285  11.552  69.045  1.00  0.00    -0.400 NA 
HETATM    4  H   UNL     1      -8.992  11.469  70.019  1.00  0.00     0.000 HD 
BRANCH   3   5
HETATM    5  C   UNL     1      -8.288  10.928  68.161  1.00  0.00    -0.123 C  
BRANCH   5   6
HETATM    6  C   UNL     1      -8.846  10.492  66.800  1.00  0.00    -0.139 C  
BRANCH   6   7
HETATM    7  C   UNL     1      -8.774   9.000  66.593  1.00  0.00    -0.140 A  
HETATM    8  C   UNL     1      -8.701   6.248  66.149  1.00  0.00    -0.145 A  
HETATM    9  C   UNL     1      -7.599   7.036  65.829  1.00  0.00    -0.094 A  
HETATM   10  O   UNL     1      -8.674   4.904  65.906  1.00  0.00    -0.121 OA 
HETATM   11  C   UNL     1      -9.838   6.811  66.707  1.00  0.00    -0.236 A  
HETATM   12  H   UNL     1      -6.493   5.475  65.133  1.00  0.00     0.000 HD 
HETATM   13  C   UNL     1      -7.623   8.410  66.050  1.00  0.00    -0.085 A  
HETATM   14  O   UNL     1      -6.510   6.413  65.284  1.00  0.00    -0.037 OA 
HETATM   15  C   UNL     1      -9.872   8.189  66.932  1.00  0.00    -0.316 A  
HETATM   16  H   UNL     1      -9.426   4.366  66.124  1.00  0.00     0.000 HD 
ENDBRANCH   6   7
ENDBRANCH   5   6
ENDBRANCH   3   5
ENDBRANCH   2   3
BRANCH   2  17
HETATM   17  C   UNL     1     -11.597  12.214  68.486  1.00  0.00    -0.366 C  
BRANCH  17  18
HETATM   18  C   UNL     1     -10.958  13.599  68.649  1.00  0.00    -0.290 C  
BRANCH  18  19
HETATM   19  C   UNL     1     -11.489  14.291  69.884  1.00  0.00    -0.301 A  
HETATM   20  C   UNL     1     -10.896  15.472  70.350  1.00  0.00    -0.356 A  
HETATM   21  C   UNL     1     -12.616  13.785  70.548  1.00  0.00    -0.361 A  
HETATM   22  C   UNL     1     -13.146  14.450  71.655  1.00  0.00    -0.421 A  
HETATM   23  H   UNL     1     -12.634  17.120  73.465  1.00  0.00     0.000 HD 
HETATM   24  C   UNL     1     -11.424  16.136  71.459  1.00  0.00    -0.412 A  
HETATM   25  C   UNL     1     -12.547  15.625  72.097  1.00  0.00    -0.426 A  
HETATM   26  O   UNL     1     -13.043  16.317  73.163  1.00  0.00    -0.455 OA 
ENDBRANCH  18  19
ENDBRANCH  17  18
ENDBRANCH   2  17
TORSDOF 7
ENDMDL
MODEL      264
REMARK 921   NORMALIZED FREE ENERGY PREDICTED BY IDOCK:   -3.96 KCAL/MOL
REMARK 922        TOTAL FREE ENERGY PREDICTED BY IDOCK:   -6.75 KCAL/MOL
REMARK 923 INTER-LIGAND FREE ENERGY PREDICTED BY IDOCK:   -6.19 KCAL/MOL
REMARK 924 INTRA-LIGAND FREE ENERGY PREDICTED BY IDOCK:   -0.55 KCAL/MOL
REMARK 927      BINDING AFFINITY PREDICTED BY RF-SCORE:    0.00 PKD
ROOT
HETATM    1  C   UNL     1     -10.858   9.963  70.739  1.00  0.00    -0.387 C  
HETATM    2  C   UNL     1     -10.873  10.231  69.230  1.00  0.00    -0.238 C  
ENDROOT
BRANCH   2   3
HETATM    3  N   UNL     1     -10.974   8.990  68.446  1.00  0.00    -0.462 NA 
HETATM    4  H   UNL     1     -10.734   9.169  67.471  1.00  0.00     0.000 HD 
BRANCH   3   5
HETATM    5  C   UNL     1     -10.186   7.860  68.962  1.00  0.00    -0.209 C  
BRANCH   5   6
HETATM    6  C   UNL     1     -11.021   6.618  69.300  1.00  0.00    -0.346 C  
BRANCH   6   7
HETATM    7  C   UNL     1     -10.262   5.331  69.087  1.00  0.00    -0.281 A  
HETATM    8  C   UNL     1      -8.926   2.911  68.722  1.00  0.00    -0.132 A  
HETATM    9  C   UNL     1      -9.291   3.680  67.620  1.00  0.00    -0.200 A  
HETATM   10  O   UNL     1      -8.297   1.713  68.540  1.00  0.00    -0.055 OA 
HETATM   11  C   UNL     1      -9.202   3.341  70.010  1.00  0.00    -0.221 A  
HETATM   12  H   UNL     1      -8.533   2.368  66.261  1.00  0.00     0.000 HD 
HETATM   13  C   UNL     1      -9.954   4.891  67.791  1.00  0.00    -0.186 A  
HETATM   14  O   UNL     1      -8.985   3.195  66.378  1.00  0.00    -0.137 OA 
HETATM   15  C   UNL     1      -9.868   4.556  70.192  1.00  0.00    -0.296 A  
HETATM   16  H   UNL     1      -8.048   1.188  69.292  1.00  0.00     0.000 HD 
ENDBRANCH   6   7
ENDBRANCH   5   6
ENDBRANCH   3   5
ENDBRANCH   2   3
BRANCH   2  17
HETATM   17  C   UNL     1      -9.595  10.999  68.839  1.00  0.00    -0.174 C  
BRANCH  17  18
HETATM   18  C   UNL     1      -9.403  11.134  67.322  1.00  0.00    -0.170 C  
BRANCH  18  19
HETATM   19  C   UNL     1     -10.447  12.052  66.731  1.00  0.00    -0.243 A  
HETATM   20  C   UNL     1     -11.073  11.732  65.518  1.00  0.00    -0.336 A  
HETATM   21  C   UNL     1     -10.839  13.211  67.416  1.00  0.00    -0.269 A  
HETATM   22  C   UNL     1     -11.843  14.034  66.902  1.00  0.00    -0.458 A  
HETATM   23  H   UNL     1     -13.875  14.227  64.352  1.00  0.00     0.000 HD 
HETATM   24  C   UNL     1     -12.075  12.556  65.003  1.00  0.00    -0.504 A  
HETATM   25  C   UNL     1     -12.457  13.695  65.701  1.00  0.00    -0.496 A  
HETATM   26  O   UNL     1     -13.455  14.460  65.173  1.00  0.00    -0.392 OA 
ENDBRANCH  18  19
ENDBRANCH  17  18
ENDBRANCH   2  17
TORSDOF 7
ENDMDL
MODEL      265
REMARK 921   NORMALIZED FREE ENERGY PREDICTED BY IDOCK:   -3.94 KCAL/MOL
REMARK 922        TOTAL FREE ENERGY PREDICTED BY IDOCK:   -6.71 KCAL/MOL
REMARK 923 INTER-LIGAND FREE ENERGY PREDICTED BY IDOCK:   -4.18 KCAL/MOL
REMARK 924 INTRA-LIGAND FREE ENERGY PREDICTED BY IDOCK:   -2.53 KCAL/MOL
REMARK 927      BINDING AFFINITY PREDICTED BY RF-SCORE:    0.00 PKD
ROOT
HETATM    1  C   UNL     1     -12.009   6.023  72.239  1.00  0.00    -0.259 C  
HETATM    2  C   UNL     1     -10.588   6.482  72.586  1.00  0.00    -0.221 C  
ENDROOT
BRANCH   2   3
HETATM    3  N   UNL     1     -10.384   7.913  72.309  1.00  0.00    -0.232 NA 
HETATM    4  H   UNL     1      -9.505   8.052  71.810  1.00  0.00     0.000 HD 
BRANCH   3   5
HETATM    5  C   UNL     1     -11.484   8.573  71.591  1.00  0.00    -0.298 C  
BRANCH   5   6
HETATM    6  C   UNL     1     -11.098   9.913  70.951  1.00  0.00    -0.418 C  
BRANCH   6   7
HETATM    7  C   UNL     1     -10.255   9.744  69.711  1.00  0.00    -0.271 A  
HETATM    8  C   UNL     1      -8.736   9.499  67.386  1.00  0.00    -0.125 A  
HETATM    9  C   UNL     1      -8.122   9.841  68.588  1.00  0.00    -0.105 A  
HETATM   10  O   UNL     1      -7.995   9.406  66.243  1.00  0.00    -0.109 OA 
HETATM   11  C   UNL     1     -10.100   9.258  67.329  1.00  0.00    -0.291 A  
HETATM   12  H   UNL     1      -6.261   9.979  67.775  1.00  0.00     0.000 HD 
HETATM   13  C   UNL     1      -8.870   9.962  69.755  1.00  0.00    -0.229 A  
HETATM   14  O   UNL     1      -6.772  10.062  68.571  1.00  0.00    -0.054 OA 
HETATM   15  C   UNL     1     -10.860   9.378  68.495  1.00  0.00    -0.149 A  
HETATM   16  H   UNL     1      -8.413   9.173  65.422  1.00  0.00     0.000 HD 
ENDBRANCH   6   7
ENDBRANCH   5   6
ENDBRANCH   3   5
ENDBRANCH   2   3
BRANCH   2  17
HETATM   17  C   UNL     1      -9.574   5.640  71.787  1.00  0.00    -0.184 C  
BRANCH  17  18
HETATM   18  C   UNL     1      -8.631   6.482  70.918  1.00  0.00    -0.135 C  
BRANCH  18  19
HETATM   19  C   UNL     1      -8.844   6.182  69.452  1.00  0.00    -0.126 A  
HETATM   20  C   UNL     1      -7.762   6.174  68.562  1.00  0.00    -0.100 A  
HETATM   21  C   UNL     1     -10.123   5.859  68.976  1.00  0.00    -0.237 A  
HETATM   22  C   UNL     1     -10.318   5.526  67.634  1.00  0.00    -0.256 A  
HETATM   23  H   UNL     1      -8.627   5.172  64.863  1.00  0.00     0.000 HD 
HETATM   24  C   UNL     1      -7.957   5.844  67.219  1.00  0.00    -0.102 A  
HETATM   25  C   UNL     1      -9.229   5.516  66.768  1.00  0.00    -0.129 A  
HETATM   26  O   UNL     1      -9.371   5.179  65.454  1.00  0.00    -0.150 OA 
ENDBRANCH  18  19
ENDBRANCH  17  18
ENDBRANCH   2  17
TORSDOF 7
ENDMDL
MODEL      266
REMARK 921   NORMALIZED FREE ENERGY PREDICTED BY IDOCK:   -3.91 KCAL/MOL
REMARK 922        TOTAL FREE ENERGY PREDICTED BY IDOCK:   -6.67 KCAL/MOL
REMARK 923 INTER-LIGAND FREE ENERGY PREDICTED BY IDOCK:   -4.92 KCAL/MOL
REMARK 924 INTRA-LIGAND FREE ENERGY PREDICTED BY IDOCK:   -1.75 KCAL/MOL
REMARK 927      BINDING AFFINITY PREDICTED BY RF-SCORE:    0.00 PKD
ROOT
HETATM    1  C   UNL     1      -9.956   4.288  67.204  1.00  0.00    -0.152 C  
HETATM    2  C   UNL     1     -10.429   5.462  66.339  1.00  0.00    -0.267 C  
ENDROOT
BRANCH   2   3
HETATM    3  N   UNL     1      -9.346   6.010  65.506  1.00  0.00    -0.367 NA 
HETATM    4  H   UNL     1      -9.697   6.230  64.574  1.00  0.00     0.000 HD 
BRANCH   3   5
HETATM    5  C   UNL     1      -8.650   7.175  66.073  1.00  0.00    -0.152 C  
BRANCH   5   6
HETATM    6  C   UNL     1      -8.637   8.404  65.155  1.00  0.00    -0.159 C  
BRANCH   6   7
HETATM    7  C   UNL     1      -8.948   9.683  65.891  1.00  0.00    -0.203 A  
HETATM    8  C   UNL     1      -9.549  12.002  67.319  1.00  0.00    -0.183 A  
HETATM    9  C   UNL     1      -8.226  11.696  67.008  1.00  0.00    -0.170 A  
HETATM   10  O   UNL     1      -9.839  13.123  68.042  1.00  0.00    -0.217 OA 
HETATM   11  C   UNL     1     -10.583  11.174  66.911  1.00  0.00    -0.304 A  
HETATM   12  H   UNL     1      -7.469  13.345  67.930  1.00  0.00     0.000 HD 
HETATM   13  C   UNL     1      -7.916  10.544  66.293  1.00  0.00    -0.144 A  
HETATM   14  O   UNL     1      -7.257  12.559  67.441  1.00  0.00    -0.138 OA 
HETATM   15  C   UNL     1     -10.281  10.014  66.192  1.00  0.00    -0.283 A  
HETATM   16  H   UNL     1     -10.742  13.332  68.254  1.00  0.00     0.000 HD 
ENDBRANCH   6   7
ENDBRANCH   5   6
ENDBRANCH   3   5
ENDBRANCH   2   3
BRANCH   2  17
HETATM   17  C   UNL     1     -11.002   6.565  67.251  1.00  0.00    -0.475 C  
BRANCH  17  18
HETATM   18  C   UNL     1     -10.806   6.285  68.747  1.00  0.00    -0.398 C  
BRANCH  18  19
HETATM   19  C   UNL     1      -9.786   7.230  69.338  1.00  0.00    -0.161 A  
HETATM   20  C   UNL     1     -10.111   8.572  69.576  1.00  0.00    -0.200 A  
HETATM   21  C   UNL     1      -8.516   6.761  69.704  1.00  0.00    -0.133 A  
HETATM   22  C   UNL     1      -7.588   7.615  70.303  1.00  0.00    -0.089 A  
HETATM   23  H   UNL     1      -7.302  10.713  71.298  1.00  0.00     0.000 HD 
HETATM   24  C   UNL     1      -9.184   9.428  70.173  1.00  0.00    -0.268 A  
HETATM   25  C   UNL     1      -7.934   8.942  70.537  1.00  0.00    -0.126 A  
HETATM   26  O   UNL     1      -7.066   9.806  71.137  1.00  0.00    -0.332 OA 
ENDBRANCH  18  19
ENDBRANCH  17  18
ENDBRANCH   2  17
TORSDOF 7
ENDMDL
MODEL      267
REMARK 921   NORMALIZED FREE ENERGY PREDICTED BY IDOCK:   -3.89 KCAL/MOL
REMARK 922        TOTAL FREE ENERGY PREDICTED BY IDOCK:   -6.65 KCAL/MOL
REMARK 923 INTER-LIGAND FREE ENERGY PREDICTED BY IDOCK:   -5.74 KCAL/MOL
REMARK 924 INTRA-LIGAND FREE ENERGY PREDICTED BY IDOCK:   -0.91 KCAL/MOL
REMARK 927      BINDING AFFINITY PREDICTED BY RF-SCORE:    0.00 PKD
ROOT
HETATM    1  C   UNL     1      -8.145   5.517  67.584  1.00  0.00    -0.101 C  
HETATM    2  C   UNL     1      -9.423   6.156  67.028  1.00  0.00    -0.129 C  
ENDROOT
BRANCH   2   3
HETATM    3  N   UNL     1      -9.134   7.201  66.034  1.00  0.00    -0.322 NA 
HETATM    4  H   UNL     1      -9.676   7.038  65.185  1.00  0.00     0.000 HD 
BRANCH   3   5
HETATM    5  C   UNL     1      -9.331   8.581  66.503  1.00  0.00    -0.203 C  
BRANCH   5   6
HETATM    6  C   UNL     1     -10.016   9.498  65.480  1.00  0.00    -0.209 C  
BRANCH   6   7
HETATM    7  C   UNL     1     -10.589  10.744  66.109  1.00  0.00    -0.241 A  
HETATM    8  C   UNL     1     -11.722  13.030  67.233  1.00  0.00    -0.375 A  
HETATM    9  C   UNL     1     -11.362  11.959  68.045  1.00  0.00    -0.288 A  
HETATM   10  O   UNL     1     -12.303  14.138  67.781  1.00  0.00    -0.565 OA 
HETATM   11  C   UNL     1     -11.509  12.986  65.864  1.00  0.00    -0.374 A  
HETATM   12  H   UNL     1     -11.989  12.853  69.763  1.00  0.00     0.000 HD 
HETATM   13  C   UNL     1     -10.792  10.814  67.495  1.00  0.00    -0.342 A  
HETATM   14  O   UNL     1     -11.600  12.072  69.388  1.00  0.00    -0.288 OA 
HETATM   15  C   UNL     1     -10.938  11.841  65.302  1.00  0.00    -0.350 A  
HETATM   16  H   UNL     1     -12.549  14.870  67.227  1.00  0.00     0.000 HD 
ENDBRANCH   6   7
ENDBRANCH   5   6
ENDBRANCH   3   5
ENDBRANCH   2   3
BRANCH   2  17
HETATM   17  C   UNL     1     -10.242   6.748  68.193  1.00  0.00    -0.198 C  
BRANCH  17  18
HETATM   18  C   UNL     1     -10.460   5.764  69.349  1.00  0.00    -0.360 C  
BRANCH  18  19
HETATM   19  C   UNL     1      -9.913   6.327  70.641  1.00  0.00    -0.221 A  
HETATM   20  C   UNL     1      -9.055   7.435  70.628  1.00  0.00    -0.156 A  
HETATM   21  C   UNL     1     -10.300   5.777  71.872  1.00  0.00    -0.263 A  
HETATM   22  C   UNL     1      -9.843   6.328  73.070  1.00  0.00    -0.175 A  
HETATM   23  H   UNL     1      -7.967   8.769  74.160  1.00  0.00     0.000 HD 
HETATM   24  C   UNL     1      -8.596   7.985  71.827  1.00  0.00    -0.171 A  
HETATM   25  C   UNL     1      -8.998   7.433  73.036  1.00  0.00    -0.147 A  
HETATM   26  O   UNL     1      -8.544   8.014  74.184  1.00  0.00    -0.263 OA 
ENDBRANCH  18  19
ENDBRANCH  17  18
ENDBRANCH   2  17
TORSDOF 7
ENDMDL
MODEL      268
REMARK 921   NORMALIZED FREE ENERGY PREDICTED BY IDOCK:   -3.88 KCAL/MOL
REMARK 922        TOTAL FREE ENERGY PREDICTED BY IDOCK:   -6.63 KCAL/MOL
REMARK 923 INTER-LIGAND FREE ENERGY PREDICTED BY IDOCK:   -6.05 KCAL/MOL
REMARK 924 INTRA-LIGAND FREE ENERGY PREDICTED BY IDOCK:   -0.58 KCAL/MOL
REMARK 927      BINDING AFFINITY PREDICTED BY RF-SCORE:    0.00 PKD
ROOT
HETATM    1  C   UNL     1      -9.285  13.039  68.083  1.00  0.00    -0.212 C  
HETATM    2  C   UNL     1     -10.441  13.957  68.495  1.00  0.00    -0.250 C  
ENDROOT
BRANCH   2   3
HETATM    3  N   UNL     1     -10.075  14.847  69.608  1.00  0.00    -0.416 NA 
HETATM    4  H   UNL     1      -9.555  14.329  70.317  1.00  0.00     0.000 HD 
BRANCH   3   5
HETATM    5  C   UNL     1      -9.333  16.058  69.222  1.00  0.00    -0.244 C  
BRANCH   5   6
HETATM    6  C   UNL     1      -7.815  15.951  69.421  1.00  0.00    -0.191 C  
BRANCH   6   7
HETATM    7  C   UNL     1      -7.085  17.202  68.998  1.00  0.00    -0.232 A  
HETATM    8  C   UNL     1      -5.809  19.548  68.197  1.00  0.00    -0.211 A  
HETATM    9  C   UNL     1      -5.797  19.170  69.536  1.00  0.00    -0.245 A  
HETATM   10  O   UNL     1      -5.208  20.712  67.810  1.00  0.00    -0.179 OA 
HETATM   11  C   UNL     1      -6.436  18.762  67.243  1.00  0.00    -0.195 A  
HETATM   12  H   UNL     1      -4.728  20.792  70.143  1.00  0.00     0.000 HD 
HETATM   13  C   UNL     1      -6.426  17.998  69.946  1.00  0.00     0.039 A  
HETATM   14  O   UNL     1      -5.157  19.993  70.423  1.00  0.00    -0.190 OA 
HETATM   15  C   UNL     1      -7.072  17.584  67.645  1.00  0.00    -0.180 A  
HETATM   16  H   UNL     1      -5.216  20.970  66.895  1.00  0.00     0.000 HD 
ENDBRANCH   6   7
ENDBRANCH   5   6
ENDBRANCH   3   5
ENDBRANCH   2   3
BRANCH   2  17
HETATM   17  C   UNL     1     -11.658  13.095  68.888  1.00  0.00    -0.354 C  
BRANCH  17  18
HETATM   18  C   UNL     1     -11.843  12.954  70.405  1.00  0.00    -0.239 C  
BRANCH  18  19
HETATM   19  C   UNL     1     -12.042  11.506  70.787  1.00  0.00    -0.410 A  
HETATM   20  C   UNL     1     -11.291  10.496  70.170  1.00  0.00    -0.400 A  
HETATM   21  C   UNL     1     -12.947  11.160  71.801  1.00  0.00    -0.526 A  
HETATM   22  C   UNL     1     -13.096   9.830  72.198  1.00  0.00    -0.513 A  
HETATM   23  H   UNL     1     -11.913   6.861  71.524  1.00  0.00     0.000 HD 
HETATM   24  C   UNL     1     -11.440   9.165  70.565  1.00  0.00    -0.271 A  
HETATM   25  C   UNL     1     -12.334   8.844  71.578  1.00  0.00    -0.324 A  
HETATM   26  O   UNL     1     -12.434   7.534  71.947  1.00  0.00    -0.306 OA 
ENDBRANCH  18  19
ENDBRANCH  17  18
ENDBRANCH   2  17
TORSDOF 7
ENDMDL
MODEL      269
REMARK 921   NORMALIZED FREE ENERGY PREDICTED BY IDOCK:   -3.85 KCAL/MOL
REMARK 922        TOTAL FREE ENERGY PREDICTED BY IDOCK:   -6.59 KCAL/MOL
REMARK 923 INTER-LIGAND FREE ENERGY PREDICTED BY IDOCK:   -5.79 KCAL/MOL
REMARK 924 INTRA-LIGAND FREE ENERGY PREDICTED BY IDOCK:   -0.79 KCAL/MOL
REMARK 927      BINDING AFFINITY PREDICTED BY RF-SCORE:    0.00 PKD
ROOT
HETATM    1  C   UNL     1      -6.832  11.173  66.456  1.00  0.00    -0.126 C  
HETATM    2  C   UNL     1      -8.234  10.664  66.099  1.00  0.00    -0.156 C  
ENDROOT
BRANCH   2   3
HETATM    3  N   UNL     1      -9.136  11.755  65.700  1.00  0.00    -0.403 NA 
HETATM    4  H   UNL     1      -8.675  12.363  65.023  1.00  0.00     0.000 HD 
BRANCH   3   5
HETATM    5  C   UNL     1     -10.446  11.326  65.186  1.00  0.00    -0.291 C  
BRANCH   5   6
HETATM    6  C   UNL     1     -11.575  12.336  65.430  1.00  0.00    -0.412 C  
BRANCH   6   7
HETATM    7  C   UNL     1     -11.685  12.747  66.877  1.00  0.00    -0.447 A  
HETATM    8  C   UNL     1     -11.809  13.477  69.565  1.00  0.00    -0.334 A  
HETATM    9  C   UNL     1     -11.794  14.457  68.576  1.00  0.00    -0.334 A  
HETATM   10  O   UNL     1     -11.842  13.836  70.883  1.00  0.00    -0.497 OA 
HETATM   11  C   UNL     1     -11.781  12.132  69.232  1.00  0.00    -0.386 A  
HETATM   12  H   UNL     1     -11.865  16.005  69.895  1.00  0.00     0.000 HD 
HETATM   13  C   UNL     1     -11.737  14.103  67.232  1.00  0.00    -0.421 A  
HETATM   14  O   UNL     1     -11.826  15.764  68.978  1.00  0.00    -0.391 OA 
HETATM   15  C   UNL     1     -11.723  11.767  67.885  1.00  0.00    -0.347 A  
HETATM   16  H   UNL     1     -11.852  13.168  71.558  1.00  0.00     0.000 HD 
ENDBRANCH   6   7
ENDBRANCH   5   6
ENDBRANCH   3   5
ENDBRANCH   2   3
BRANCH   2  17
HETATM   17  C   UNL     1      -8.822   9.909  67.308  1.00  0.00    -0.138 C  
BRANCH  17  18
HETATM   18  C   UNL     1      -7.849   8.899  67.930  1.00  0.00    -0.102 C  
BRANCH  18  19
HETATM   19  C   UNL     1      -8.362   7.487  67.759  1.00  0.00    -0.119 A  
HETATM   20  C   UNL     1      -9.374   7.204  66.831  1.00  0.00    -0.189 A  
HETATM   21  C   UNL     1      -7.794   6.435  68.492  1.00  0.00    -0.105 A  
HETATM   22  C   UNL     1      -8.225   5.121  68.298  1.00  0.00    -0.093 A  
HETATM   23  H   UNL     1     -10.345   3.412  66.495  1.00  0.00     0.000 HD 
HETATM   24  C   UNL     1      -9.806   5.891  66.638  1.00  0.00    -0.197 A  
HETATM   25  C   UNL     1      -9.225   4.861  67.367  1.00  0.00    -0.125 A  
HETATM   26  O   UNL     1      -9.662   3.590  67.132  1.00  0.00    -0.181 OA 
ENDBRANCH  18  19
ENDBRANCH  17  18
ENDBRANCH   2  17
TORSDOF 7
ENDMDL
MODEL      270
REMARK 921   NORMALIZED FREE ENERGY PREDICTED BY IDOCK:   -3.84 KCAL/MOL
REMARK 922        TOTAL FREE ENERGY PREDICTED BY IDOCK:   -6.58 KCAL/MOL
REMARK 923 INTER-LIGAND FREE ENERGY PREDICTED BY IDOCK:   -5.65 KCAL/MOL
REMARK 924 INTRA-LIGAND FREE ENERGY PREDICTED BY IDOCK:   -0.93 KCAL/MOL
REMARK 927      BINDING AFFINITY PREDICTED BY RF-SCORE:    0.00 PKD
ROOT
HETATM    1  C   UNL     1     -11.123  10.332  70.191  1.00  0.00    -0.385 C  
HETATM    2  C   UNL     1     -10.784  10.923  68.818  1.00  0.00    -0.207 C  
ENDROOT
BRANCH   2   3
HETATM    3  N   UNL     1      -9.384  11.370  68.735  1.00  0.00    -0.343 NA 
HETATM    4  H   UNL     1      -9.220  12.135  69.388  1.00  0.00     0.000 HD 
BRANCH   3   5
HETATM    5  C   UNL     1      -8.379  10.313  68.930  1.00  0.00    -0.136 C  
BRANCH   5   6
HETATM    6  C   UNL     1      -8.244   9.352  67.741  1.00  0.00    -0.114 C  
BRANCH   6   7
HETATM    7  C   UNL     1      -8.339   7.903  68.152  1.00  0.00    -0.124 A  
HETATM    8  C   UNL     1      -8.476   5.245  68.983  1.00  0.00    -0.095 A  
HETATM    9  C   UNL     1      -9.641   5.995  68.848  1.00  0.00    -0.126 A  
HETATM   10  O   UNL     1      -8.542   3.952  69.417  1.00  0.00    -0.070 OA 
HETATM   11  C   UNL     1      -7.238   5.798  68.692  1.00  0.00    -0.082 A  
HETATM   12  H   UNL     1     -10.866   4.480  69.437  1.00  0.00     0.000 HD 
HETATM   13  C   UNL     1      -9.584   7.321  68.429  1.00  0.00    -0.139 A  
HETATM   14  O   UNL     1     -10.827   5.385  69.151  1.00  0.00    -0.193 OA 
HETATM   15  C   UNL     1      -7.171   7.129  68.272  1.00  0.00    -0.091 A  
HETATM   16  H   UNL     1      -7.746   3.440  69.510  1.00  0.00     0.000 HD 
ENDBRANCH   6   7
ENDBRANCH   5   6
ENDBRANCH   3   5
ENDBRANCH   2   3
BRANCH   2  17
HETATM   17  C   UNL     1     -11.732  12.103  68.526  1.00  0.00    -0.382 C  
BRANCH  17  18
HETATM   18  C   UNL     1     -11.100  13.475  68.793  1.00  0.00    -0.298 C  
BRANCH  18  19
HETATM   19  C   UNL     1     -11.698  14.108  70.028  1.00  0.00    -0.358 A  
HETATM   20  C   UNL     1     -11.087  15.218  70.628  1.00  0.00    -0.341 A  
HETATM   21  C   UNL     1     -12.902  13.623  70.559  1.00  0.00    -0.167 A  
HETATM   22  C   UNL     1     -13.489  14.238  71.667  1.00  0.00    -0.456 A  
HETATM   23  H   UNL     1     -12.996  16.741  73.705  1.00  0.00     0.000 HD 
HETATM   24  C   UNL     1     -11.672  15.833  71.736  1.00  0.00    -0.562 A  
HETATM   25  C   UNL     1     -12.870  15.343  72.242  1.00  0.00    -0.380 A  
HETATM   26  O   UNL     1     -13.419  15.986  73.313  1.00  0.00    -0.598 OA 
ENDBRANCH  18  19
ENDBRANCH  17  18
ENDBRANCH   2  17
TORSDOF 7
ENDMDL
MODEL      271
REMARK 921   NORMALIZED FREE ENERGY PREDICTED BY IDOCK:   -3.84 KCAL/MOL
REMARK 922        TOTAL FREE ENERGY PREDICTED BY IDOCK:   -6.57 KCAL/MOL
REMARK 923 INTER-LIGAND FREE ENERGY PREDICTED BY IDOCK:   -6.25 KCAL/MOL
REMARK 924 INTRA-LIGAND FREE ENERGY PREDICTED BY IDOCK:   -0.32 KCAL/MOL
REMARK 927      BINDING AFFINITY PREDICTED BY RF-SCORE:    0.00 PKD
ROOT
HETATM    1  C   UNL     1     -10.235  11.185  66.902  1.00  0.00    -0.260 C  
HETATM    2  C   UNL     1     -11.277  10.558  67.834  1.00  0.00    -0.289 C  
ENDROOT
BRANCH   2   3
HETATM    3  N   UNL     1     -11.847  11.539  68.770  1.00  0.00    -0.379 NA 
HETATM    4  H   UNL     1     -11.426  11.431  69.693  1.00  0.00     0.000 HD 
BRANCH   3   5
HETATM    5  C   UNL     1     -11.760  12.942  68.335  1.00  0.00    -0.345 C  
BRANCH   5   6
HETATM    6  C   UNL     1     -10.943  13.838  69.275  1.00  0.00    -0.205 C  
BRANCH   6   7
HETATM    7  C   UNL     1     -11.762  14.373  70.425  1.00  0.00    -0.346 A  
HETATM    8  C   UNL     1     -13.257  15.291  72.591  1.00  0.00    -0.455 A  
HETATM    9  C   UNL     1     -12.067  15.926  72.246  1.00  0.00    -0.503 A  
HETATM   10  O   UNL     1     -13.974  15.724  73.670  1.00  0.00    -0.543 OA 
HETATM   11  C   UNL     1     -13.724  14.212  71.858  1.00  0.00    -0.525 A  
HETATM   12  H   UNL     1     -12.180  17.291  73.751  1.00  0.00     0.000 HD 
HETATM   13  C   UNL     1     -11.315  15.479  71.164  1.00  0.00    -0.442 A  
HETATM   14  O   UNL     1     -11.667  16.986  73.013  1.00  0.00    -0.228 OA 
HETATM   15  C   UNL     1     -12.976  13.755  70.770  1.00  0.00    -0.238 A  
HETATM   16  H   UNL     1     -14.786  15.291  73.906  1.00  0.00     0.000 HD 
ENDBRANCH   6   7
ENDBRANCH   5   6
ENDBRANCH   3   5
ENDBRANCH   2   3
BRANCH   2  17
HETATM   17  C   UNL     1     -10.625   9.400  68.617  1.00  0.00    -0.230 C  
BRANCH  17  18
HETATM   18  C   UNL     1      -9.339   8.871  67.968  1.00  0.00    -0.153 C  
BRANCH  18  19
HETATM   19  C   UNL     1      -9.321   7.360  67.970  1.00  0.00    -0.136 A  
HETATM   20  C   UNL     1      -9.500   6.647  69.164  1.00  0.00    -0.136 A  
HETATM   21  C   UNL     1      -9.176   6.653  66.768  1.00  0.00    -0.168 A  
HETATM   22  C   UNL     1      -9.215   5.257  66.756  1.00  0.00    -0.126 A  
HETATM   23  H   UNL     1      -9.593   2.737  68.798  1.00  0.00     0.000 HD 
HETATM   24  C   UNL     1      -9.537   5.251  69.153  1.00  0.00    -0.201 A  
HETATM   25  C   UNL     1      -9.402   4.569  67.951  1.00  0.00    -0.140 A  
HETATM   26  O   UNL     1      -9.465   3.207  67.982  1.00  0.00    -0.200 OA 
ENDBRANCH  18  19
ENDBRANCH  17  18
ENDBRANCH   2  17
TORSDOF 7
ENDMDL
MODEL      272
REMARK 921   NORMALIZED FREE ENERGY PREDICTED BY IDOCK:   -3.84 KCAL/MOL
REMARK 922        TOTAL FREE ENERGY PREDICTED BY IDOCK:   -6.57 KCAL/MOL
REMARK 923 INTER-LIGAND FREE ENERGY PREDICTED BY IDOCK:   -5.99 KCAL/MOL
REMARK 924 INTRA-LIGAND FREE ENERGY PREDICTED BY IDOCK:   -0.58 KCAL/MOL
REMARK 927      BINDING AFFINITY PREDICTED BY RF-SCORE:    0.00 PKD
ROOT
HETATM    1  C   UNL     1      -8.891  15.691  69.524  1.00  0.00    -0.213 C  
HETATM    2  C   UNL     1      -9.961  14.928  68.736  1.00  0.00    -0.228 C  
ENDROOT
BRANCH   2   3
HETATM    3  N   UNL     1     -10.342  13.668  69.393  1.00  0.00    -0.408 NA 
HETATM    4  H   UNL     1     -10.049  13.678  70.370  1.00  0.00     0.000 HD 
BRANCH   3   5
HETATM    5  C   UNL     1     -11.768  13.318  69.295  1.00  0.00    -0.326 C  
BRANCH   5   6
HETATM    6  C   UNL     1     -12.029  11.902  68.766  1.00  0.00    -0.307 C  
BRANCH   6   7
HETATM    7  C   UNL     1     -11.967  10.855  69.851  1.00  0.00    -0.430 A  
HETATM    8  C   UNL     1     -11.800   8.972  71.900  1.00  0.00    -0.376 A  
HETATM    9  C   UNL     1     -13.001   9.633  71.656  1.00  0.00    -0.407 A  
HETATM   10  O   UNL     1     -11.712   8.070  72.922  1.00  0.00    -0.557 OA 
HETATM   11  C   UNL     1     -10.680   9.224  71.124  1.00  0.00    -0.403 A  
HETATM   12  H   UNL     1     -14.001   8.692  73.159  1.00  0.00     0.000 HD 
HETATM   13  C   UNL     1     -13.096  10.571  70.633  1.00  0.00    -0.278 A  
HETATM   14  O   UNL     1     -14.066   9.333  72.461  1.00  0.00    -0.440 OA 
HETATM   15  C   UNL     1     -10.766  10.165  70.094  1.00  0.00    -0.355 A  
HETATM   16  H   UNL     1     -10.893   7.619  73.090  1.00  0.00     0.000 HD 
ENDBRANCH   6   7
ENDBRANCH   5   6
ENDBRANCH   3   5
ENDBRANCH   2   3
BRANCH   2  17
HETATM   17  C   UNL     1      -9.439  14.645  67.314  1.00  0.00    -0.221 C  
BRANCH  17  18
HETATM   18  C   UNL     1      -9.765  13.232  66.813  1.00  0.00    -0.258 C  
BRANCH  18  19
HETATM   19  C   UNL     1      -8.540  12.348  66.869  1.00  0.00    -0.171 A  
HETATM   20  C   UNL     1      -8.620  10.996  66.510  1.00  0.00    -0.165 A  
HETATM   21  C   UNL     1      -7.297  12.886  67.232  1.00  0.00    -0.077 A  
HETATM   22  C   UNL     1      -6.151  12.088  67.232  1.00  0.00    -0.147 A  
HETATM   23  H   UNL     1      -5.222   9.025  66.581  1.00  0.00     0.000 HD 
HETATM   24  C   UNL     1      -7.475  10.197  66.511  1.00  0.00    -0.109 A  
HETATM   25  C   UNL     1      -6.251  10.750  66.865  1.00  0.00    -0.076 A  
HETATM   26  O   UNL     1      -5.154   9.939  66.832  1.00  0.00    -0.039 OA 
ENDBRANCH  18  19
ENDBRANCH  17  18
ENDBRANCH   2  17
TORSDOF 7
ENDMDL
MODEL      273
REMARK 921   NORMALIZED FREE ENERGY PREDICTED BY IDOCK:   -3.82 KCAL/MOL
REMARK 922        TOTAL FREE ENERGY PREDICTED BY IDOCK:   -6.55 KCAL/MOL
REMARK 923 INTER-LIGAND FREE ENERGY PREDICTED BY IDOCK:   -5.04 KCAL/MOL
REMARK 924 INTRA-LIGAND FREE ENERGY PREDICTED BY IDOCK:   -1.51 KCAL/MOL
REMARK 927      BINDING AFFINITY PREDICTED BY RF-SCORE:    0.00 PKD
ROOT
HETATM    1  C   UNL     1     -11.330  14.322  65.123  1.00  0.00    -0.345 C  
HETATM    2  C   UNL     1     -12.290  13.168  65.433  1.00  0.00    -0.481 C  
ENDROOT
BRANCH   2   3
HETATM    3  N   UNL     1     -12.264  12.791  66.855  1.00  0.00    -0.439 NA 
HETATM    4  H   UNL     1     -11.538  12.093  67.020  1.00  0.00     0.000 HD 
BRANCH   3   5
HETATM    5  C   UNL     1     -12.113  13.911  67.796  1.00  0.00    -0.293 C  
BRANCH   5   6
HETATM    6  C   UNL     1     -11.201  13.605  68.992  1.00  0.00    -0.316 C  
BRANCH   6   7
HETATM    7  C   UNL     1     -10.243  12.472  68.717  1.00  0.00    -0.101 A  
HETATM    8  C   UNL     1      -8.416  10.416  68.262  1.00  0.00    -0.123 A  
HETATM    9  C   UNL     1      -9.599  10.159  68.949  1.00  0.00    -0.184 A  
HETATM   10  O   UNL     1      -7.509   9.415  68.063  1.00  0.00    -0.079 OA 
HETATM   11  C   UNL     1      -8.136  11.686  67.780  1.00  0.00    -0.139 A  
HETATM   12  H   UNL     1      -9.181   8.188  69.237  1.00  0.00     0.000 HD 
HETATM   13  C   UNL     1     -10.520  11.177  69.178  1.00  0.00    -0.211 A  
HETATM   14  O   UNL     1      -9.809   8.882  69.394  1.00  0.00    -0.175 OA 
HETATM   15  C   UNL     1      -9.054  12.714  68.006  1.00  0.00    -0.207 A  
HETATM   16  H   UNL     1      -6.701   9.590  67.595  1.00  0.00     0.000 HD 
ENDBRANCH   6   7
ENDBRANCH   5   6
ENDBRANCH   3   5
ENDBRANCH   2   3
BRANCH   2  17
HETATM   17  C   UNL     1     -11.923  11.953  64.558  1.00  0.00    -0.281 C  
BRANCH  17  18
HETATM   18  C   UNL     1     -10.559  12.087  63.869  1.00  0.00    -0.447 C  
BRANCH  18  19
HETATM   19  C   UNL     1      -9.778  10.797  63.976  1.00  0.00    -0.367 A  
HETATM   20  C   UNL     1      -8.772  10.494  63.048  1.00  0.00    -0.207 A  
HETATM   21  C   UNL     1     -10.016   9.912  65.038  1.00  0.00    -0.236 A  
HETATM   22  C   UNL     1      -9.259   8.747  65.174  1.00  0.00    -0.029 A  
HETATM   23  H   UNL     1      -6.802   7.162  63.719  1.00  0.00     0.000 HD 
HETATM   24  C   UNL     1      -8.016   9.328  63.183  1.00  0.00    -0.147 A  
HETATM   25  C   UNL     1      -8.260   8.469  64.246  1.00  0.00    -0.145 A  
HETATM   26  O   UNL     1      -7.485   7.351  64.353  1.00  0.00    -0.085 OA 
ENDBRANCH  18  19
ENDBRANCH  17  18
ENDBRANCH   2  17
TORSDOF 7
ENDMDL
MODEL      274
REMARK 921   NORMALIZED FREE ENERGY PREDICTED BY IDOCK:   -3.82 KCAL/MOL
REMARK 922        TOTAL FREE ENERGY PREDICTED BY IDOCK:   -6.55 KCAL/MOL
REMARK 923 INTER-LIGAND FREE ENERGY PREDICTED BY IDOCK:   -5.78 KCAL/MOL
REMARK 924 INTRA-LIGAND FREE ENERGY PREDICTED BY IDOCK:   -0.77 KCAL/MOL
REMARK 927      BINDING AFFINITY PREDICTED BY RF-SCORE:    0.00 PKD
ROOT
HETATM    1  C   UNL     1      -6.846  10.988  66.486  1.00  0.00    -0.132 C  
HETATM    2  C   UNL     1      -8.302  11.285  66.865  1.00  0.00    -0.155 C  
ENDROOT
BRANCH   2   3
HETATM    3  N   UNL     1      -9.251  10.781  65.861  1.00  0.00    -0.182 NA 
HETATM    4  H   UNL     1     -10.068  11.390  65.813  1.00  0.00     0.000 HD 
BRANCH   3   5
HETATM    5  C   UNL     1      -8.690  10.581  64.516  1.00  0.00    -0.180 C  
BRANCH   5   6
HETATM    6  C   UNL     1      -9.526  11.203  63.390  1.00  0.00    -0.321 C  
BRANCH   6   7
HETATM    7  C   UNL     1     -10.622  12.102  63.909  1.00  0.00    -0.457 A  
HETATM    8  C   UNL     1     -12.654  13.712  64.935  1.00  0.00    -0.336 A  
HETATM    9  C   UNL     1     -11.353  14.201  64.845  1.00  0.00    -0.365 A  
HETATM   10  O   UNL     1     -13.643  14.492  65.463  1.00  0.00    -0.468 OA 
HETATM   11  C   UNL     1     -12.962  12.431  64.502  1.00  0.00    -0.165 A  
HETATM   12  H   UNL     1     -11.819  16.016  65.641  1.00  0.00     0.000 HD 
HETATM   13  C   UNL     1     -10.333  13.408  64.331  1.00  0.00    -0.347 A  
HETATM   14  O   UNL     1     -11.123  15.475  65.289  1.00  0.00    -0.357 OA 
HETATM   15  C   UNL     1     -11.943  11.627  63.984  1.00  0.00    -0.282 A  
HETATM   16  H   UNL     1     -14.530  14.158  65.525  1.00  0.00     0.000 HD 
ENDBRANCH   6   7
ENDBRANCH   5   6
ENDBRANCH   3   5
ENDBRANCH   2   3
BRANCH   2  17
HETATM   17  C   UNL     1      -8.479  12.806  67.042  1.00  0.00    -0.154 C  
BRANCH  17  18
HETATM   18  C   UNL     1      -8.533  13.248  68.511  1.00  0.00    -0.067 C  
BRANCH  18  19
HETATM   19  C   UNL     1      -8.916  14.707  68.616  1.00  0.00    -0.184 A  
HETATM   20  C   UNL     1      -7.930  15.703  68.629  1.00  0.00    -0.152 A  
HETATM   21  C   UNL     1     -10.267  15.083  68.651  1.00  0.00    -0.231 A  
HETATM   22  C   UNL     1     -10.628  16.431  68.691  1.00  0.00    -0.305 A  
HETATM   23  H   UNL     1      -9.263  19.398  68.718  1.00  0.00     0.000 HD 
HETATM   24  C   UNL     1      -8.290  17.051  68.672  1.00  0.00    -0.264 A  
HETATM   25  C   UNL     1      -9.633  17.404  68.696  1.00  0.00    -0.295 A  
HETATM   26  O   UNL     1      -9.942  18.733  68.716  1.00  0.00    -0.380 OA 
ENDBRANCH  18  19
ENDBRANCH  17  18
ENDBRANCH   2  17
TORSDOF 7
ENDMDL
MODEL      275
REMARK 921   NORMALIZED FREE ENERGY PREDICTED BY IDOCK:   -3.80 KCAL/MOL
REMARK 922        TOTAL FREE ENERGY PREDICTED BY IDOCK:   -6.52 KCAL/MOL
REMARK 923 INTER-LIGAND FREE ENERGY PREDICTED BY IDOCK:   -5.48 KCAL/MOL
REMARK 924 INTRA-LIGAND FREE ENERGY PREDICTED BY IDOCK:   -1.04 KCAL/MOL
REMARK 927      BINDING AFFINITY PREDICTED BY RF-SCORE:    0.00 PKD
ROOT
HETATM    1  C   UNL     1      -9.595   4.805  67.789  1.00  0.00    -0.194 C  
HETATM    2  C   UNL     1     -10.767   5.757  67.530  1.00  0.00    -0.236 C  
ENDROOT
BRANCH   2   3
HETATM    3  N   UNL     1     -10.455   6.753  66.492  1.00  0.00    -0.491 NA 
HETATM    4  H   UNL     1     -11.294   6.979  65.958  1.00  0.00     0.000 HD 
BRANCH   3   5
HETATM    5  C   UNL     1      -9.820   7.986  66.982  1.00  0.00    -0.227 C  
BRANCH   5   6
HETATM    6  C   UNL     1     -10.280   9.258  66.256  1.00  0.00    -0.273 C  
BRANCH   6   7
HETATM    7  C   UNL     1      -9.805  10.519  66.935  1.00  0.00    -0.235 A  
HETATM    8  C   UNL     1      -9.000  12.849  68.237  1.00  0.00    -0.175 A  
HETATM    9  C   UNL     1      -8.305  11.660  68.440  1.00  0.00    -0.157 A  
HETATM   10  O   UNL     1      -8.622  13.984  68.896  1.00  0.00    -0.340 OA 
HETATM   11  C   UNL     1     -10.085  12.898  67.376  1.00  0.00    -0.223 A  
HETATM   12  H   UNL     1      -6.976  12.483  69.744  1.00  0.00     0.000 HD 
HETATM   13  C   UNL     1      -8.696  10.492  67.792  1.00  0.00    -0.122 A  
HETATM   14  O   UNL     1      -7.242  11.686  69.302  1.00  0.00    -0.099 OA 
HETATM   15  C   UNL     1     -10.486  11.731  66.721  1.00  0.00    -0.260 A  
HETATM   16  H   UNL     1      -9.096  14.795  68.758  1.00  0.00     0.000 HD 
ENDBRANCH   6   7
ENDBRANCH   5   6
ENDBRANCH   3   5
ENDBRANCH   2   3
BRANCH   2  17
HETATM   17  C   UNL     1     -11.145   6.467  68.845  1.00  0.00    -0.420 C  
BRANCH  17  18
HETATM   18  C   UNL     1     -10.857   5.627  70.097  1.00  0.00    -0.356 C  
BRANCH  18  19
HETATM   19  C   UNL     1     -10.207   6.471  71.169  1.00  0.00    -0.219 A  
HETATM   20  C   UNL     1     -10.434   6.200  72.525  1.00  0.00    -0.228 A  
HETATM   21  C   UNL     1      -9.325   7.503  70.818  1.00  0.00    -0.162 A  
HETATM   22  C   UNL     1      -8.677   8.250  71.804  1.00  0.00    -0.218 A  
HETATM   23  H   UNL     1      -8.444   8.452  75.055  1.00  0.00     0.000 HD 
HETATM   24  C   UNL     1      -9.788   6.947  73.512  1.00  0.00    -0.272 A  
HETATM   25  C   UNL     1      -8.911   7.960  73.144  1.00  0.00    -0.233 A  
HETATM   26  O   UNL     1      -8.284   8.651  74.139  1.00  0.00    -0.341 OA 
ENDBRANCH  18  19
ENDBRANCH  17  18
ENDBRANCH   2  17
TORSDOF 7
ENDMDL
MODEL      276
REMARK 921   NORMALIZED FREE ENERGY PREDICTED BY IDOCK:   -3.80 KCAL/MOL
REMARK 922        TOTAL FREE ENERGY PREDICTED BY IDOCK:   -6.52 KCAL/MOL
REMARK 923 INTER-LIGAND FREE ENERGY PREDICTED BY IDOCK:   -5.86 KCAL/MOL
REMARK 924 INTRA-LIGAND FREE ENERGY PREDICTED BY IDOCK:   -0.66 KCAL/MOL
REMARK 927      BINDING AFFINITY PREDICTED BY RF-SCORE:    0.00 PKD
ROOT
HETATM    1  C   UNL     1     -10.821  13.883  68.778  1.00  0.00    -0.282 C  
HETATM    2  C   UNL     1     -11.019  14.901  67.649  1.00  0.00    -0.300 C  
ENDROOT
BRANCH   2   3
HETATM    3  N   UNL     1     -11.958  14.417  66.623  1.00  0.00    -0.410 NA 
HETATM    4  H   UNL     1     -12.509  15.194  66.257  1.00  0.00     0.000 HD 
BRANCH   3   5
HETATM    5  C   UNL     1     -11.342  13.667  65.518  1.00  0.00    -0.298 C  
BRANCH   5   6
HETATM    6  C   UNL     1     -11.879  12.239  65.356  1.00  0.00    -0.418 C  
BRANCH   6   7
HETATM    7  C   UNL     1     -11.115  11.234  66.182  1.00  0.00    -0.207 A  
HETATM    8  C   UNL     1      -9.635   9.426  67.704  1.00  0.00    -0.134 A  
HETATM    9  C   UNL     1     -10.684  10.134  68.286  1.00  0.00    -0.238 A  
HETATM   10  O   UNL     1      -8.893   8.561  68.457  1.00  0.00    -0.138 OA 
HETATM   11  C   UNL     1      -9.324   9.593  66.364  1.00  0.00    -0.224 A  
HETATM   12  H   UNL     1     -10.426   9.302  70.126  1.00  0.00     0.000 HD 
HETATM   13  C   UNL     1     -11.431  11.035  67.534  1.00  0.00    -0.266 A  
HETATM   14  O   UNL     1     -10.936   9.917  69.613  1.00  0.00    -0.233 OA 
HETATM   15  C   UNL     1     -10.069  10.497  65.601  1.00  0.00    -0.333 A  
HETATM   16  H   UNL     1      -8.178   8.078  68.060  1.00  0.00     0.000 HD 
ENDBRANCH   6   7
ENDBRANCH   5   6
ENDBRANCH   3   5
ENDBRANCH   2   3
BRANCH   2  17
HETATM   17  C   UNL     1      -9.654  15.218  67.006  1.00  0.00    -0.233 C  
BRANCH  17  18
HETATM   18  C   UNL     1      -8.574  15.604  68.025  1.00  0.00    -0.155 C  
BRANCH  18  19
HETATM   19  C   UNL     1      -8.260  17.079  67.940  1.00  0.00    -0.200 A  
HETATM   20  C   UNL     1      -7.425  17.687  68.888  1.00  0.00    -0.227 A  
HETATM   21  C   UNL     1      -8.760  17.848  66.879  1.00  0.00    -0.258 A  
HETATM   22  C   UNL     1      -8.428  19.200  66.763  1.00  0.00    -0.315 A  
HETATM   23  H   UNL     1      -6.655  21.490  68.272  1.00  0.00     0.000 HD 
HETATM   24  C   UNL     1      -7.094  19.038  68.774  1.00  0.00    -0.353 A  
HETATM   25  C   UNL     1      -7.592  19.781  67.711  1.00  0.00    -0.286 A  
HETATM   26  O   UNL     1      -7.227  21.093  67.625  1.00  0.00    -0.349 OA 
ENDBRANCH  18  19
ENDBRANCH  17  18
ENDBRANCH   2  17
TORSDOF 7
ENDMDL
MODEL      277
REMARK 921   NORMALIZED FREE ENERGY PREDICTED BY IDOCK:   -3.79 KCAL/MOL
REMARK 922        TOTAL FREE ENERGY PREDICTED BY IDOCK:   -6.50 KCAL/MOL
REMARK 923 INTER-LIGAND FREE ENERGY PREDICTED BY IDOCK:   -5.92 KCAL/MOL
REMARK 924 INTRA-LIGAND FREE ENERGY PREDICTED BY IDOCK:   -0.59 KCAL/MOL
REMARK 927      BINDING AFFINITY PREDICTED BY RF-SCORE:    0.00 PKD
ROOT
HETATM    1  C   UNL     1     -12.212  12.795  63.952  1.00  0.00    -0.543 C  
HETATM    2  C   UNL     1     -10.798  13.334  64.194  1.00  0.00    -0.343 C  
ENDROOT
BRANCH   2   3
HETATM    3  N   UNL     1      -9.947  12.363  64.900  1.00  0.00    -0.434 NA 
HETATM    4  H   UNL     1      -9.318  12.848  65.541  1.00  0.00     0.000 HD 
BRANCH   3   5
HETATM    5  C   UNL     1     -10.671  11.298  65.610  1.00  0.00    -0.217 C  
BRANCH   5   6
HETATM    6  C   UNL     1     -10.078   9.897  65.407  1.00  0.00    -0.270 C  
BRANCH   6   7
HETATM    7  C   UNL     1      -9.349   9.391  66.627  1.00  0.00    -0.211 A  
HETATM    8  C   UNL     1      -7.945   8.420  68.832  1.00  0.00    -0.115 A  
HETATM    9  C   UNL     1      -7.980   9.788  68.574  1.00  0.00    -0.089 A  
HETATM   10  O   UNL     1      -7.234   7.943  69.896  1.00  0.00    -0.063 OA 
HETATM   11  C   UNL     1      -8.618   7.526  68.013  1.00  0.00    -0.122 A  
HETATM   12  H   UNL     1      -6.816  10.273  70.171  1.00  0.00     0.000 HD 
HETATM   13  C   UNL     1      -8.681  10.284  67.479  1.00  0.00    -0.125 A  
HETATM   14  O   UNL     1      -7.295  10.612  69.424  1.00  0.00    -0.109 OA 
HETATM   15  C   UNL     1      -9.325   8.014  66.911  1.00  0.00    -0.209 A  
HETATM   16  H   UNL     1      -7.210   7.010  70.072  1.00  0.00     0.000 HD 
ENDBRANCH   6   7
ENDBRANCH   5   6
ENDBRANCH   3   5
ENDBRANCH   2   3
BRANCH   2  17
HETATM   17  C   UNL     1     -10.886  14.644  65.003  1.00  0.00    -0.431 C  
BRANCH  17  18
HETATM   18  C   UNL     1      -9.727  14.831  65.991  1.00  0.00    -0.350 C  
BRANCH  18  19
HETATM   19  C   UNL     1      -9.398  16.297  66.157  1.00  0.00    -0.374 A  
HETATM   20  C   UNL     1     -10.416  17.238  66.359  1.00  0.00    -0.263 A  
HETATM   21  C   UNL     1      -8.062  16.725  66.162  1.00  0.00    -0.293 A  
HETATM   22  C   UNL     1      -7.748  18.069  66.371  1.00  0.00    -0.304 A  
HETATM   23  H   UNL     1      -9.213  20.931  66.946  1.00  0.00     0.000 HD 
HETATM   24  C   UNL     1     -10.104  18.583  66.566  1.00  0.00    -0.425 A  
HETATM   25  C   UNL     1      -8.774  18.986  66.577  1.00  0.00    -0.322 A  
HETATM   26  O   UNL     1      -8.512  20.305  66.805  1.00  0.00    -0.305 OA 
ENDBRANCH  18  19
ENDBRANCH  17  18
ENDBRANCH   2  17
TORSDOF 7
ENDMDL
MODEL      278
REMARK 921   NORMALIZED FREE ENERGY PREDICTED BY IDOCK:   -3.79 KCAL/MOL
REMARK 922        TOTAL FREE ENERGY PREDICTED BY IDOCK:   -6.50 KCAL/MOL
REMARK 923 INTER-LIGAND FREE ENERGY PREDICTED BY IDOCK:   -5.93 KCAL/MOL
REMARK 924 INTRA-LIGAND FREE ENERGY PREDICTED BY IDOCK:   -0.57 KCAL/MOL
REMARK 927      BINDING AFFINITY PREDICTED BY RF-SCORE:    0.00 PKD
ROOT
HETATM    1  C   UNL     1      -9.699  11.704  68.344  1.00  0.00    -0.199 C  
HETATM    2  C   UNL     1     -10.484  11.055  67.198  1.00  0.00    -0.232 C  
ENDROOT
BRANCH   2   3
HETATM    3  N   UNL     1     -11.840  11.613  67.069  1.00  0.00    -0.575 NA 
HETATM    4  H   UNL     1     -12.432  11.277  67.829  1.00  0.00     0.000 HD 
BRANCH   3   5
HETATM    5  C   UNL     1     -11.907  13.080  66.985  1.00  0.00    -0.377 C  
BRANCH   5   6
HETATM    6  C   UNL     1     -11.097  13.677  65.827  1.00  0.00    -0.292 C  
BRANCH   6   7
HETATM    7  C   UNL     1     -10.765  15.134  66.040  1.00  0.00    -0.333 A  
HETATM    8  C   UNL     1     -10.235  17.842  66.434  1.00  0.00    -0.372 A  
HETATM    9  C   UNL     1      -9.956  16.923  67.442  1.00  0.00    -0.269 A  
HETATM   10  O   UNL     1     -10.000  19.172  66.639  1.00  0.00    -0.327 OA 
HETATM   11  C   UNL     1     -10.760  17.428  65.221  1.00  0.00     0.029 A  
HETATM   12  H   UNL     1      -9.262  18.327  68.742  1.00  0.00     0.000 HD 
HETATM   13  C   UNL     1     -10.213  15.568  67.254  1.00  0.00    -0.260 A  
HETATM   14  O   UNL     1      -9.437  17.403  68.614  1.00  0.00    -0.272 OA 
HETATM   15  C   UNL     1     -11.022  16.069  65.023  1.00  0.00    -0.393 A  
HETATM   16  H   UNL     1     -10.190  19.800  65.951  1.00  0.00     0.000 HD 
ENDBRANCH   6   7
ENDBRANCH   5   6
ENDBRANCH   3   5
ENDBRANCH   2   3
BRANCH   2  17
HETATM   17  C   UNL     1     -10.560   9.533  67.433  1.00  0.00    -0.337 C  
BRANCH  17  18
HETATM   18  C   UNL     1     -10.742   9.151  68.908  1.00  0.00    -0.167 C  
BRANCH  18  19
HETATM   19  C   UNL     1     -10.496   7.674  69.111  1.00  0.00    -0.220 A  
HETATM   20  C   UNL     1      -9.631   6.971  68.261  1.00  0.00    -0.134 A  
HETATM   21  C   UNL     1     -11.091   6.999  70.188  1.00  0.00    -0.323 A  
HETATM   22  C   UNL     1     -10.823   5.648  70.415  1.00  0.00    -0.326 A  
HETATM   23  H   UNL     1      -9.058   3.194  69.177  1.00  0.00     0.000 HD 
HETATM   24  C   UNL     1      -9.364   5.619  68.486  1.00  0.00    -0.139 A  
HETATM   25  C   UNL     1      -9.956   4.971  69.563  1.00  0.00    -0.232 A  
HETATM   26  O   UNL     1      -9.651   3.656  69.759  1.00  0.00    -0.186 OA 
ENDBRANCH  18  19
ENDBRANCH  17  18
ENDBRANCH   2  17
TORSDOF 7
ENDMDL
MODEL      279
REMARK 921   NORMALIZED FREE ENERGY PREDICTED BY IDOCK:   -3.77 KCAL/MOL
REMARK 922        TOTAL FREE ENERGY PREDICTED BY IDOCK:   -6.48 KCAL/MOL
REMARK 923 INTER-LIGAND FREE ENERGY PREDICTED BY IDOCK:   -5.16 KCAL/MOL
REMARK 924 INTRA-LIGAND FREE ENERGY PREDICTED BY IDOCK:   -1.32 KCAL/MOL
REMARK 927      BINDING AFFINITY PREDICTED BY RF-SCORE:    0.00 PKD
ROOT
HETATM    1  C   UNL     1      -7.025  10.528  66.416  1.00  0.00    -0.124 C  
HETATM    2  C   UNL     1      -7.924  11.186  67.469  1.00  0.00    -0.118 C  
ENDROOT
BRANCH   2   3
HETATM    3  N   UNL     1      -9.354  10.965  67.196  1.00  0.00    -0.159 NA 
HETATM    4  H   UNL     1      -9.923  11.544  67.812  1.00  0.00     0.000 HD 
BRANCH   3   5
HETATM    5  C   UNL     1      -9.760  11.164  65.796  1.00  0.00    -0.225 C  
BRANCH   5   6
HETATM    6  C   UNL     1     -11.056  11.969  65.629  1.00  0.00    -0.361 C  
BRANCH   6   7
HETATM    7  C   UNL     1     -10.978  13.334  66.266  1.00  0.00    -0.296 A  
HETATM    8  C   UNL     1     -10.778  15.827  67.498  1.00  0.00    -0.317 A  
HETATM    9  C   UNL     1     -10.303  15.650  66.201  1.00  0.00    -0.316 A  
HETATM   10  O   UNL     1     -10.654  17.042  68.110  1.00  0.00    -0.339 OA 
HETATM   11  C   UNL     1     -11.370  14.780  68.187  1.00  0.00    -0.324 A  
HETATM   12  H   UNL     1      -9.665  17.573  66.008  1.00  0.00     0.000 HD 
HETATM   13  C   UNL     1     -10.402  14.411  65.575  1.00  0.00    -0.382 A  
HETATM   14  O   UNL     1      -9.732  16.728  65.581  1.00  0.00    -0.539 OA 
HETATM   15  C   UNL     1     -11.473  13.532  67.567  1.00  0.00    -0.361 A  
HETATM   16  H   UNL     1     -10.978  17.164  68.995  1.00  0.00     0.000 HD 
ENDBRANCH   6   7
ENDBRANCH   5   6
ENDBRANCH   3   5
ENDBRANCH   2   3
BRANCH   2  17
HETATM   17  C   UNL     1      -7.625  12.698  67.518  1.00  0.00    -0.160 C  
BRANCH  17  18
HETATM   18  C   UNL     1      -6.540  13.072  68.536  1.00  0.00    -0.088 C  
BRANCH  18  19
HETATM   19  C   UNL     1      -6.299  14.565  68.536  1.00  0.00    -0.088 A  
HETATM   20  C   UNL     1      -5.483  15.155  69.510  1.00  0.00    -0.094 A  
HETATM   21  C   UNL     1      -6.849  15.369  67.527  1.00  0.00    -0.223 A  
HETATM   22  C   UNL     1      -6.585  16.740  67.489  1.00  0.00    -0.172 A  
HETATM   23  H   UNL     1      -4.907  19.021  69.116  1.00  0.00     0.000 HD 
HETATM   24  C   UNL     1      -5.220  16.526  69.474  1.00  0.00    -0.134 A  
HETATM   25  C   UNL     1      -5.766  17.305  68.462  1.00  0.00    -0.150 A  
HETATM   26  O   UNL     1      -5.466  18.635  68.451  1.00  0.00    -0.186 OA 
ENDBRANCH  18  19
ENDBRANCH  17  18
ENDBRANCH   2  17
TORSDOF 7
ENDMDL
MODEL      280
REMARK 921   NORMALIZED FREE ENERGY PREDICTED BY IDOCK:   -3.75 KCAL/MOL
REMARK 922        TOTAL FREE ENERGY PREDICTED BY IDOCK:   -6.44 KCAL/MOL
REMARK 923 INTER-LIGAND FREE ENERGY PREDICTED BY IDOCK:   -6.26 KCAL/MOL
REMARK 924 INTRA-LIGAND FREE ENERGY PREDICTED BY IDOCK:   -0.18 KCAL/MOL
REMARK 927      BINDING AFFINITY PREDICTED BY RF-SCORE:    0.00 PKD
ROOT
HETATM    1  C   UNL     1      -7.618  12.560  67.742  1.00  0.00    -0.138 C  
HETATM    2  C   UNL     1      -8.471  11.324  67.438  1.00  0.00    -0.137 C  
ENDROOT
BRANCH   2   3
HETATM    3  N   UNL     1      -8.120  10.182  68.297  1.00  0.00    -0.101 NA 
HETATM    4  H   UNL     1      -7.133  10.222  68.549  1.00  0.00     0.000 HD 
BRANCH   3   5
HETATM    5  C   UNL     1      -8.946  10.031  69.505  1.00  0.00    -0.205 C  
BRANCH   5   6
HETATM    6  C   UNL     1     -10.131   9.070  69.336  1.00  0.00    -0.198 C  
BRANCH   6   7
HETATM    7  C   UNL     1     -10.353   8.203  70.551  1.00  0.00    -0.211 A  
HETATM    8  C   UNL     1     -10.844   6.593  72.773  1.00  0.00    -0.251 A  
HETATM    9  C   UNL     1     -10.034   6.128  71.740  1.00  0.00    -0.172 A  
HETATM   10  O   UNL     1     -11.106   5.792  73.848  1.00  0.00    -0.386 OA 
HETATM   11  C   UNL     1     -11.401   7.861  72.723  1.00  0.00    -0.453 A  
HETATM   12  H   UNL     1      -9.691   4.323  72.616  1.00  0.00     0.000 HD 
HETATM   13  C   UNL     1      -9.779   6.925  70.628  1.00  0.00    -0.180 A  
HETATM   14  O   UNL     1      -9.517   4.867  71.857  1.00  0.00    -0.142 OA 
HETATM   15  C   UNL     1     -11.151   8.669  71.611  1.00  0.00    -0.375 A  
HETATM   16  H   UNL     1     -11.659   6.109  74.553  1.00  0.00     0.000 HD 
ENDBRANCH   6   7
ENDBRANCH   5   6
ENDBRANCH   3   5
ENDBRANCH   2   3
BRANCH   2  17
HETATM   17  C   UNL     1      -8.299  10.941  65.954  1.00  0.00    -0.149 C  
BRANCH  17  18
HETATM   18  C   UNL     1      -9.592  10.440  65.299  1.00  0.00    -0.316 C  
BRANCH  18  19
HETATM   19  C   UNL     1     -10.468  11.601  64.887  1.00  0.00    -0.339 A  
HETATM   20  C   UNL     1     -11.315  11.495  63.775  1.00  0.00    -0.420 A  
HETATM   21  C   UNL     1     -10.480  12.781  65.644  1.00  0.00    -0.297 A  
HETATM   22  C   UNL     1     -11.328  13.836  65.301  1.00  0.00    -0.310 A  
HETATM   23  H   UNL     1     -13.597  14.618  63.087  1.00  0.00     0.000 HD 
HETATM   24  C   UNL     1     -12.161  12.550  63.430  1.00  0.00    -0.613 A  
HETATM   25  C   UNL     1     -12.166  13.708  64.199  1.00  0.00    -0.399 A  
HETATM   26  O   UNL     1     -13.024  14.706  63.840  1.00  0.00    -0.472 OA 
ENDBRANCH  18  19
ENDBRANCH  17  18
ENDBRANCH   2  17
TORSDOF 7
ENDMDL
MODEL      281
REMARK 921   NORMALIZED FREE ENERGY PREDICTED BY IDOCK:   -3.74 KCAL/MOL
REMARK 922        TOTAL FREE ENERGY PREDICTED BY IDOCK:   -6.43 KCAL/MOL
REMARK 923 INTER-LIGAND FREE ENERGY PREDICTED BY IDOCK:   -5.21 KCAL/MOL
REMARK 924 INTRA-LIGAND FREE ENERGY PREDICTED BY IDOCK:   -1.22 KCAL/MOL
REMARK 927      BINDING AFFINITY PREDICTED BY RF-SCORE:    0.00 PKD
ROOT
HETATM    1  C   UNL     1     -10.861  13.864  68.775  1.00  0.00    -0.282 C  
HETATM    2  C   UNL     1     -11.174  14.763  67.574  1.00  0.00    -0.332 C  
ENDROOT
BRANCH   2   3
HETATM    3  N   UNL     1     -12.318  14.268  66.792  1.00  0.00    -0.559 NA 
HETATM    4  H   UNL     1     -13.157  14.801  67.021  1.00  0.00     0.000 HD 
BRANCH   3   5
HETATM    5  C   UNL     1     -12.116  14.242  65.335  1.00  0.00    -0.396 C  
BRANCH   5   6
HETATM    6  C   UNL     1     -12.537  12.926  64.668  1.00  0.00    -0.459 C  
BRANCH   6   7
HETATM    7  C   UNL     1     -11.441  11.889  64.687  1.00  0.00    -0.345 A  
HETATM    8  C   UNL     1      -9.360  10.034  64.722  1.00  0.00    -0.271 A  
HETATM    9  C   UNL     1     -10.199  10.162  65.826  1.00  0.00    -0.213 A  
HETATM   10  O   UNL     1      -8.324   9.145  64.751  1.00  0.00    -0.150 OA 
HETATM   11  C   UNL     1      -9.555  10.808  63.589  1.00  0.00    -0.347 A  
HETATM   12  H   UNL     1      -9.236   8.738  66.915  1.00  0.00     0.000 HD 
HETATM   13  C   UNL     1     -11.243  11.082  65.817  1.00  0.00     0.085 A  
HETATM   14  O   UNL     1      -9.949   9.365  66.909  1.00  0.00    -0.196 OA 
HETATM   15  C   UNL     1     -10.600  11.734  63.571  1.00  0.00    -0.499 A  
HETATM   16  H   UNL     1      -7.751   9.057  63.999  1.00  0.00     0.000 HD 
ENDBRANCH   6   7
ENDBRANCH   5   6
ENDBRANCH   3   5
ENDBRANCH   2   3
BRANCH   2  17
HETATM   17  C   UNL     1      -9.925  14.863  66.675  1.00  0.00    -0.267 C  
BRANCH  17  18
HETATM   18  C   UNL     1      -8.665  15.310  67.427  1.00  0.00    -0.194 C  
BRANCH  18  19
HETATM   19  C   UNL     1      -7.722  14.146  67.629  1.00  0.00    -0.186 A  
HETATM   20  C   UNL     1      -6.455  14.345  68.194  1.00  0.00    -0.139 A  
HETATM   21  C   UNL     1      -8.126  12.844  67.300  1.00  0.00    -0.164 A  
HETATM   22  C   UNL     1      -7.281  11.757  67.536  1.00  0.00    -0.123 A  
HETATM   23  H   UNL     1      -4.327  11.091  68.760  1.00  0.00     0.000 HD 
HETATM   24  C   UNL     1      -5.609  13.260  68.429  1.00  0.00    -0.085 A  
HETATM   25  C   UNL     1      -6.030  11.976  68.105  1.00  0.00    -0.053 A  
HETATM   26  O   UNL     1      -5.181  10.942  68.371  1.00  0.00    -0.041 OA 
ENDBRANCH  18  19
ENDBRANCH  17  18
ENDBRANCH   2  17
TORSDOF 7
ENDMDL
MODEL      282
REMARK 921   NORMALIZED FREE ENERGY PREDICTED BY IDOCK:   -3.72 KCAL/MOL
REMARK 922        TOTAL FREE ENERGY PREDICTED BY IDOCK:   -6.40 KCAL/MOL
REMARK 923 INTER-LIGAND FREE ENERGY PREDICTED BY IDOCK:   -5.67 KCAL/MOL
REMARK 924 INTRA-LIGAND FREE ENERGY PREDICTED BY IDOCK:   -0.73 KCAL/MOL
REMARK 927      BINDING AFFINITY PREDICTED BY RF-SCORE:    0.00 PKD
ROOT
HETATM    1  C   UNL     1      -7.896  13.090  67.355  1.00  0.00    -0.166 C  
HETATM    2  C   UNL     1      -8.979  13.980  67.974  1.00  0.00    -0.182 C  
ENDROOT
BRANCH   2   3
HETATM    3  N   UNL     1      -9.861  13.232  68.883  1.00  0.00    -0.426 NA 
HETATM    4  H   UNL     1     -10.635  13.823  69.187  1.00  0.00     0.000 HD 
BRANCH   3   5
HETATM    5  C   UNL     1     -10.374  11.961  68.350  1.00  0.00    -0.209 C  
BRANCH   5   6
HETATM    6  C   UNL     1     -10.803  10.958  69.429  1.00  0.00    -0.286 C  
BRANCH   6   7
HETATM    7  C   UNL     1      -9.809   9.836  69.607  1.00  0.00    -0.241 A  
HETATM    8  C   UNL     1      -7.911   7.821  69.939  1.00  0.00    -0.110 A  
HETATM    9  C   UNL     1      -8.839   8.078  70.945  1.00  0.00    -0.139 A  
HETATM   10  O   UNL     1      -6.965   6.852  70.114  1.00  0.00    -0.062 OA 
HETATM   11  C   UNL     1      -7.926   8.545  68.757  1.00  0.00    -0.119 A  
HETATM   12  H   UNL     1      -8.115   6.640  72.190  1.00  0.00     0.000 HD 
HETATM   13  C   UNL     1      -9.793   9.078  70.787  1.00  0.00    -0.304 A  
HETATM   14  O   UNL     1      -8.766   7.323  72.083  1.00  0.00    -0.119 OA 
HETATM   15  C   UNL     1      -8.880   9.552  68.590  1.00  0.00    -0.132 A  
HETATM   16  H   UNL     1      -6.331   6.676  69.428  1.00  0.00     0.000 HD 
ENDBRANCH   6   7
ENDBRANCH   5   6
ENDBRANCH   3   5
ENDBRANCH   2   3
BRANCH   2  17
HETATM   17  C   UNL     1      -9.809  14.626  66.846  1.00  0.00    -0.252 C  
BRANCH  17  18
HETATM   18  C   UNL     1     -10.988  15.463  67.359  1.00  0.00    -0.312 C  
BRANCH  18  19
HETATM   19  C   UNL     1     -10.653  16.937  67.323  1.00  0.00    -0.270 A  
HETATM   20  C   UNL     1     -10.377  17.633  68.508  1.00  0.00    -0.370 A  
HETATM   21  C   UNL     1     -10.565  17.613  66.097  1.00  0.00    -0.220 A  
HETATM   22  C   UNL     1     -10.201  18.960  66.054  1.00  0.00    -0.437 A  
HETATM   23  H   UNL     1      -9.355  21.400  68.053  1.00  0.00     0.000 HD 
HETATM   24  C   UNL     1     -10.014  18.981  68.465  1.00  0.00    -0.486 A  
HETATM   25  C   UNL     1      -9.923  19.631  67.241  1.00  0.00    -0.395 A  
HETATM   26  O   UNL     1      -9.545  20.942  67.243  1.00  0.00    -0.435 OA 
ENDBRANCH  18  19
ENDBRANCH  17  18
ENDBRANCH   2  17
TORSDOF 7
ENDMDL
MODEL      283
REMARK 921   NORMALIZED FREE ENERGY PREDICTED BY IDOCK:   -3.71 KCAL/MOL
REMARK 922        TOTAL FREE ENERGY PREDICTED BY IDOCK:   -6.40 KCAL/MOL
REMARK 923 INTER-LIGAND FREE ENERGY PREDICTED BY IDOCK:   -5.08 KCAL/MOL
REMARK 924 INTRA-LIGAND FREE ENERGY PREDICTED BY IDOCK:   -1.32 KCAL/MOL
REMARK 927      BINDING AFFINITY PREDICTED BY RF-SCORE:    0.00 PKD
ROOT
HETATM    1  C   UNL     1      -5.684  18.958  69.800  1.00  0.00    -0.248 C  
HETATM    2  C   UNL     1      -6.225  18.701  68.389  1.00  0.00    -0.210 C  
ENDROOT
BRANCH   2   3
HETATM    3  N   UNL     1      -7.567  19.274  68.195  1.00  0.00    -0.279 NA 
HETATM    4  H   UNL     1      -7.512  20.292  68.159  1.00  0.00     0.000 HD 
BRANCH   3   5
HETATM    5  C   UNL     1      -8.301  18.764  67.026  1.00  0.00    -0.272 C  
BRANCH   5   6
HETATM    6  C   UNL     1      -9.798  18.540  67.278  1.00  0.00    -0.329 C  
BRANCH   6   7
HETATM    7  C   UNL     1     -10.301  17.252  66.674  1.00  0.00    -0.305 A  
HETATM    8  C   UNL     1     -11.293  14.870  65.618  1.00  0.00    -0.325 A  
HETATM    9  C   UNL     1     -11.382  16.049  64.884  1.00  0.00    -0.229 A  
HETATM   10  O   UNL     1     -11.804  13.709  65.112  1.00  0.00    -0.323 OA 
HETATM   11  C   UNL     1     -10.698  14.856  66.870  1.00  0.00    -0.308 A  
HETATM   12  H   UNL     1     -12.319  15.173  63.303  1.00  0.00     0.000 HD 
HETATM   13  C   UNL     1     -10.887  17.243  65.400  1.00  0.00    -0.024 A  
HETATM   14  O   UNL     1     -11.981  15.988  63.655  1.00  0.00    -0.765 OA 
HETATM   15  C   UNL     1     -10.198  16.050  67.397  1.00  0.00    -0.273 A  
HETATM   16  H   UNL     1     -11.744  12.904  65.613  1.00  0.00     0.000 HD 
ENDBRANCH   6   7
ENDBRANCH   5   6
ENDBRANCH   3   5
ENDBRANCH   2   3
BRANCH   2  17
HETATM   17  C   UNL     1      -6.258  17.182  68.126  1.00  0.00    -0.136 C  
BRANCH  17  18
HETATM   18  C   UNL     1      -6.717  16.362  69.339  1.00  0.00    -0.215 C  
BRANCH  18  19
HETATM   19  C   UNL     1      -6.600  14.882  69.059  1.00  0.00    -0.109 A  
HETATM   20  C   UNL     1      -6.855  14.377  67.776  1.00  0.00    -0.194 A  
HETATM   21  C   UNL     1      -6.185  14.002  70.069  1.00  0.00    -0.142 A  
HETATM   22  C   UNL     1      -6.021  12.641  69.802  1.00  0.00    -0.129 A  
HETATM   23  H   UNL     1      -6.277  10.516  67.335  1.00  0.00     0.000 HD 
HETATM   24  C   UNL     1      -6.693  13.016  67.509  1.00  0.00    -0.156 A  
HETATM   25  C   UNL     1      -6.272  12.162  68.520  1.00  0.00    -0.053 A  
HETATM   26  O   UNL     1      -6.106  10.843  68.210  1.00  0.00    -0.049 OA 
ENDBRANCH  18  19
ENDBRANCH  17  18
ENDBRANCH   2  17
TORSDOF 7
ENDMDL
MODEL      284
REMARK 921   NORMALIZED FREE ENERGY PREDICTED BY IDOCK:   -3.70 KCAL/MOL
REMARK 922        TOTAL FREE ENERGY PREDICTED BY IDOCK:   -6.38 KCAL/MOL
REMARK 923 INTER-LIGAND FREE ENERGY PREDICTED BY IDOCK:   -5.50 KCAL/MOL
REMARK 924 INTRA-LIGAND FREE ENERGY PREDICTED BY IDOCK:   -0.88 KCAL/MOL
REMARK 927      BINDING AFFINITY PREDICTED BY RF-SCORE:    0.00 PKD
ROOT
HETATM    1  C   UNL     1     -12.982   8.033  71.512  1.00  0.00    -0.326 C  
HETATM    2  C   UNL     1     -12.055   8.914  72.357  1.00  0.00    -0.274 C  
ENDROOT
BRANCH   2   3
HETATM    3  N   UNL     1     -11.367   9.933  71.549  1.00  0.00    -0.289 NA 
HETATM    4  H   UNL     1     -10.382   9.983  71.811  1.00  0.00     0.000 HD 
BRANCH   3   5
HETATM    5  C   UNL     1     -11.495   9.766  70.093  1.00  0.00    -0.216 C  
BRANCH   5   6
HETATM    6  C   UNL     1     -10.336  10.370  69.289  1.00  0.00    -0.250 C  
BRANCH   6   7
HETATM    7  C   UNL     1     -10.808  11.285  68.187  1.00  0.00    -0.263 A  
HETATM    8  C   UNL     1     -11.631  13.037  66.179  1.00  0.00    -0.366 A  
HETATM    9  C   UNL     1     -10.874  11.914  65.858  1.00  0.00    -0.297 A  
HETATM   10  O   UNL     1     -12.009  13.909  65.199  1.00  0.00    -0.350 OA 
HETATM   11  C   UNL     1     -12.001  13.293  67.491  1.00  0.00    -0.371 A  
HETATM   12  H   UNL     1     -10.828  12.326  63.865  1.00  0.00     0.000 HD 
HETATM   13  C   UNL     1     -10.462  11.030  66.852  1.00  0.00    -0.293 A  
HETATM   14  O   UNL     1     -10.547  11.724  64.543  1.00  0.00    -0.278 OA 
HETATM   15  C   UNL     1     -11.591  12.412  68.495  1.00  0.00    -0.358 A  
HETATM   16  H   UNL     1     -12.525  14.676  65.418  1.00  0.00     0.000 HD 
ENDBRANCH   6   7
ENDBRANCH   5   6
ENDBRANCH   3   5
ENDBRANCH   2   3
BRANCH   2  17
HETATM   17  C   UNL     1     -11.022   8.022  73.074  1.00  0.00    -0.310 C  
BRANCH  17  18
HETATM   18  C   UNL     1      -9.575   8.294  72.640  1.00  0.00    -0.352 C  
BRANCH  18  19
HETATM   19  C   UNL     1      -9.099   7.235  71.674  1.00  0.00    -0.143 A  
HETATM   20  C   UNL     1      -7.784   7.252  71.189  1.00  0.00    -0.092 A  
HETATM   21  C   UNL     1      -9.954   6.191  71.290  1.00  0.00    -0.215 A  
HETATM   22  C   UNL     1      -9.502   5.178  70.442  1.00  0.00    -0.229 A  
HETATM   23  H   UNL     1      -6.806   4.252  68.848  1.00  0.00     0.000 HD 
HETATM   24  C   UNL     1      -7.332   6.240  70.340  1.00  0.00    -0.089 A  
HETATM   25  C   UNL     1      -8.190   5.210  69.979  1.00  0.00    -0.082 A  
HETATM   26  O   UNL     1      -7.702   4.230  69.165  1.00  0.00    -0.055 OA 
ENDBRANCH  18  19
ENDBRANCH  17  18
ENDBRANCH   2  17
TORSDOF 7
ENDMDL
MODEL      285
REMARK 921   NORMALIZED FREE ENERGY PREDICTED BY IDOCK:   -3.70 KCAL/MOL
REMARK 922        TOTAL FREE ENERGY PREDICTED BY IDOCK:   -6.37 KCAL/MOL
REMARK 923 INTER-LIGAND FREE ENERGY PREDICTED BY IDOCK:   -6.05 KCAL/MOL
REMARK 924 INTRA-LIGAND FREE ENERGY PREDICTED BY IDOCK:   -0.32 KCAL/MOL
REMARK 927      BINDING AFFINITY PREDICTED BY RF-SCORE:    0.00 PKD
ROOT
HETATM    1  C   UNL     1      -8.724  12.674  68.012  1.00  0.00    -0.190 C  
HETATM    2  C   UNL     1     -10.229  12.516  68.260  1.00  0.00    -0.234 C  
ENDROOT
BRANCH   2   3
HETATM    3  N   UNL     1     -10.698  13.352  69.377  1.00  0.00    -0.446 NA 
HETATM    4  H   UNL     1      -9.973  13.424  70.091  1.00  0.00     0.000 HD 
BRANCH   3   5
HETATM    5  C   UNL     1     -11.171  14.692  68.998  1.00  0.00    -0.269 C  
BRANCH   5   6
HETATM    6  C   UNL     1     -10.780  15.114  67.576  1.00  0.00    -0.284 C  
BRANCH   6   7
HETATM    7  C   UNL     1     -10.412  16.575  67.483  1.00  0.00    -0.310 A  
HETATM    8  C   UNL     1      -9.814  19.293  67.317  1.00  0.00    -0.338 A  
HETATM    9  C   UNL     1      -9.446  18.565  68.445  1.00  0.00    -0.341 A  
HETATM   10  O   UNL     1      -9.545  20.630  67.248  1.00  0.00    -0.483 OA 
HETATM   11  C   UNL     1     -10.463  18.679  66.257  1.00  0.00    -0.468 A  
HETATM   12  H   UNL     1      -8.608  20.162  69.389  1.00  0.00     0.000 HD 
HETATM   13  C   UNL     1      -9.735  17.207  68.537  1.00  0.00    -0.291 A  
HETATM   14  O   UNL     1      -8.806  19.235  69.452  1.00  0.00    -0.098 OA 
HETATM   15  C   UNL     1     -10.759  17.316  66.340  1.00  0.00    -0.072 A  
HETATM   16  H   UNL     1      -9.796  21.127  66.478  1.00  0.00     0.000 HD 
ENDBRANCH   6   7
ENDBRANCH   5   6
ENDBRANCH   3   5
ENDBRANCH   2   3
BRANCH   2  17
HETATM   17  C   UNL     1     -10.544  11.034  68.542  1.00  0.00    -0.218 C  
BRANCH  17  18
HETATM   18  C   UNL     1      -9.449  10.318  69.344  1.00  0.00    -0.225 C  
BRANCH  18  19
HETATM   19  C   UNL     1     -10.000   9.082  70.017  1.00  0.00    -0.207 A  
HETATM   20  C   UNL     1     -10.571   8.052  69.258  1.00  0.00    -0.193 A  
HETATM   21  C   UNL     1      -9.899   8.930  71.408  1.00  0.00    -0.376 A  
HETATM   22  C   UNL     1     -10.355   7.766  72.030  1.00  0.00    -0.267 A  
HETATM   23  H   UNL     1     -11.732   4.898  71.293  1.00  0.00     0.000 HD 
HETATM   24  C   UNL     1     -11.029   6.888  69.879  1.00  0.00    -0.318 A  
HETATM   25  C   UNL     1     -10.912   6.752  71.256  1.00  0.00    -0.249 A  
HETATM   26  O   UNL     1     -11.352   5.591  71.821  1.00  0.00    -0.172 OA 
ENDBRANCH  18  19
ENDBRANCH  17  18
ENDBRANCH   2  17
TORSDOF 7
ENDMDL
MODEL      286
REMARK 921   NORMALIZED FREE ENERGY PREDICTED BY IDOCK:   -3.69 KCAL/MOL
REMARK 922        TOTAL FREE ENERGY PREDICTED BY IDOCK:   -6.36 KCAL/MOL
REMARK 923 INTER-LIGAND FREE ENERGY PREDICTED BY IDOCK:   -5.14 KCAL/MOL
REMARK 924 INTRA-LIGAND FREE ENERGY PREDICTED BY IDOCK:   -1.23 KCAL/MOL
REMARK 927      BINDING AFFINITY PREDICTED BY RF-SCORE:    0.00 PKD
ROOT
HETATM    1  C   UNL     1     -11.384  14.755  64.450  1.00  0.00    -0.224 C  
HETATM    2  C   UNL     1     -12.172  14.185  65.635  1.00  0.00    -0.435 C  
ENDROOT
BRANCH   2   3
HETATM    3  N   UNL     1     -11.502  14.436  66.921  1.00  0.00    -0.351 NA 
HETATM    4  H   UNL     1     -10.944  13.626  67.191  1.00  0.00     0.000 HD 
BRANCH   3   5
HETATM    5  C   UNL     1     -10.680  15.655  66.969  1.00  0.00    -0.314 C  
BRANCH   5   6
HETATM    6  C   UNL     1      -9.241  15.459  66.475  1.00  0.00    -0.323 C  
BRANCH   6   7
HETATM    7  C   UNL     1      -8.479  14.447  67.294  1.00  0.00    -0.229 A  
HETATM    8  C   UNL     1      -7.015  12.568  68.743  1.00  0.00    -0.094 A  
HETATM    9  C   UNL     1      -7.058  13.894  69.164  1.00  0.00    -0.069 A  
HETATM   10  O   UNL     1      -6.275  11.654  69.438  1.00  0.00    -0.079 OA 
HETATM   11  C   UNL     1      -7.708  12.158  67.615  1.00  0.00    -0.148 A  
HETATM   12  H   UNL     1      -5.852  13.582  70.774  1.00  0.00     0.000 HD 
HETATM   13  C   UNL     1      -7.789  14.839  68.450  1.00  0.00    -0.128 A  
HETATM   14  O   UNL     1      -6.351  14.227  70.287  1.00  0.00    -0.166 OA 
HETATM   15  C   UNL     1      -8.445  13.100  66.892  1.00  0.00    -0.081 A  
HETATM   16  H   UNL     1      -6.245  10.749  69.151  1.00  0.00     0.000 HD 
ENDBRANCH   6   7
ENDBRANCH   5   6
ENDBRANCH   3   5
ENDBRANCH   2   3
BRANCH   2  17
HETATM   17  C   UNL     1     -12.369  12.669  65.430  1.00  0.00    -0.499 C  
BRANCH  17  18
HETATM   18  C   UNL     1     -11.328  12.038  64.495  1.00  0.00    -0.393 C  
BRANCH  18  19
HETATM   19  C   UNL     1     -10.628  10.885  65.175  1.00  0.00    -0.268 A  
HETATM   20  C   UNL     1      -9.663  10.133  64.491  1.00  0.00    -0.361 A  
HETATM   21  C   UNL     1     -10.899  10.586  66.519  1.00  0.00    -0.128 A  
HETATM   22  C   UNL     1     -10.214   9.558  67.169  1.00  0.00    -0.305 A  
HETATM   23  H   UNL     1      -7.893   7.331  66.601  1.00  0.00     0.000 HD 
HETATM   24  C   UNL     1      -8.979   9.104  65.140  1.00  0.00    -0.238 A  
HETATM   25  C   UNL     1      -9.255   8.829  66.473  1.00  0.00    -0.179 A  
HETATM   26  O   UNL     1      -8.549   7.829  67.076  1.00  0.00    -0.124 OA 
ENDBRANCH  18  19
ENDBRANCH  17  18
ENDBRANCH   2  17
TORSDOF 7
ENDMDL
MODEL      287
REMARK 921   NORMALIZED FREE ENERGY PREDICTED BY IDOCK:   -3.67 KCAL/MOL
REMARK 922        TOTAL FREE ENERGY PREDICTED BY IDOCK:   -6.34 KCAL/MOL
REMARK 923 INTER-LIGAND FREE ENERGY PREDICTED BY IDOCK:   -6.45 KCAL/MOL
REMARK 924 INTRA-LIGAND FREE ENERGY PREDICTED BY IDOCK:    0.11 KCAL/MOL
REMARK 927      BINDING AFFINITY PREDICTED BY RF-SCORE:    0.00 PKD
ROOT
HETATM    1  C   UNL     1     -11.780  13.986  66.307  1.00  0.00    -0.401 C  
HETATM    2  C   UNL     1     -11.201  13.607  67.675  1.00  0.00    -0.279 C  
ENDROOT
BRANCH   2   3
HETATM    3  N   UNL     1      -9.739  13.450  67.635  1.00  0.00    -0.217 NA 
HETATM    4  H   UNL     1      -9.388  13.187  68.556  1.00  0.00     0.000 HD 
BRANCH   3   5
HETATM    5  C   UNL     1      -9.239  12.512  66.617  1.00  0.00    -0.223 C  
BRANCH   5   6
HETATM    6  C   UNL     1      -8.721  11.186  67.189  1.00  0.00    -0.141 C  
BRANCH   6   7
HETATM    7  C   UNL     1      -7.780  11.382  68.352  1.00  0.00    -0.127 A  
HETATM    8  C   UNL     1      -6.092  11.805  70.531  1.00  0.00     0.030 A  
HETATM    9  C   UNL     1      -6.776  10.599  70.401  1.00  0.00    -0.008 A  
HETATM   10  O   UNL     1      -5.287  12.021  71.613  1.00  0.00    -0.356 OA 
HETATM   11  C   UNL     1      -6.224  12.802  69.577  1.00  0.00    -0.120 A  
HETATM   12  H   UNL     1      -6.022   9.812  72.120  1.00  0.00     0.000 HD 
HETATM   13  C   UNL     1      -7.617  10.376  69.315  1.00  0.00    -0.132 A  
HETATM   14  O   UNL     1      -6.596   9.660  71.380  1.00  0.00    -0.292 OA 
HETATM   15  C   UNL     1      -7.067  12.587  68.483  1.00  0.00    -0.107 A  
HETATM   16  H   UNL     1      -4.821  12.844  71.702  1.00  0.00     0.000 HD 
ENDBRANCH   6   7
ENDBRANCH   5   6
ENDBRANCH   3   5
ENDBRANCH   2   3
BRANCH   2  17
HETATM   17  C   UNL     1     -11.860  12.300  68.160  1.00  0.00    -0.372 C  
BRANCH  17  18
HETATM   18  C   UNL     1     -11.568  11.980  69.632  1.00  0.00    -0.371 C  
BRANCH  18  19
HETATM   19  C   UNL     1     -12.180  13.023  70.538  1.00  0.00    -0.392 A  
HETATM   20  C   UNL     1     -11.984  14.388  70.287  1.00  0.00    -0.388 A  
HETATM   21  C   UNL     1     -12.995  12.637  71.612  1.00  0.00    -0.400 A  
HETATM   22  C   UNL     1     -13.608  13.597  72.419  1.00  0.00    -0.703 A  
HETATM   23  H   UNL     1     -13.866  16.839  72.713  1.00  0.00     0.000 HD 
HETATM   24  C   UNL     1     -12.596  15.349  71.095  1.00  0.00    -0.485 A  
HETATM   25  C   UNL     1     -13.407  14.946  72.148  1.00  0.00    -0.375 A  
HETATM   26  O   UNL     1     -14.003  15.917  72.899  1.00  0.00    -0.592 OA 
ENDBRANCH  18  19
ENDBRANCH  17  18
ENDBRANCH   2  17
TORSDOF 7
ENDMDL
MODEL      288
REMARK 921   NORMALIZED FREE ENERGY PREDICTED BY IDOCK:   -3.67 KCAL/MOL
REMARK 922        TOTAL FREE ENERGY PREDICTED BY IDOCK:   -6.33 KCAL/MOL
REMARK 923 INTER-LIGAND FREE ENERGY PREDICTED BY IDOCK:   -4.53 KCAL/MOL
REMARK 924 INTRA-LIGAND FREE ENERGY PREDICTED BY IDOCK:   -1.80 KCAL/MOL
REMARK 927      BINDING AFFINITY PREDICTED BY RF-SCORE:    0.00 PKD
ROOT
HETATM    1  C   UNL     1      -8.956  16.231  68.242  1.00  0.00    -0.192 C  
HETATM    2  C   UNL     1      -9.368  14.758  68.133  1.00  0.00    -0.197 C  
ENDROOT
BRANCH   2   3
HETATM    3  N   UNL     1      -8.482  13.875  68.907  1.00  0.00    -0.357 NA 
HETATM    4  H   UNL     1      -9.027  13.325  69.572  1.00  0.00     0.000 HD 
BRANCH   3   5
HETATM    5  C   UNL     1      -7.624  12.991  68.103  1.00  0.00    -0.136 C  
BRANCH   5   6
HETATM    6  C   UNL     1      -6.729  12.063  68.934  1.00  0.00    -0.093 C  
BRANCH   6   7
HETATM    7  C   UNL     1      -7.173  10.622  68.877  1.00  0.00    -0.090 A  
HETATM    8  C   UNL     1      -8.072   7.986  68.753  1.00  0.00    -0.125 A  
HETATM    9  C   UNL     1      -7.187   8.467  67.792  1.00  0.00    -0.088 A  
HETATM   10  O   UNL     1      -8.534   6.702  68.675  1.00  0.00    -0.122 OA 
HETATM   11  C   UNL     1      -8.504   8.797  69.790  1.00  0.00    -0.129 A  
HETATM   12  H   UNL     1      -7.115   6.714  66.760  1.00  0.00     0.000 HD 
HETATM   13  C   UNL     1      -6.729   9.780  67.847  1.00  0.00    -0.065 A  
HETATM   14  O   UNL     1      -6.802   7.609  66.798  1.00  0.00    -0.064 OA 
HETATM   15  C   UNL     1      -8.050  10.117  69.853  1.00  0.00    -0.139 A  
HETATM   16  H   UNL     1      -9.138   6.374  69.331  1.00  0.00     0.000 HD 
ENDBRANCH   6   7
ENDBRANCH   5   6
ENDBRANCH   3   5
ENDBRANCH   2   3
BRANCH   2  17
HETATM   17  C   UNL     1      -9.366  14.340  66.649  1.00  0.00    -0.302 C  
BRANCH  17  18
HETATM   18  C   UNL     1     -10.696  13.734  66.183  1.00  0.00    -0.283 C  
BRANCH  18  19
HETATM   19  C   UNL     1     -10.672  12.228  66.313  1.00  0.00    -0.293 A  
HETATM   20  C   UNL     1     -10.096  11.436  65.311  1.00  0.00    -0.315 A  
HETATM   21  C   UNL     1     -11.182  11.610  67.463  1.00  0.00    -0.355 A  
HETATM   22  C   UNL     1     -11.113  10.223  67.614  1.00  0.00    -0.319 A  
HETATM   23  H   UNL     1     -10.025   7.576  66.041  1.00  0.00     0.000 HD 
HETATM   24  C   UNL     1     -10.028  10.049  65.460  1.00  0.00    -0.367 A  
HETATM   25  C   UNL     1     -10.530   9.456  66.611  1.00  0.00    -0.168 A  
HETATM   26  O   UNL     1     -10.424   8.100  66.726  1.00  0.00    -0.326 OA 
ENDBRANCH  18  19
ENDBRANCH  17  18
ENDBRANCH   2  17
TORSDOF 7
ENDMDL
MODEL      289
REMARK 921   NORMALIZED FREE ENERGY PREDICTED BY IDOCK:   -3.67 KCAL/MOL
REMARK 922        TOTAL FREE ENERGY PREDICTED BY IDOCK:   -6.33 KCAL/MOL
REMARK 923 INTER-LIGAND FREE ENERGY PREDICTED BY IDOCK:   -5.63 KCAL/MOL
REMARK 924 INTRA-LIGAND FREE ENERGY PREDICTED BY IDOCK:   -0.69 KCAL/MOL
REMARK 927      BINDING AFFINITY PREDICTED BY RF-SCORE:    0.00 PKD
ROOT
HETATM    1  C   UNL     1     -11.498  10.266  70.831  1.00  0.00    -0.425 C  
HETATM    2  C   UNL     1     -11.023   9.512  69.584  1.00  0.00    -0.212 C  
ENDROOT
BRANCH   2   3
HETATM    3  N   UNL     1      -9.655   8.993  69.736  1.00  0.00    -0.169 NA 
HETATM    4  H   UNL     1      -9.676   8.062  70.150  1.00  0.00     0.000 HD 
BRANCH   3   5
HETATM    5  C   UNL     1      -8.851   8.981  68.503  1.00  0.00    -0.134 C  
BRANCH   5   6
HETATM    6  C   UNL     1      -8.085   7.672  68.270  1.00  0.00    -0.124 C  
BRANCH   6   7
HETATM    7  C   UNL     1      -8.826   6.717  67.367  1.00  0.00    -0.117 A  
HETATM    8  C   UNL     1     -10.252   5.014  65.683  1.00  0.00    -0.054 A  
HETATM    9  C   UNL     1      -8.984   5.457  65.316  1.00  0.00    -0.098 A  
HETATM   10  O   UNL     1     -10.961   4.202  64.844  1.00  0.00    -0.628 OA 
HETATM   11  C   UNL     1     -10.815   5.394  66.891  1.00  0.00    -0.153 A  
HETATM   12  H   UNL     1      -8.983   4.462  63.540  1.00  0.00     0.000 HD 
HETATM   13  C   UNL     1      -8.262   6.304  66.151  1.00  0.00    -0.121 A  
HETATM   14  O   UNL     1      -8.490   5.040  64.110  1.00  0.00    -0.132 OA 
HETATM   15  C   UNL     1     -10.098   6.245  67.736  1.00  0.00    -0.174 A  
HETATM   16  H   UNL     1     -11.826   3.899  65.094  1.00  0.00     0.000 HD 
ENDBRANCH   6   7
ENDBRANCH   5   6
ENDBRANCH   3   5
ENDBRANCH   2   3
BRANCH   2  17
HETATM   17  C   UNL     1     -11.098  10.452  68.364  1.00  0.00    -0.322 C  
BRANCH  17  18
HETATM   18  C   UNL     1     -12.114  11.590  68.530  1.00  0.00    -0.159 C  
BRANCH  18  19
HETATM   19  C   UNL     1     -11.859  12.687  67.523  1.00  0.00    -0.396 A  
HETATM   20  C   UNL     1     -11.463  13.963  67.944  1.00  0.00    -0.350 A  
HETATM   21  C   UNL     1     -11.966  12.424  66.149  1.00  0.00    -0.397 A  
HETATM   22  C   UNL     1     -11.677  13.418  65.212  1.00  0.00    -0.346 A  
HETATM   23  H   UNL     1     -10.695  16.529  65.070  1.00  0.00     0.000 HD 
HETATM   24  C   UNL     1     -11.176  14.958  67.007  1.00  0.00    -0.344 A  
HETATM   25  C   UNL     1     -11.278  14.676  65.651  1.00  0.00    -0.342 A  
HETATM   26  O   UNL     1     -10.968  15.670  64.769  1.00  0.00    -0.436 OA 
ENDBRANCH  18  19
ENDBRANCH  17  18
ENDBRANCH   2  17
TORSDOF 7
ENDMDL
MODEL      290
REMARK 921   NORMALIZED FREE ENERGY PREDICTED BY IDOCK:   -3.66 KCAL/MOL
REMARK 922        TOTAL FREE ENERGY PREDICTED BY IDOCK:   -6.33 KCAL/MOL
REMARK 923 INTER-LIGAND FREE ENERGY PREDICTED BY IDOCK:   -5.21 KCAL/MOL
REMARK 924 INTRA-LIGAND FREE ENERGY PREDICTED BY IDOCK:   -1.11 KCAL/MOL
REMARK 927      BINDING AFFINITY PREDICTED BY RF-SCORE:    0.00 PKD
ROOT
HETATM    1  C   UNL     1      -7.390   5.170  66.186  1.00  0.00    -0.081 C  
HETATM    2  C   UNL     1      -7.353   6.529  66.893  1.00  0.00    -0.079 C  
ENDROOT
BRANCH   2   3
HETATM    3  N   UNL     1      -7.938   6.470  68.243  1.00  0.00    -0.109 NA 
HETATM    4  H   UNL     1      -7.833   5.532  68.630  1.00  0.00     0.000 HD 
BRANCH   3   5
HETATM    5  C   UNL     1      -7.422   7.469  69.191  1.00  0.00    -0.098 C  
BRANCH   5   6
HETATM    6  C   UNL     1      -7.597   7.081  70.665  1.00  0.00    -0.093 C  
BRANCH   6   7
HETATM    7  C   UNL     1      -9.045   6.910  71.053  1.00  0.00    -0.155 A  
HETATM    8  C   UNL     1     -11.696   6.580  71.850  1.00  0.00    -0.324 A  
HETATM    9  C   UNL     1     -11.247   7.825  71.421  1.00  0.00    -0.246 A  
HETATM   10  O   UNL     1     -12.988   6.426  72.267  1.00  0.00    -0.545 OA 
HETATM   11  C   UNL     1     -10.845   5.486  71.872  1.00  0.00    -0.286 A  
HETATM   12  H   UNL     1     -13.043   8.740  71.700  1.00  0.00     0.000 HD 
HETATM   13  C   UNL     1      -9.926   8.000  71.017  1.00  0.00    -0.208 A  
HETATM   14  O   UNL     1     -12.143   8.859  71.424  1.00  0.00    -0.297 OA 
HETATM   15  C   UNL     1      -9.517   5.652  71.468  1.00  0.00    -0.177 A  
HETATM   16  H   UNL     1     -13.295   5.576  72.560  1.00  0.00     0.000 HD 
ENDBRANCH   6   7
ENDBRANCH   5   6
ENDBRANCH   3   5
ENDBRANCH   2   3
BRANCH   2  17
HETATM   17  C   UNL     1      -8.108   7.566  66.038  1.00  0.00    -0.123 C  
BRANCH  17  18
HETATM   18  C   UNL     1      -9.606   7.649  66.358  1.00  0.00    -0.223 C  
BRANCH  18  19
HETATM   19  C   UNL     1     -10.016   9.078  66.629  1.00  0.00    -0.349 A  
HETATM   20  C   UNL     1      -9.745  10.087  65.694  1.00  0.00    -0.336 A  
HETATM   21  C   UNL     1     -10.721   9.402  67.798  1.00  0.00    -0.290 A  
HETATM   22  C   UNL     1     -11.152  10.710  68.027  1.00  0.00    -0.361 A  
HETATM   23  H   UNL     1     -11.112  13.654  66.613  1.00  0.00     0.000 HD 
HETATM   24  C   UNL     1     -10.174  11.396  65.924  1.00  0.00    -0.292 A  
HETATM   25  C   UNL     1     -10.879  11.695  67.083  1.00  0.00    -0.261 A  
HETATM   26  O   UNL     1     -11.298  12.981  67.259  1.00  0.00    -0.276 OA 
ENDBRANCH  18  19
ENDBRANCH  17  18
ENDBRANCH   2  17
TORSDOF 7
ENDMDL
MODEL      291
REMARK 921   NORMALIZED FREE ENERGY PREDICTED BY IDOCK:   -3.66 KCAL/MOL
REMARK 922        TOTAL FREE ENERGY PREDICTED BY IDOCK:   -6.32 KCAL/MOL
REMARK 923 INTER-LIGAND FREE ENERGY PREDICTED BY IDOCK:   -5.70 KCAL/MOL
REMARK 924 INTRA-LIGAND FREE ENERGY PREDICTED BY IDOCK:   -0.62 KCAL/MOL
REMARK 927      BINDING AFFINITY PREDICTED BY RF-SCORE:    0.00 PKD
ROOT
HETATM    1  C   UNL     1      -8.904  15.108  66.302  1.00  0.00    -0.211 C  
HETATM    2  C   UNL     1      -9.707  16.067  67.188  1.00  0.00    -0.228 C  
ENDROOT
BRANCH   2   3
HETATM    3  N   UNL     1      -9.295  15.997  68.598  1.00  0.00    -0.205 NA 
HETATM    4  H   UNL     1      -8.889  15.083  68.801  1.00  0.00     0.000 HD 
BRANCH   3   5
HETATM    5  C   UNL     1      -8.382  17.064  69.036  1.00  0.00    -0.125 C  
BRANCH   5   6
HETATM    6  C   UNL     1      -7.055  17.107  68.267  1.00  0.00    -0.197 C  
BRANCH   6   7
HETATM    7  C   UNL     1      -7.033  18.178  67.204  1.00  0.00    -0.211 A  
HETATM    8  C   UNL     1      -6.958  20.209  65.296  1.00  0.00    -0.267 A  
HETATM    9  C   UNL     1      -6.160  19.079  65.143  1.00  0.00    -0.279 A  
HETATM   10  O   UNL     1      -6.899  21.216  64.375  1.00  0.00    -0.535 OA 
HETATM   11  C   UNL     1      -7.810  20.335  66.382  1.00  0.00    -0.248 A  
HETATM   12  H   UNL     1      -5.321  19.718  63.402  1.00  0.00     0.000 HD 
HETATM   13  C   UNL     1      -6.193  18.057  66.087  1.00  0.00    -0.262 A  
HETATM   14  O   UNL     1      -5.344  19.021  64.047  1.00  0.00    -0.229 OA 
HETATM   15  C   UNL     1      -7.850  19.314  67.335  1.00  0.00    -0.283 A  
HETATM   16  H   UNL     1      -7.443  21.988  64.479  1.00  0.00     0.000 HD 
ENDBRANCH   6   7
ENDBRANCH   5   6
ENDBRANCH   3   5
ENDBRANCH   2   3
BRANCH   2  17
HETATM   17  C   UNL     1     -11.208  15.738  67.060  1.00  0.00    -0.082 C  
BRANCH  17  18
HETATM   18  C   UNL     1     -11.715  14.768  68.136  1.00  0.00    -0.353 C  
BRANCH  18  19
HETATM   19  C   UNL     1     -11.374  13.341  67.772  1.00  0.00    -0.327 A  
HETATM   20  C   UNL     1     -10.806  12.481  68.721  1.00  0.00    -0.276 A  
HETATM   21  C   UNL     1     -11.670  12.847  66.494  1.00  0.00    -0.453 A  
HETATM   22  C   UNL     1     -11.410  11.514  66.169  1.00  0.00    -0.200 A  
HETATM   23  H   UNL     1     -10.220   8.787  67.516  1.00  0.00     0.000 HD 
HETATM   24  C   UNL     1     -10.543  11.148  68.397  1.00  0.00    -0.223 A  
HETATM   25  C   UNL     1     -10.853  10.675  67.129  1.00  0.00    -0.270 A  
HETATM   26  O   UNL     1     -10.600   9.361  66.861  1.00  0.00    -0.231 OA 
ENDBRANCH  18  19
ENDBRANCH  17  18
ENDBRANCH   2  17
TORSDOF 7
ENDMDL
MODEL      292
REMARK 921   NORMALIZED FREE ENERGY PREDICTED BY IDOCK:   -3.61 KCAL/MOL
REMARK 922        TOTAL FREE ENERGY PREDICTED BY IDOCK:   -6.25 KCAL/MOL
REMARK 923 INTER-LIGAND FREE ENERGY PREDICTED BY IDOCK:   -5.58 KCAL/MOL
REMARK 924 INTRA-LIGAND FREE ENERGY PREDICTED BY IDOCK:   -0.66 KCAL/MOL
REMARK 927      BINDING AFFINITY PREDICTED BY RF-SCORE:    0.00 PKD
ROOT
HETATM    1  C   UNL     1     -12.104  12.779  64.051  1.00  0.00    -0.533 C  
HETATM    2  C   UNL     1     -10.735  13.452  64.208  1.00  0.00    -0.355 C  
ENDROOT
BRANCH   2   3
HETATM    3  N   UNL     1      -9.667  12.480  64.488  1.00  0.00    -0.519 NA 
HETATM    4  H   UNL     1      -9.018  12.859  65.178  1.00  0.00     0.000 HD 
BRANCH   3   5
HETATM    5  C   UNL     1     -10.129  11.147  64.907  1.00  0.00    -0.289 C  
BRANCH   5   6
HETATM    6  C   UNL     1      -9.367   9.987  64.253  1.00  0.00    -0.345 C  
BRANCH   6   7
HETATM    7  C   UNL     1      -8.591   9.165  65.252  1.00  0.00    -0.191 A  
HETATM    8  C   UNL     1      -7.095   7.637  67.041  1.00  0.00    -0.084 A  
HETATM    9  C   UNL     1      -7.304   8.991  67.286  1.00  0.00    -0.084 A  
HETATM   10  O   UNL     1      -6.339   6.895  67.904  1.00  0.00    -0.039 OA 
HETATM   11  C   UNL     1      -7.638   7.025  65.922  1.00  0.00    -0.097 A  
HETATM   12  H   UNL     1      -6.228   9.001  69.014  1.00  0.00     0.000 HD 
HETATM   13  C   UNL     1      -8.053   9.762  66.402  1.00  0.00    -0.116 A  
HETATM   14  O   UNL     1      -6.739   9.528  68.411  1.00  0.00    -0.057 OA 
HETATM   15  C   UNL     1      -8.391   7.791  65.028  1.00  0.00    -0.094 A  
HETATM   16  H   UNL     1      -6.196   5.971  67.737  1.00  0.00     0.000 HD 
ENDBRANCH   6   7
ENDBRANCH   5   6
ENDBRANCH   3   5
ENDBRANCH   2   3
BRANCH   2  17
HETATM   17  C   UNL     1     -10.810  14.494  65.342  1.00  0.00    -0.362 C  
BRANCH  17  18
HETATM   18  C   UNL     1     -12.091  14.394  66.181  1.00  0.00    -0.373 C  
BRANCH  18  19
HETATM   19  C   UNL     1     -11.844  14.874  67.593  1.00  0.00    -0.268 A  
HETATM   20  C   UNL     1     -11.230  16.111  67.828  1.00  0.00    -0.199 A  
HETATM   21  C   UNL     1     -12.276  14.108  68.685  1.00  0.00    -0.216 A  
HETATM   22  C   UNL     1     -12.102  14.572  69.991  1.00  0.00    -0.395 A  
HETATM   23  H   UNL     1     -10.910  17.150  71.603  1.00  0.00     0.000 HD 
HETATM   24  C   UNL     1     -11.053  16.575  69.133  1.00  0.00    -0.270 A  
HETATM   25  C   UNL     1     -11.496  15.806  70.202  1.00  0.00    -0.361 A  
HETATM   26  O   UNL     1     -11.324  16.306  71.459  1.00  0.00    -0.338 OA 
ENDBRANCH  18  19
ENDBRANCH  17  18
ENDBRANCH   2  17
TORSDOF 7
ENDMDL
MODEL      293
REMARK 921   NORMALIZED FREE ENERGY PREDICTED BY IDOCK:   -3.60 KCAL/MOL
REMARK 922        TOTAL FREE ENERGY PREDICTED BY IDOCK:   -6.23 KCAL/MOL
REMARK 923 INTER-LIGAND FREE ENERGY PREDICTED BY IDOCK:   -5.51 KCAL/MOL
REMARK 924 INTRA-LIGAND FREE ENERGY PREDICTED BY IDOCK:   -0.72 KCAL/MOL
REMARK 927      BINDING AFFINITY PREDICTED BY RF-SCORE:    0.00 PKD
ROOT
HETATM    1  C   UNL     1      -8.627  10.325  69.156  1.00  0.00    -0.167 C  
HETATM    2  C   UNL     1      -8.617  10.233  67.626  1.00  0.00    -0.118 C  
ENDROOT
BRANCH   2   3
HETATM    3  N   UNL     1      -7.312   9.795  67.104  1.00  0.00    -0.087 NA 
HETATM    4  H   UNL     1      -6.558  10.190  67.666  1.00  0.00     0.000 HD 
BRANCH   3   5
HETATM    5  C   UNL     1      -7.145   8.338  66.985  1.00  0.00    -0.079 C  
BRANCH   5   6
HETATM    6  C   UNL     1      -8.460   7.572  66.788  1.00  0.00    -0.124 C  
BRANCH   6   7
HETATM    7  C   UNL     1      -8.661   6.487  67.817  1.00  0.00    -0.117 A  
HETATM    8  C   UNL     1      -9.105   4.518  69.740  1.00  0.00    -0.108 A  
HETATM    9  C   UNL     1      -9.136   4.191  68.388  1.00  0.00    -0.132 A  
HETATM   10  O   UNL     1      -9.350   3.559  70.681  1.00  0.00    -0.130 OA 
HETATM   11  C   UNL     1      -8.837   5.814  70.152  1.00  0.00    -0.144 A  
HETATM   12  H   UNL     1      -9.557   2.227  68.715  1.00  0.00     0.000 HD 
HETATM   13  C   UNL     1      -8.911   5.165  67.419  1.00  0.00    -0.109 A  
HETATM   14  O   UNL     1      -9.404   2.892  68.055  1.00  0.00    -0.194 OA 
HETATM   15  C   UNL     1      -8.611   6.799  69.187  1.00  0.00    -0.131 A  
HETATM   16  H   UNL     1      -9.329   3.781  71.605  1.00  0.00     0.000 HD 
ENDBRANCH   6   7
ENDBRANCH   5   6
ENDBRANCH   3   5
ENDBRANCH   2   3
BRANCH   2  17
HETATM   17  C   UNL     1      -8.986  11.608  67.033  1.00  0.00    -0.182 C  
BRANCH  17  18
HETATM   18  C   UNL     1     -10.426  11.680  66.508  1.00  0.00    -0.276 C  
BRANCH  18  19
HETATM   19  C   UNL     1     -10.725  13.055  65.955  1.00  0.00    -0.292 A  
HETATM   20  C   UNL     1      -9.896  14.142  66.261  1.00  0.00    -0.321 A  
HETATM   21  C   UNL     1     -11.809  13.246  65.085  1.00  0.00    -0.377 A  
HETATM   22  C   UNL     1     -12.057  14.501  64.526  1.00  0.00    -0.501 A  
HETATM   23  H   UNL     1     -10.838  17.531  64.511  1.00  0.00     0.000 HD 
HETATM   24  C   UNL     1     -10.145  15.398  65.704  1.00  0.00    -0.406 A  
HETATM   25  C   UNL     1     -11.217  15.566  64.838  1.00  0.00    -0.389 A  
HETATM   26  O   UNL     1     -11.412  16.804  64.299  1.00  0.00    -1.125 OA 
ENDBRANCH  18  19
ENDBRANCH  17  18
ENDBRANCH   2  17
TORSDOF 7
ENDMDL
MODEL      294
REMARK 921   NORMALIZED FREE ENERGY PREDICTED BY IDOCK:   -3.58 KCAL/MOL
REMARK 922        TOTAL FREE ENERGY PREDICTED BY IDOCK:   -6.21 KCAL/MOL
REMARK 923 INTER-LIGAND FREE ENERGY PREDICTED BY IDOCK:   -5.42 KCAL/MOL
REMARK 924 INTRA-LIGAND FREE ENERGY PREDICTED BY IDOCK:   -0.79 KCAL/MOL
REMARK 927      BINDING AFFINITY PREDICTED BY RF-SCORE:    0.00 PKD
ROOT
HETATM    1  C   UNL     1      -8.713  10.520  69.226  1.00  0.00    -0.135 C  
HETATM    2  C   UNL     1      -8.517  10.544  67.706  1.00  0.00    -0.114 C  
ENDROOT
BRANCH   2   3
HETATM    3  N   UNL     1      -7.110  10.342  67.324  1.00  0.00    -0.087 NA 
HETATM    4  H   UNL     1      -6.515  10.361  68.152  1.00  0.00     0.000 HD 
BRANCH   3   5
HETATM    5  C   UNL     1      -6.845   9.127  66.538  1.00  0.00    -0.080 C  
BRANCH   5   6
HETATM    6  C   UNL     1      -7.856   8.878  65.411  1.00  0.00    -0.102 C  
BRANCH   6   7
HETATM    7  C   UNL     1      -8.567   7.554  65.550  1.00  0.00    -0.102 A  
HETATM    8  C   UNL     1      -9.952   5.146  65.785  1.00  0.00    -0.068 A  
HETATM    9  C   UNL     1      -9.021   5.318  64.764  1.00  0.00    -0.008 A  
HETATM   10  O   UNL     1     -10.651   3.976  65.882  1.00  0.00    -0.411 OA 
HETATM   11  C   UNL     1     -10.192   6.155  66.705  1.00  0.00    -0.264 A  
HETATM   12  H   UNL     1      -9.312   3.464  63.978  1.00  0.00     0.000 HD 
HETATM   13  C   UNL     1      -8.321   6.515  64.641  1.00  0.00     0.007 A  
HETATM   14  O   UNL     1      -8.834   4.280  63.893  1.00  0.00    -0.124 OA 
HETATM   15  C   UNL     1      -9.494   7.360  66.589  1.00  0.00    -0.240 A  
HETATM   16  H   UNL     1     -11.287   3.858  66.578  1.00  0.00     0.000 HD 
ENDBRANCH   6   7
ENDBRANCH   5   6
ENDBRANCH   3   5
ENDBRANCH   2   3
BRANCH   2  17
HETATM   17  C   UNL     1      -9.025  11.889  67.150  1.00  0.00    -0.178 C  
BRANCH  17  18
HETATM   18  C   UNL     1     -10.502  11.859  66.733  1.00  0.00    -0.253 C  
BRANCH  18  19
HETATM   19  C   UNL     1     -10.868  13.112  65.972  1.00  0.00    -0.287 A  
HETATM   20  C   UNL     1      -9.969  14.184  65.888  1.00  0.00    -0.331 A  
HETATM   21  C   UNL     1     -12.094  13.195  65.295  1.00  0.00    -0.471 A  
HETATM   22  C   UNL     1     -12.414  14.327  64.543  1.00  0.00    -0.357 A  
HETATM   23  H   UNL     1     -11.147  17.210  63.676  1.00  0.00     0.000 HD 
HETATM   24  C   UNL     1     -10.290  15.317  65.138  1.00  0.00    -0.413 A  
HETATM   25  C   UNL     1     -11.505  15.377  64.467  1.00  0.00    -0.311 A  
HETATM   26  O   UNL     1     -11.769  16.493  63.728  1.00  0.00    -1.086 OA 
ENDBRANCH  18  19
ENDBRANCH  17  18
ENDBRANCH   2  17
TORSDOF 7
ENDMDL
MODEL      295
REMARK 921   NORMALIZED FREE ENERGY PREDICTED BY IDOCK:   -3.58 KCAL/MOL
REMARK 922        TOTAL FREE ENERGY PREDICTED BY IDOCK:   -6.21 KCAL/MOL
REMARK 923 INTER-LIGAND FREE ENERGY PREDICTED BY IDOCK:   -5.53 KCAL/MOL
REMARK 924 INTRA-LIGAND FREE ENERGY PREDICTED BY IDOCK:   -0.68 KCAL/MOL
REMARK 927      BINDING AFFINITY PREDICTED BY RF-SCORE:    0.00 PKD
ROOT
HETATM    1  C   UNL     1      -9.088  11.024  68.195  1.00  0.00    -0.155 C  
HETATM    2  C   UNL     1      -9.947  10.248  67.190  1.00  0.00    -0.197 C  
ENDROOT
BRANCH   2   3
HETATM    3  N   UNL     1     -11.378  10.294  67.530  1.00  0.00    -0.510 NA 
HETATM    4  H   UNL     1     -11.588   9.613  68.260  1.00  0.00     0.000 HD 
BRANCH   3   5
HETATM    5  C   UNL     1     -11.887  11.620  67.913  1.00  0.00    -0.203 C  
BRANCH   5   6
HETATM    6  C   UNL     1     -12.014  12.603  66.742  1.00  0.00    -0.362 C  
BRANCH   6   7
HETATM    7  C   UNL     1     -11.647  14.015  67.126  1.00  0.00    -0.397 A  
HETATM    8  C   UNL     1     -10.903  16.595  67.878  1.00  0.00    -0.321 A  
HETATM    9  C   UNL     1     -10.833  16.210  66.541  1.00  0.00    -0.139 A  
HETATM   10  O   UNL     1     -10.511  17.849  68.248  1.00  0.00    -0.374 OA 
HETATM   11  C   UNL     1     -11.357  15.714  68.847  1.00  0.00    -0.341 A  
HETATM   12  H   UNL     1     -10.123  18.007  65.902  1.00  0.00     0.000 HD 
HETATM   13  C   UNL     1     -11.207  14.926  66.155  1.00  0.00    -0.325 A  
HETATM   14  O   UNL     1     -10.378  17.131  65.638  1.00  0.00    -0.557 OA 
HETATM   15  C   UNL     1     -11.733  14.423  68.469  1.00  0.00    -0.370 A  
HETATM   16  H   UNL     1     -10.558  18.112  69.160  1.00  0.00     0.000 HD 
ENDBRANCH   6   7
ENDBRANCH   5   6
ENDBRANCH   3   5
ENDBRANCH   2   3
BRANCH   2  17
HETATM   17  C   UNL     1      -9.465   8.784  67.135  1.00  0.00    -0.208 C  
BRANCH  17  18
HETATM   18  C   UNL     1     -10.579   7.786  66.794  1.00  0.00    -0.248 C  
BRANCH  18  19
HETATM   19  C   UNL     1     -10.290   6.434  67.403  1.00  0.00    -0.257 A  
HETATM   20  C   UNL     1     -10.587   5.258  66.701  1.00  0.00    -0.334 A  
HETATM   21  C   UNL     1      -9.672   6.341  68.659  1.00  0.00    -0.137 A  
HETATM   22  C   UNL     1      -9.352   5.095  69.202  1.00  0.00    -0.171 A  
HETATM   23  H   UNL     1      -9.537   1.916  68.480  1.00  0.00     0.000 HD 
HETATM   24  C   UNL     1     -10.268   4.012  67.244  1.00  0.00     0.341 A  
HETATM   25  C   UNL     1      -9.648   3.941  68.485  1.00  0.00    -0.111 A  
HETATM   26  O   UNL     1      -9.335   2.705  68.970  1.00  0.00    -0.149 OA 
ENDBRANCH  18  19
ENDBRANCH  17  18
ENDBRANCH   2  17
TORSDOF 7
ENDMDL
MODEL      296
REMARK 921   NORMALIZED FREE ENERGY PREDICTED BY IDOCK:   -3.54 KCAL/MOL
REMARK 922        TOTAL FREE ENERGY PREDICTED BY IDOCK:   -6.14 KCAL/MOL
REMARK 923 INTER-LIGAND FREE ENERGY PREDICTED BY IDOCK:   -4.75 KCAL/MOL
REMARK 924 INTRA-LIGAND FREE ENERGY PREDICTED BY IDOCK:   -1.40 KCAL/MOL
REMARK 927      BINDING AFFINITY PREDICTED BY RF-SCORE:    0.00 PKD
ROOT
HETATM    1  C   UNL     1      -8.159   4.035  66.226  1.00  0.00    -0.098 C  
HETATM    2  C   UNL     1      -8.089   5.440  66.834  1.00  0.00    -0.105 C  
ENDROOT
BRANCH   2   3
HETATM    3  N   UNL     1      -8.177   5.415  68.302  1.00  0.00    -0.095 NA 
HETATM    4  H   UNL     1      -8.908   6.050  68.622  1.00  0.00     0.000 HD 
BRANCH   3   5
HETATM    5  C   UNL     1      -8.372   4.082  68.894  1.00  0.00    -0.077 C  
BRANCH   5   6
HETATM    6  C   UNL     1      -9.757   3.872  69.521  1.00  0.00    -0.191 C  
BRANCH   6   7
HETATM    7  C   UNL     1     -10.036   4.835  70.648  1.00  0.00    -0.288 A  
HETATM    8  C   UNL     1     -10.622   6.569  72.751  1.00  0.00    -0.230 A  
HETATM    9  C   UNL     1      -9.496   5.754  72.812  1.00  0.00    -0.145 A  
HETATM   10  O   UNL     1     -10.923   7.398  73.793  1.00  0.00    -0.548 OA 
HETATM   11  C   UNL     1     -11.456   6.546  71.643  1.00  0.00    -0.345 A  
HETATM   12  H   UNL     1      -8.925   6.421  74.648  1.00  0.00     0.000 HD 
HETATM   13  C   UNL     1      -9.192   4.888  71.766  1.00  0.00    -0.175 A  
HETATM   14  O   UNL     1      -8.717   5.830  73.935  1.00  0.00    -0.118 OA 
HETATM   15  C   UNL     1     -11.159   5.680  70.588  1.00  0.00    -0.195 A  
HETATM   16  H   UNL     1     -11.692   7.955  73.752  1.00  0.00     0.000 HD 
ENDBRANCH   6   7
ENDBRANCH   5   6
ENDBRANCH   3   5
ENDBRANCH   2   3
BRANCH   2  17
HETATM   17  C   UNL     1      -9.228   6.301  66.252  1.00  0.00    -0.165 C  
BRANCH  17  18
HETATM   18  C   UNL     1     -10.287   6.695  67.290  1.00  0.00    -0.296 C  
BRANCH  18  19
HETATM   19  C   UNL     1     -10.177   8.162  67.636  1.00  0.00    -0.296 A  
HETATM   20  C   UNL     1     -10.341   9.142  66.648  1.00  0.00    -0.289 A  
HETATM   21  C   UNL     1      -9.958   8.561  68.963  1.00  0.00    -0.197 A  
HETATM   22  C   UNL     1      -9.911   9.916  69.299  1.00  0.00    -0.217 A  
HETATM   23  H   UNL     1     -10.185  12.859  67.911  1.00  0.00     0.000 HD 
HETATM   24  C   UNL     1     -10.292  10.497  66.982  1.00  0.00    -0.289 A  
HETATM   25  C   UNL     1     -10.085  10.872  68.303  1.00  0.00    -0.174 A  
HETATM   26  O   UNL     1     -10.066  12.206  68.591  1.00  0.00    -0.212 OA 
ENDBRANCH  18  19
ENDBRANCH  17  18
ENDBRANCH   2  17
TORSDOF 7
ENDMDL
MODEL      297
REMARK 921   NORMALIZED FREE ENERGY PREDICTED BY IDOCK:   -3.53 KCAL/MOL
REMARK 922        TOTAL FREE ENERGY PREDICTED BY IDOCK:   -6.13 KCAL/MOL
REMARK 923 INTER-LIGAND FREE ENERGY PREDICTED BY IDOCK:   -5.39 KCAL/MOL
REMARK 924 INTRA-LIGAND FREE ENERGY PREDICTED BY IDOCK:   -0.74 KCAL/MOL
REMARK 927      BINDING AFFINITY PREDICTED BY RF-SCORE:    0.00 PKD
ROOT
HETATM    1  C   UNL     1     -10.788  13.768  68.720  1.00  0.00    -0.281 C  
HETATM    2  C   UNL     1     -10.378  14.469  67.420  1.00  0.00    -0.252 C  
ENDROOT
BRANCH   2   3
HETATM    3  N   UNL     1     -11.360  14.264  66.344  1.00  0.00    -0.334 NA 
HETATM    4  H   UNL     1     -11.639  15.161  65.947  1.00  0.00     0.000 HD 
BRANCH   3   5
HETATM    5  C   UNL     1     -10.934  13.348  65.274  1.00  0.00    -0.295 C  
BRANCH   5   6
HETATM    6  C   UNL     1     -11.549  11.946  65.369  1.00  0.00    -0.284 C  
BRANCH   6   7
HETATM    7  C   UNL     1     -10.509  10.853  65.371  1.00  0.00    -0.291 A  
HETATM    8  C   UNL     1      -8.645   8.780  65.345  1.00  0.00    -0.178 A  
HETATM    9  C   UNL     1      -8.514   9.846  64.460  1.00  0.00    -0.175 A  
HETATM   10  O   UNL     1      -7.747   7.751  65.312  1.00  0.00    -0.089 OA 
HETATM   11  C   UNL     1      -9.685   8.740  66.260  1.00  0.00    -0.342 A  
HETATM   12  H   UNL     1      -6.833   9.110  63.581  1.00  0.00     0.000 HD 
HETATM   13  C   UNL     1      -9.437  10.889  64.467  1.00  0.00    -0.284 A  
HETATM   14  O   UNL     1      -7.462   9.821  63.586  1.00  0.00    -0.120 OA 
HETATM   15  C   UNL     1     -10.617   9.781  66.275  1.00  0.00    -0.070 A  
HETATM   16  H   UNL     1      -7.835   7.023  65.916  1.00  0.00     0.000 HD 
ENDBRANCH   6   7
ENDBRANCH   5   6
ENDBRANCH   3   5
ENDBRANCH   2   3
BRANCH   2  17
HETATM   17  C   UNL     1      -8.995  13.948  66.978  1.00  0.00    -0.251 C  
BRANCH  17  18
HETATM   18  C   UNL     1      -7.869  14.974  67.161  1.00  0.00    -0.224 C  
BRANCH  18  19
HETATM   19  C   UNL     1      -8.433  16.369  67.295  1.00  0.00    -0.196 A  
HETATM   20  C   UNL     1      -8.533  16.980  68.552  1.00  0.00    -0.257 A  
HETATM   21  C   UNL     1      -8.817  17.090  66.154  1.00  0.00    -0.251 A  
HETATM   22  C   UNL     1      -9.286  18.400  66.266  1.00  0.00    -0.217 A  
HETATM   23  H   UNL     1      -9.861  20.678  68.534  1.00  0.00     0.000 HD 
HETATM   24  C   UNL     1      -9.004  18.290  68.665  1.00  0.00    -0.303 A  
HETATM   25  C   UNL     1      -9.370  18.990  67.523  1.00  0.00    -0.298 A  
HETATM   26  O   UNL     1      -9.804  20.274  67.676  1.00  0.00    -0.400 OA 
ENDBRANCH  18  19
ENDBRANCH  17  18
ENDBRANCH   2  17
TORSDOF 7
ENDMDL
MODEL      298
REMARK 921   NORMALIZED FREE ENERGY PREDICTED BY IDOCK:   -3.51 KCAL/MOL
REMARK 922        TOTAL FREE ENERGY PREDICTED BY IDOCK:   -6.10 KCAL/MOL
REMARK 923 INTER-LIGAND FREE ENERGY PREDICTED BY IDOCK:   -5.37 KCAL/MOL
REMARK 924 INTRA-LIGAND FREE ENERGY PREDICTED BY IDOCK:   -0.73 KCAL/MOL
REMARK 927      BINDING AFFINITY PREDICTED BY RF-SCORE:    0.00 PKD
ROOT
HETATM    1  C   UNL     1      -7.026  14.034  68.052  1.00  0.00    -0.147 C  
HETATM    2  C   UNL     1      -8.508  14.422  68.121  1.00  0.00    -0.160 C  
ENDROOT
BRANCH   2   3
HETATM    3  N   UNL     1      -9.368  13.273  68.447  1.00  0.00    -0.305 NA 
HETATM    4  H   UNL     1     -10.130  13.201  67.772  1.00  0.00     0.000 HD 
BRANCH   3   5
HETATM    5  C   UNL     1      -8.670  11.983  68.562  1.00  0.00    -0.095 C  
BRANCH   5   6
HETATM    6  C   UNL     1      -9.468  10.790  68.019  1.00  0.00    -0.166 C  
BRANCH   6   7
HETATM    7  C   UNL     1      -9.364  10.656  66.520  1.00  0.00    -0.192 A  
HETATM    8  C   UNL     1      -9.176  10.324  63.758  1.00  0.00    -0.275 A  
HETATM    9  C   UNL     1     -10.305  10.919  64.314  1.00  0.00    -0.368 A  
HETATM   10  O   UNL     1      -9.097  10.137  62.407  1.00  0.00    -0.238 OA 
HETATM   11  C   UNL     1      -8.126   9.906  64.560  1.00  0.00    -0.149 A  
HETATM   12  H   UNL     1     -11.232  11.190  62.522  1.00  0.00     0.000 HD 
HETATM   13  C   UNL     1     -10.407  11.094  65.691  1.00  0.00    -0.311 A  
HETATM   14  O   UNL     1     -11.301  11.310  63.461  1.00  0.00    -0.314 OA 
HETATM   15  C   UNL     1      -8.219  10.076  65.944  1.00  0.00    -0.128 A  
HETATM   16  H   UNL     1      -8.327   9.730  62.027  1.00  0.00     0.000 HD 
ENDBRANCH   6   7
ENDBRANCH   5   6
ENDBRANCH   3   5
ENDBRANCH   2   3
BRANCH   2  17
HETATM   17  C   UNL     1      -8.935  15.034  66.772  1.00  0.00    -0.293 C  
BRANCH  17  18
HETATM   18  C   UNL     1      -9.973  16.154  66.911  1.00  0.00    -0.258 C  
BRANCH  18  19
HETATM   19  C   UNL     1      -9.295  17.487  67.129  1.00  0.00    -0.250 A  
HETATM   20  C   UNL     1     -10.053  18.639  67.385  1.00  0.00    -0.397 A  
HETATM   21  C   UNL     1      -7.896  17.577  67.130  1.00  0.00    -0.229 A  
HETATM   22  C   UNL     1      -7.262  18.795  67.387  1.00  0.00    -0.215 A  
HETATM   23  H   UNL     1      -7.981  21.900  68.098  1.00  0.00     0.000 HD 
HETATM   24  C   UNL     1      -9.420  19.857  67.640  1.00  0.00    -0.479 A  
HETATM   25  C   UNL     1      -8.033  19.924  67.646  1.00  0.00    -0.292 A  
HETATM   26  O   UNL     1      -7.455  21.129  67.920  1.00  0.00    -0.108 OA 
ENDBRANCH  18  19
ENDBRANCH  17  18
ENDBRANCH   2  17
TORSDOF 7
ENDMDL
MODEL      299
REMARK 921   NORMALIZED FREE ENERGY PREDICTED BY IDOCK:   -3.45 KCAL/MOL
REMARK 922        TOTAL FREE ENERGY PREDICTED BY IDOCK:   -6.03 KCAL/MOL
REMARK 923 INTER-LIGAND FREE ENERGY PREDICTED BY IDOCK:   -5.55 KCAL/MOL
REMARK 924 INTRA-LIGAND FREE ENERGY PREDICTED BY IDOCK:   -0.47 KCAL/MOL
REMARK 927      BINDING AFFINITY PREDICTED BY RF-SCORE:    0.00 PKD
ROOT
HETATM    1  C   UNL     1     -12.545  12.410  64.344  1.00  0.00    -0.489 C  
HETATM    2  C   UNL     1     -11.215  12.625  65.074  1.00  0.00    -0.296 C  
ENDROOT
BRANCH   2   3
HETATM    3  N   UNL     1     -11.207  12.002  66.408  1.00  0.00    -0.322 NA 
HETATM    4  H   UNL     1     -12.105  11.555  66.593  1.00  0.00     0.000 HD 
BRANCH   3   5
HETATM    5  C   UNL     1     -10.109  11.052  66.646  1.00  0.00    -0.220 C  
BRANCH   5   6
HETATM    6  C   UNL     1     -10.314  10.156  67.874  1.00  0.00    -0.234 C  
BRANCH   6   7
HETATM    7  C   UNL     1      -9.543   8.862  67.785  1.00  0.00    -0.176 A  
HETATM    8  C   UNL     1      -8.177   6.434  67.668  1.00  0.00    -0.118 A  
HETATM    9  C   UNL     1      -8.767   6.958  66.522  1.00  0.00    -0.133 A  
HETATM   10  O   UNL     1      -7.532   5.231  67.616  1.00  0.00    -0.081 OA 
HETATM   11  C   UNL     1      -8.243   7.113  68.875  1.00  0.00    -0.125 A  
HETATM   12  H   UNL     1      -8.196   5.407  65.334  1.00  0.00     0.000 HD 
HETATM   13  C   UNL     1      -9.447   8.172  66.568  1.00  0.00    -0.286 A  
HETATM   14  O   UNL     1      -8.661   6.235  65.366  1.00  0.00    -0.147 OA 
HETATM   15  C   UNL     1      -8.924   8.332  68.931  1.00  0.00    -0.144 A  
HETATM   16  H   UNL     1      -7.129   4.873  68.399  1.00  0.00     0.000 HD 
ENDBRANCH   6   7
ENDBRANCH   5   6
ENDBRANCH   3   5
ENDBRANCH   2   3
BRANCH   2  17
HETATM   17  C   UNL     1     -10.943  14.137  65.197  1.00  0.00    -0.361 C  
BRANCH  17  18
HETATM   18  C   UNL     1      -9.542  14.465  65.731  1.00  0.00    -0.216 C  
BRANCH  18  19
HETATM   19  C   UNL     1      -9.554  15.763  66.503  1.00  0.00    -0.288 A  
HETATM   20  C   UNL     1     -10.467  15.962  67.548  1.00  0.00    -0.298 A  
HETATM   21  C   UNL     1      -8.616  16.766  66.216  1.00  0.00    -0.340 A  
HETATM   22  C   UNL     1      -8.585  17.945  66.963  1.00  0.00    -0.248 A  
HETATM   23  H   UNL     1     -10.109  19.366  69.479  1.00  0.00     0.000 HD 
HETATM   24  C   UNL     1     -10.438  17.142  68.295  1.00  0.00    -0.373 A  
HETATM   25  C   UNL     1      -9.495  18.119  68.002  1.00  0.00    -0.285 A  
HETATM   26  O   UNL     1      -9.488  19.247  68.769  1.00  0.00    -0.373 OA 
ENDBRANCH  18  19
ENDBRANCH  17  18
ENDBRANCH   2  17
TORSDOF 7
ENDMDL
MODEL      300
REMARK 921   NORMALIZED FREE ENERGY PREDICTED BY IDOCK:   -3.44 KCAL/MOL
REMARK 922        TOTAL FREE ENERGY PREDICTED BY IDOCK:   -6.01 KCAL/MOL
REMARK 923 INTER-LIGAND FREE ENERGY PREDICTED BY IDOCK:   -5.25 KCAL/MOL
REMARK 924 INTRA-LIGAND FREE ENERGY PREDICTED BY IDOCK:   -0.76 KCAL/MOL
REMARK 927      BINDING AFFINITY PREDICTED BY RF-SCORE:    0.00 PKD
ROOT
HETATM    1  C   UNL     1      -9.489   4.362  70.104  1.00  0.00    -0.245 C  
HETATM    2  C   UNL     1      -8.927   5.355  69.081  1.00  0.00    -0.104 C  
ENDROOT
BRANCH   2   3
HETATM    3  N   UNL     1      -8.097   6.394  69.712  1.00  0.00    -0.119 NA 
HETATM    4  H   UNL     1      -7.786   7.068  69.013  1.00  0.00     0.000 HD 
BRANCH   3   5
HETATM    5  C   UNL     1      -8.725   7.092  70.844  1.00  0.00    -0.146 C  
BRANCH   5   6
HETATM    6  C   UNL     1      -9.396   8.419  70.466  1.00  0.00    -0.177 C  
BRANCH   6   7
HETATM    7  C   UNL     1     -10.742   8.598  71.123  1.00  0.00    -0.303 A  
HETATM    8  C   UNL     1     -13.196   8.908  72.412  1.00  0.00    -0.430 A  
HETATM    9  C   UNL     1     -12.543  10.016  71.877  1.00  0.00    -0.362 A  
HETATM   10  O   UNL     1     -14.384   9.065  73.067  1.00  0.00    -1.108 OA 
HETATM   11  C   UNL     1     -12.649   7.639  72.297  1.00  0.00    -0.146 A  
HETATM   12  H   UNL     1     -13.976  11.335  72.469  1.00  0.00     0.000 HD 
HETATM   13  C   UNL     1     -11.321   9.872  71.228  1.00  0.00    -0.404 A  
HETATM   14  O   UNL     1     -13.142  11.237  72.026  1.00  0.00    -0.495 OA 
HETATM   15  C   UNL     1     -11.422   7.484  71.648  1.00  0.00    -0.292 A  
HETATM   16  H   UNL     1     -14.829   8.309  73.432  1.00  0.00     0.000 HD 
ENDBRANCH   6   7
ENDBRANCH   5   6
ENDBRANCH   3   5
ENDBRANCH   2   3
BRANCH   2  17
HETATM   17  C   UNL     1     -10.094   6.007  68.312  1.00  0.00    -0.194 C  
BRANCH  17  18
HETATM   18  C   UNL     1      -9.736   6.394  66.871  1.00  0.00    -0.190 C  
BRANCH  18  19
HETATM   19  C   UNL     1      -9.675   5.169  65.988  1.00  0.00    -0.182 A  
HETATM   20  C   UNL     1      -8.468   4.479  65.810  1.00  0.00    -0.115 A  
HETATM   21  C   UNL     1     -10.838   4.679  65.377  1.00  0.00    -0.093 A  
HETATM   22  C   UNL     1     -10.799   3.516  64.606  1.00  0.00     0.204 A  
HETATM   23  H   UNL     1      -8.689   1.230  63.611  1.00  0.00     0.000 HD 
HETATM   24  C   UNL     1      -8.428   3.317  65.037  1.00  0.00    -0.099 A  
HETATM   25  C   UNL     1      -9.593   2.842  64.448  1.00  0.00    -0.147 A  
HETATM   26  O   UNL     1      -9.513   1.691  63.719  1.00  0.00    -0.104 OA 
ENDBRANCH  18  19
ENDBRANCH  17  18
ENDBRANCH   2  17
TORSDOF 7
ENDMDL
MODEL      301
REMARK 921   NORMALIZED FREE ENERGY PREDICTED BY IDOCK:   -3.43 KCAL/MOL
REMARK 922        TOTAL FREE ENERGY PREDICTED BY IDOCK:   -6.00 KCAL/MOL
REMARK 923 INTER-LIGAND FREE ENERGY PREDICTED BY IDOCK:   -5.17 KCAL/MOL
REMARK 924 INTRA-LIGAND FREE ENERGY PREDICTED BY IDOCK:   -0.83 KCAL/MOL
REMARK 927      BINDING AFFINITY PREDICTED BY RF-SCORE:    0.00 PKD
ROOT
HETATM    1  C   UNL     1      -6.005   7.384  65.821  1.00  0.00    -0.037 C  
HETATM    2  C   UNL     1      -6.839   7.718  67.063  1.00  0.00    -0.069 C  
ENDROOT
BRANCH   2   3
HETATM    3  N   UNL     1      -6.795   6.643  68.067  1.00  0.00    -0.074 NA 
HETATM    4  H   UNL     1      -5.885   6.183  68.050  1.00  0.00     0.000 HD 
BRANCH   3   5
HETATM    5  C   UNL     1      -7.129   7.055  69.439  1.00  0.00    -0.079 C  
BRANCH   5   6
HETATM    6  C   UNL     1      -7.906   6.001  70.237  1.00  0.00    -0.102 C  
BRANCH   6   7
HETATM    7  C   UNL     1      -9.091   6.582  70.969  1.00  0.00    -0.150 A  
HETATM    8  C   UNL     1     -11.331   7.605  72.277  1.00  0.00    -0.306 A  
HETATM    9  C   UNL     1     -10.400   6.844  72.979  1.00  0.00    -0.244 A  
HETATM   10  O   UNL     1     -12.441   8.082  72.912  1.00  0.00    -0.602 OA 
HETATM   11  C   UNL     1     -11.152   7.880  70.930  1.00  0.00    -0.268 A  
HETATM   12  H   UNL     1     -11.406   6.963  74.744  1.00  0.00     0.000 HD 
HETATM   13  C   UNL     1      -9.276   6.332  72.337  1.00  0.00    -0.138 A  
HETATM   14  O   UNL     1     -10.639   6.614  74.306  1.00  0.00    -0.271 OA 
HETATM   15  C   UNL     1     -10.027   7.370  70.277  1.00  0.00    -0.188 A  
HETATM   16  H   UNL     1     -13.077   8.601  72.434  1.00  0.00     0.000 HD 
ENDBRANCH   6   7
ENDBRANCH   5   6
ENDBRANCH   3   5
ENDBRANCH   2   3
BRANCH   2  17
HETATM   17  C   UNL     1      -8.297   7.985  66.639  1.00  0.00    -0.120 C  
BRANCH  17  18
HETATM   18  C   UNL     1      -8.421   8.945  65.449  1.00  0.00    -0.176 C  
BRANCH  18  19
HETATM   19  C   UNL     1      -9.493   9.979  65.706  1.00  0.00    -0.270 A  
HETATM   20  C   UNL     1      -9.829  10.347  67.016  1.00  0.00    -0.234 A  
HETATM   21  C   UNL     1     -10.128  10.621  64.633  1.00  0.00    -0.417 A  
HETATM   22  C   UNL     1     -11.078  11.617  64.863  1.00  0.00    -0.317 A  
HETATM   23  H   UNL     1     -12.514  13.197  67.335  1.00  0.00     0.000 HD 
HETATM   24  C   UNL     1     -10.781  11.342  67.247  1.00  0.00    -0.295 A  
HETATM   25  C   UNL     1     -11.392  11.973  66.171  1.00  0.00    -0.351 A  
HETATM   26  O   UNL     1     -12.300  12.954  66.441  1.00  0.00    -0.463 OA 
ENDBRANCH  18  19
ENDBRANCH  17  18
ENDBRANCH   2  17
TORSDOF 7
ENDMDL
MODEL      302
REMARK 921   NORMALIZED FREE ENERGY PREDICTED BY IDOCK:   -3.39 KCAL/MOL
REMARK 922        TOTAL FREE ENERGY PREDICTED BY IDOCK:   -5.93 KCAL/MOL
REMARK 923 INTER-LIGAND FREE ENERGY PREDICTED BY IDOCK:   -5.35 KCAL/MOL
REMARK 924 INTRA-LIGAND FREE ENERGY PREDICTED BY IDOCK:   -0.58 KCAL/MOL
REMARK 927      BINDING AFFINITY PREDICTED BY RF-SCORE:    0.00 PKD
ROOT
HETATM    1  C   UNL     1      -7.365  13.977  68.880  1.00  0.00    -0.113 C  
HETATM    2  C   UNL     1      -8.853  14.109  68.539  1.00  0.00    -0.173 C  
ENDROOT
BRANCH   2   3
HETATM    3  N   UNL     1      -9.613  12.898  68.890  1.00  0.00    -0.402 NA 
HETATM    4  H   UNL     1     -10.483  13.151  69.357  1.00  0.00     0.000 HD 
BRANCH   3   5
HETATM    5  C   UNL     1      -9.886  11.985  67.769  1.00  0.00    -0.190 C  
BRANCH   5   6
HETATM    6  C   UNL     1      -8.986  10.743  67.739  1.00  0.00    -0.137 C  
BRANCH   6   7
HETATM    7  C   UNL     1      -9.441   9.672  68.700  1.00  0.00    -0.147 A  
HETATM    8  C   UNL     1     -10.213   7.709  70.523  1.00  0.00    -0.201 A  
HETATM    9  C   UNL     1     -10.973   8.868  70.381  1.00  0.00    -0.244 A  
HETATM   10  O   UNL     1     -10.577   6.761  71.436  1.00  0.00    -0.218 OA 
HETATM   11  C   UNL     1      -9.078   7.506  69.753  1.00  0.00    -0.140 A  
HETATM   12  H   UNL     1     -12.336   8.329  71.793  1.00  0.00     0.000 HD 
HETATM   13  C   UNL     1     -10.598   9.852  69.471  1.00  0.00    -0.264 A  
HETATM   14  O   UNL     1     -12.081   9.001  71.172  1.00  0.00    -0.291 OA 
HETATM   15  C   UNL     1      -8.694   8.488  68.837  1.00  0.00    -0.131 A  
HETATM   16  H   UNL     1     -10.059   5.971  71.533  1.00  0.00     0.000 HD 
ENDBRANCH   6   7
ENDBRANCH   5   6
ENDBRANCH   3   5
ENDBRANCH   2   3
BRANCH   2  17
HETATM   17  C   UNL     1      -9.005  14.408  67.034  1.00  0.00    -0.257 C  
BRANCH  17  18
HETATM   18  C   UNL     1     -10.010  15.527  66.732  1.00  0.00    -0.257 C  
BRANCH  18  19
HETATM   19  C   UNL     1      -9.299  16.846  66.533  1.00  0.00    -0.293 A  
HETATM   20  C   UNL     1      -7.927  16.879  66.249  1.00  0.00    -0.350 A  
HETATM   21  C   UNL     1     -10.016  18.050  66.580  1.00  0.00    -0.362 A  
HETATM   22  C   UNL     1      -9.376  19.268  66.342  1.00  0.00    -0.399 A  
HETATM   23  H   UNL     1      -6.424  20.450  65.598  1.00  0.00     0.000 HD 
HETATM   24  C   UNL     1      -7.285  18.097  66.012  1.00  0.00    -0.305 A  
HETATM   25  C   UNL     1      -8.014  19.278  66.053  1.00  0.00    -0.243 A  
HETATM   26  O   UNL     1      -7.353  20.443  65.795  1.00  0.00    -0.236 OA 
ENDBRANCH  18  19
ENDBRANCH  17  18
ENDBRANCH   2  17
TORSDOF 7
ENDMDL
MODEL      303
REMARK 921   NORMALIZED FREE ENERGY PREDICTED BY IDOCK:   -3.37 KCAL/MOL
REMARK 922        TOTAL FREE ENERGY PREDICTED BY IDOCK:   -5.92 KCAL/MOL
REMARK 923 INTER-LIGAND FREE ENERGY PREDICTED BY IDOCK:   -5.34 KCAL/MOL
REMARK 924 INTRA-LIGAND FREE ENERGY PREDICTED BY IDOCK:   -0.58 KCAL/MOL
REMARK 927      BINDING AFFINITY PREDICTED BY RF-SCORE:    0.00 PKD
ROOT
HETATM    1  C   UNL     1     -12.514  12.417  64.364  1.00  0.00    -0.520 C  
HETATM    2  C   UNL     1     -11.226  12.818  65.092  1.00  0.00    -0.292 C  
ENDROOT
BRANCH   2   3
HETATM    3  N   UNL     1     -11.143  12.230  66.439  1.00  0.00    -0.287 NA 
HETATM    4  H   UNL     1     -11.940  11.616  66.604  1.00  0.00     0.000 HD 
BRANCH   3   5
HETATM    5  C   UNL     1      -9.888  11.521  66.734  1.00  0.00    -0.203 C  
BRANCH   5   6
HETATM    6  C   UNL     1      -9.266  11.888  68.087  1.00  0.00    -0.187 C  
BRANCH   6   7
HETATM    7  C   UNL     1      -8.325  10.826  68.601  1.00  0.00    -0.141 A  
HETATM    8  C   UNL     1      -6.604   8.888  69.630  1.00  0.00    -0.043 A  
HETATM    9  C   UNL     1      -7.768   8.507  68.967  1.00  0.00    -0.096 A  
HETATM   10  O   UNL     1      -5.777   7.939  70.158  1.00  0.00    -0.023 OA 
HETATM   11  C   UNL     1      -6.275  10.227  69.774  1.00  0.00    -0.060 A  
HETATM   12  H   UNL     1      -7.439   6.514  69.217  1.00  0.00     0.000 HD 
HETATM   13  C   UNL     1      -8.631   9.466  68.446  1.00  0.00    -0.124 A  
HETATM   14  O   UNL     1      -8.028   7.169  68.861  1.00  0.00    -0.116 OA 
HETATM   15  C   UNL     1      -7.136  11.197  69.254  1.00  0.00    -0.123 A  
HETATM   16  H   UNL     1      -4.983   8.199  70.611  1.00  0.00     0.000 HD 
ENDBRANCH   6   7
ENDBRANCH   5   6
ENDBRANCH   3   5
ENDBRANCH   2   3
BRANCH   2  17
HETATM   17  C   UNL     1     -11.153  14.356  65.183  1.00  0.00    -0.365 C  
BRANCH  17  18
HETATM   18  C   UNL     1      -9.838  14.870  65.784  1.00  0.00    -0.380 C  
BRANCH  18  19
HETATM   19  C   UNL     1     -10.057  16.176  66.512  1.00  0.00    -0.301 A  
HETATM   20  C   UNL     1      -9.941  16.243  67.907  1.00  0.00    -0.241 A  
HETATM   21  C   UNL     1     -10.329  17.349  65.793  1.00  0.00    -0.226 A  
HETATM   22  C   UNL     1     -10.477  18.570  66.455  1.00  0.00    -0.443 A  
HETATM   23  H   UNL     1     -10.382  19.820  69.470  1.00  0.00     0.000 HD 
HETATM   24  C   UNL     1     -10.091  17.462  68.570  1.00  0.00    -0.352 A  
HETATM   25  C   UNL     1     -10.351  18.615  67.840  1.00  0.00    -0.398 A  
HETATM   26  O   UNL     1     -10.469  19.789  68.525  1.00  0.00    -0.415 OA 
ENDBRANCH  18  19
ENDBRANCH  17  18
ENDBRANCH   2  17
TORSDOF 7
ENDMDL
MODEL      304
REMARK 921   NORMALIZED FREE ENERGY PREDICTED BY IDOCK:   -3.37 KCAL/MOL
REMARK 922        TOTAL FREE ENERGY PREDICTED BY IDOCK:   -5.92 KCAL/MOL
REMARK 923 INTER-LIGAND FREE ENERGY PREDICTED BY IDOCK:   -5.39 KCAL/MOL
REMARK 924 INTRA-LIGAND FREE ENERGY PREDICTED BY IDOCK:   -0.52 KCAL/MOL
REMARK 927      BINDING AFFINITY PREDICTED BY RF-SCORE:    0.00 PKD
ROOT
HETATM    1  C   UNL     1      -6.785   7.780  68.544  1.00  0.00    -0.058 C  
HETATM    2  C   UNL     1      -7.955   7.740  67.555  1.00  0.00    -0.123 C  
ENDROOT
BRANCH   2   3
HETATM    3  N   UNL     1      -8.988   6.771  67.955  1.00  0.00    -0.119 NA 
HETATM    4  H   UNL     1      -8.766   5.847  67.585  1.00  0.00     0.000 HD 
BRANCH   3   5
HETATM    5  C   UNL     1      -9.241   6.690  69.402  1.00  0.00    -0.142 C  
BRANCH   5   6
HETATM    6  C   UNL     1     -10.720   6.512  69.770  1.00  0.00    -0.322 C  
BRANCH   6   7
HETATM    7  C   UNL     1     -11.323   7.756  70.372  1.00  0.00    -0.219 A  
HETATM    8  C   UNL     1     -12.465  10.079  71.409  1.00  0.00    -0.411 A  
HETATM    9  C   UNL     1     -12.999   8.835  71.733  1.00  0.00    -0.361 A  
HETATM   10  O   UNL     1     -13.042  11.218  71.894  1.00  0.00    -0.493 OA 
HETATM   11  C   UNL     1     -11.354  10.183  70.586  1.00  0.00    -0.433 A  
HETATM   12  H   UNL     1     -14.479   9.604  72.898  1.00  0.00     0.000 HD 
HETATM   13  C   UNL     1     -12.434   7.669  71.225  1.00  0.00    -0.324 A  
HETATM   14  O   UNL     1     -14.094   8.808  72.552  1.00  0.00    -0.440 OA 
HETATM   15  C   UNL     1     -10.780   9.018  70.070  1.00  0.00    -0.247 A  
HETATM   16  H   UNL     1     -12.678  12.067  71.673  1.00  0.00     0.000 HD 
ENDBRANCH   6   7
ENDBRANCH   5   6
ENDBRANCH   3   5
ENDBRANCH   2   3
BRANCH   2  17
HETATM   17  C   UNL     1      -7.421   7.390  66.151  1.00  0.00    -0.083 C  
BRANCH  17  18
HETATM   18  C   UNL     1      -6.828   8.593  65.406  1.00  0.00    -0.071 C  
BRANCH  18  19
HETATM   19  C   UNL     1      -7.864   9.680  65.235  1.00  0.00    -0.115 A  
HETATM   20  C   UNL     1      -8.604   9.778  64.048  1.00  0.00    -0.208 A  
HETATM   21  C   UNL     1      -8.134  10.572  66.283  1.00  0.00    -0.142 A  
HETATM   22  C   UNL     1      -9.129  11.542  66.152  1.00  0.00    -0.217 A  
HETATM   23  H   UNL     1     -11.348  12.589  63.997  1.00  0.00     0.000 HD 
HETATM   24  C   UNL     1      -9.598  10.750  63.915  1.00  0.00    -0.339 A  
HETATM   25  C   UNL     1      -9.857  11.618  64.968  1.00  0.00    -0.248 A  
HETATM   26  O   UNL     1     -10.851  12.537  64.805  1.00  0.00    -0.277 OA 
ENDBRANCH  18  19
ENDBRANCH  17  18
ENDBRANCH   2  17
TORSDOF 7
ENDMDL
MODEL      305
REMARK 921   NORMALIZED FREE ENERGY PREDICTED BY IDOCK:   -3.35 KCAL/MOL
REMARK 922        TOTAL FREE ENERGY PREDICTED BY IDOCK:   -5.88 KCAL/MOL
REMARK 923 INTER-LIGAND FREE ENERGY PREDICTED BY IDOCK:   -5.37 KCAL/MOL
REMARK 924 INTRA-LIGAND FREE ENERGY PREDICTED BY IDOCK:   -0.51 KCAL/MOL
REMARK 927      BINDING AFFINITY PREDICTED BY RF-SCORE:    0.00 PKD
ROOT
HETATM    1  C   UNL     1      -8.226   9.663  64.323  1.00  0.00    -0.156 C  
HETATM    2  C   UNL     1      -9.086   9.967  65.554  1.00  0.00    -0.186 C  
ENDROOT
BRANCH   2   3
HETATM    3  N   UNL     1      -8.936  11.359  66.008  1.00  0.00    -0.222 NA 
HETATM    4  H   UNL     1      -7.971  11.666  65.885  1.00  0.00     0.000 HD 
BRANCH   3   5
HETATM    5  C   UNL     1      -9.856  12.322  65.384  1.00  0.00    -0.192 C  
BRANCH   5   6
HETATM    6  C   UNL     1     -10.441  13.351  66.361  1.00  0.00    -0.286 C  
BRANCH   6   7
HETATM    7  C   UNL     1      -9.600  14.599  66.463  1.00  0.00    -0.308 A  
HETATM    8  C   UNL     1      -8.106  16.941  66.700  1.00  0.00    -0.263 A  
HETATM    9  C   UNL     1      -7.650  15.761  67.281  1.00  0.00    -0.210 A  
HETATM   10  O   UNL     1      -7.387  18.094  66.841  1.00  0.00    -0.193 OA 
HETATM   11  C   UNL     1      -9.292  16.968  65.984  1.00  0.00    -0.187 A  
HETATM   12  H   UNL     1      -5.969  16.610  68.052  1.00  0.00     0.000 HD 
HETATM   13  C   UNL     1      -8.386  14.585  67.165  1.00  0.00    -0.226 A  
HETATM   14  O   UNL     1      -6.470  15.808  67.972  1.00  0.00    -0.116 OA 
HETATM   15  C   UNL     1     -10.038  15.793  65.862  1.00  0.00    -0.381 A  
HETATM   16  H   UNL     1      -7.698  18.900  66.444  1.00  0.00     0.000 HD 
ENDBRANCH   6   7
ENDBRANCH   5   6
ENDBRANCH   3   5
ENDBRANCH   2   3
BRANCH   2  17
HETATM   17  C   UNL     1      -8.705   8.998  66.691  1.00  0.00    -0.140 C  
BRANCH  17  18
HETATM   18  C   UNL     1      -9.697   7.841  66.865  1.00  0.00    -0.282 C  
BRANCH  18  19
HETATM   19  C   UNL     1     -10.297   7.855  68.252  1.00  0.00    -0.239 A  
HETATM   20  C   UNL     1     -10.729   6.665  68.855  1.00  0.00    -0.304 A  
HETATM   21  C   UNL     1     -10.382   9.055  68.974  1.00  0.00    -0.233 A  
HETATM   22  C   UNL     1     -10.883   9.066  70.277  1.00  0.00    -0.269 A  
HETATM   23  H   UNL     1     -12.061   7.020  72.534  1.00  0.00     0.000 HD 
HETATM   24  C   UNL     1     -11.232   6.676  70.157  1.00  0.00    -0.416 A  
HETATM   25  C   UNL     1     -11.299   7.872  70.859  1.00  0.00    -0.277 A  
HETATM   26  O   UNL     1     -11.777   7.835  72.136  1.00  0.00    -0.289 OA 
ENDBRANCH  18  19
ENDBRANCH  17  18
ENDBRANCH   2  17
TORSDOF 7
ENDMDL
MODEL      306
REMARK 921   NORMALIZED FREE ENERGY PREDICTED BY IDOCK:   -3.32 KCAL/MOL
REMARK 922        TOTAL FREE ENERGY PREDICTED BY IDOCK:   -5.84 KCAL/MOL
REMARK 923 INTER-LIGAND FREE ENERGY PREDICTED BY IDOCK:   -5.27 KCAL/MOL
REMARK 924 INTRA-LIGAND FREE ENERGY PREDICTED BY IDOCK:   -0.57 KCAL/MOL
REMARK 927      BINDING AFFINITY PREDICTED BY RF-SCORE:    0.00 PKD
ROOT
HETATM    1  C   UNL     1      -5.425  10.245  65.397  1.00  0.00    -0.088 C  
HETATM    2  C   UNL     1      -6.666   9.470  64.941  1.00  0.00    -0.094 C  
ENDROOT
BRANCH   2   3
HETATM    3  N   UNL     1      -7.844   9.768  65.771  1.00  0.00    -0.106 NA 
HETATM    4  H   UNL     1      -7.697  10.632  66.292  1.00  0.00     0.000 HD 
BRANCH   3   5
HETATM    5  C   UNL     1      -9.121   9.827  65.044  1.00  0.00    -0.231 C  
BRANCH   5   6
HETATM    6  C   UNL     1     -10.270  10.452  65.847  1.00  0.00    -0.302 C  
BRANCH   6   7
HETATM    7  C   UNL     1     -10.510  11.898  65.489  1.00  0.00    -0.309 A  
HETATM    8  C   UNL     1     -10.877  14.573  64.794  1.00  0.00    -0.393 A  
HETATM    9  C   UNL     1     -11.606  13.578  64.148  1.00  0.00    -0.376 A  
HETATM   10  O   UNL     1     -11.037  15.880  64.433  1.00  0.00    -0.824 OA 
HETATM   11  C   UNL     1      -9.977  14.254  65.798  1.00  0.00    -0.346 A  
HETATM   12  H   UNL     1     -12.596  14.878  62.934  1.00  0.00     0.000 HD 
HETATM   13  C   UNL     1     -11.434  12.240  64.490  1.00  0.00    -0.401 A  
HETATM   14  O   UNL     1     -12.478  13.965  63.168  1.00  0.00    -0.766 OA 
HETATM   15  C   UNL     1      -9.796  12.914  66.148  1.00  0.00    -0.270 A  
HETATM   16  H   UNL     1     -10.540  16.560  64.874  1.00  0.00     0.000 HD 
ENDBRANCH   6   7
ENDBRANCH   5   6
ENDBRANCH   3   5
ENDBRANCH   2   3
BRANCH   2  17
HETATM   17  C   UNL     1      -6.363   7.959  64.979  1.00  0.00    -0.041 C  
BRANCH  17  18
HETATM   18  C   UNL     1      -6.765   7.288  66.299  1.00  0.00    -0.053 C  
BRANCH  18  19
HETATM   19  C   UNL     1      -7.327   5.908  66.048  1.00  0.00    -0.077 A  
HETATM   20  C   UNL     1      -7.990   5.212  67.068  1.00  0.00    -0.100 A  
HETATM   21  C   UNL     1      -7.235   5.328  64.774  1.00  0.00    -0.059 A  
HETATM   22  C   UNL     1      -7.802   4.077  64.521  1.00  0.00    -0.085 A  
HETATM   23  H   UNL     1      -9.498   1.734  66.036  1.00  0.00     0.000 HD 
HETATM   24  C   UNL     1      -8.555   3.960  66.816  1.00  0.00    -0.107 A  
HETATM   25  C   UNL     1      -8.463   3.407  65.546  1.00  0.00    -0.108 A  
HETATM   26  O   UNL     1      -9.047   2.192  65.337  1.00  0.00    -0.130 OA 
ENDBRANCH  18  19
ENDBRANCH  17  18
ENDBRANCH   2  17
TORSDOF 7
ENDMDL
MODEL      307
REMARK 921   NORMALIZED FREE ENERGY PREDICTED BY IDOCK:   -3.30 KCAL/MOL
REMARK 922        TOTAL FREE ENERGY PREDICTED BY IDOCK:   -5.81 KCAL/MOL
REMARK 923 INTER-LIGAND FREE ENERGY PREDICTED BY IDOCK:   -4.64 KCAL/MOL
REMARK 924 INTRA-LIGAND FREE ENERGY PREDICTED BY IDOCK:   -1.16 KCAL/MOL
REMARK 927      BINDING AFFINITY PREDICTED BY RF-SCORE:    0.00 PKD
ROOT
HETATM    1  C   UNL     1      -7.987   2.747  69.350  1.00  0.00    -0.056 C  
HETATM    2  C   UNL     1      -9.333   2.968  68.651  1.00  0.00    -0.173 C  
ENDROOT
BRANCH   2   3
HETATM    3  N   UNL     1      -9.191   3.063  67.189  1.00  0.00    -0.226 NA 
HETATM    4  H   UNL     1      -9.741   2.334  66.734  1.00  0.00     0.000 HD 
BRANCH   3   5
HETATM    5  C   UNL     1      -9.519   4.377  66.614  1.00  0.00    -0.179 C  
BRANCH   5   6
HETATM    6  C   UNL     1      -8.292   5.228  66.260  1.00  0.00    -0.114 C  
BRANCH   6   7
HETATM    7  C   UNL     1      -8.639   6.677  66.021  1.00  0.00    -0.152 A  
HETATM    8  C   UNL     1      -9.315   9.332  65.505  1.00  0.00    -0.238 A  
HETATM    9  C   UNL     1      -9.933   8.644  66.546  1.00  0.00    -0.282 A  
HETATM   10  O   UNL     1      -9.667  10.624  65.235  1.00  0.00    -0.220 OA 
HETATM   11  C   UNL     1      -8.348   8.718  64.724  1.00  0.00    -0.177 A  
HETATM   12  H   UNL     1     -11.104  10.216  67.092  1.00  0.00     0.000 HD 
HETATM   13  C   UNL     1      -9.599   7.320  66.815  1.00  0.00    -0.240 A  
HETATM   14  O   UNL     1     -10.877   9.313  67.276  1.00  0.00    -0.238 OA 
HETATM   15  C   UNL     1      -8.007   7.389  64.986  1.00  0.00    -0.129 A  
HETATM   16  H   UNL     1      -9.246  11.093  64.524  1.00  0.00     0.000 HD 
ENDBRANCH   6   7
ENDBRANCH   5   6
ENDBRANCH   3   5
ENDBRANCH   2   3
BRANCH   2  17
HETATM   17  C   UNL     1      -9.986   4.251  69.202  1.00  0.00    -0.060 C  
BRANCH  17  18
HETATM   18  C   UNL     1      -9.446   4.670  70.575  1.00  0.00    -0.247 C  
BRANCH  18  19
HETATM   19  C   UNL     1     -10.153   5.910  71.072  1.00  0.00    -0.252 A  
HETATM   20  C   UNL     1     -10.547   6.914  70.176  1.00  0.00    -0.249 A  
HETATM   21  C   UNL     1     -10.470   6.047  72.432  1.00  0.00    -0.234 A  
HETATM   22  C   UNL     1     -11.173   7.163  72.889  1.00  0.00    -0.302 A  
HETATM   23  H   UNL     1     -12.531   9.911  71.762  1.00  0.00     0.000 HD 
HETATM   24  C   UNL     1     -11.248   8.032  70.633  1.00  0.00    -0.266 A  
HETATM   25  C   UNL     1     -11.561   8.144  71.982  1.00  0.00    -0.330 A  
HETATM   26  O   UNL     1     -12.266   9.242  72.382  1.00  0.00    -0.282 OA 
ENDBRANCH  18  19
ENDBRANCH  17  18
ENDBRANCH   2  17
TORSDOF 7
ENDMDL
MODEL      308
REMARK 921   NORMALIZED FREE ENERGY PREDICTED BY IDOCK:   -3.27 KCAL/MOL
REMARK 922        TOTAL FREE ENERGY PREDICTED BY IDOCK:   -5.77 KCAL/MOL
REMARK 923 INTER-LIGAND FREE ENERGY PREDICTED BY IDOCK:   -5.20 KCAL/MOL
REMARK 924 INTRA-LIGAND FREE ENERGY PREDICTED BY IDOCK:   -0.57 KCAL/MOL
REMARK 927      BINDING AFFINITY PREDICTED BY RF-SCORE:    0.00 PKD
ROOT
HETATM    1  C   UNL     1      -9.761  13.590  67.685  1.00  0.00    -0.229 C  
HETATM    2  C   UNL     1      -8.296  13.562  67.236  1.00  0.00    -0.179 C  
ENDROOT
BRANCH   2   3
HETATM    3  N   UNL     1      -7.469  12.694  68.090  1.00  0.00    -0.111 NA 
HETATM    4  H   UNL     1      -7.015  13.247  68.817  1.00  0.00     0.000 HD 
BRANCH   3   5
HETATM    5  C   UNL     1      -8.175  11.551  68.688  1.00  0.00    -0.124 C  
BRANCH   5   6
HETATM    6  C   UNL     1      -8.183  10.292  67.811  1.00  0.00    -0.110 C  
BRANCH   6   7
HETATM    7  C   UNL     1      -9.127   9.233  68.323  1.00  0.00    -0.128 A  
HETATM    8  C   UNL     1     -10.925   7.336  69.295  1.00  0.00    -0.098 A  
HETATM    9  C   UNL     1     -10.701   7.448  67.925  1.00  0.00    -0.149 A  
HETATM   10  O   UNL     1     -11.826   6.425  69.768  1.00  0.00    -0.578 OA 
HETATM   11  C   UNL     1     -10.249   8.147  70.193  1.00  0.00    -0.199 A  
HETATM   12  H   UNL     1     -12.014   5.971  67.436  1.00  0.00     0.000 HD 
HETATM   13  C   UNL     1      -9.803   8.388  67.430  1.00  0.00    -0.249 A  
HETATM   14  O   UNL     1     -11.401   6.613  67.098  1.00  0.00    -0.343 OA 
HETATM   15  C   UNL     1      -9.346   9.095  69.705  1.00  0.00    -0.190 A  
HETATM   16  H   UNL     1     -11.979   6.349  70.703  1.00  0.00     0.000 HD 
ENDBRANCH   6   7
ENDBRANCH   5   6
ENDBRANCH   3   5
ENDBRANCH   2   3
BRANCH   2  17
HETATM   17  C   UNL     1      -7.735  14.998  67.244  1.00  0.00    -0.233 C  
BRANCH  17  18
HETATM   18  C   UNL     1      -8.144  15.807  68.482  1.00  0.00    -0.153 C  
BRANCH  18  19
HETATM   19  C   UNL     1      -7.955  17.287  68.241  1.00  0.00    -0.244 A  
HETATM   20  C   UNL     1      -6.776  17.930  68.642  1.00  0.00    -0.239 A  
HETATM   21  C   UNL     1      -8.939  18.024  67.566  1.00  0.00    -0.249 A  
HETATM   22  C   UNL     1      -8.747  19.379  67.290  1.00  0.00    -0.336 A  
HETATM   23  H   UNL     1      -6.522  21.735  67.696  1.00  0.00     0.000 HD 
HETATM   24  C   UNL     1      -6.584  19.285  68.368  1.00  0.00    -0.285 A  
HETATM   25  C   UNL     1      -7.566  19.996  67.690  1.00  0.00    -0.292 A  
HETATM   26  O   UNL     1      -7.329  21.313  67.424  1.00  0.00    -0.484 OA 
ENDBRANCH  18  19
ENDBRANCH  17  18
ENDBRANCH   2  17
TORSDOF 7
ENDMDL
MODEL      309
REMARK 921   NORMALIZED FREE ENERGY PREDICTED BY IDOCK:   -3.24 KCAL/MOL
REMARK 922        TOTAL FREE ENERGY PREDICTED BY IDOCK:   -5.73 KCAL/MOL
REMARK 923 INTER-LIGAND FREE ENERGY PREDICTED BY IDOCK:   -4.78 KCAL/MOL
REMARK 924 INTRA-LIGAND FREE ENERGY PREDICTED BY IDOCK:   -0.95 KCAL/MOL
REMARK 927      BINDING AFFINITY PREDICTED BY RF-SCORE:    0.00 PKD
ROOT
HETATM    1  C   UNL     1     -10.819   9.857  70.753  1.00  0.00    -0.387 C  
HETATM    2  C   UNL     1     -11.423  10.240  69.397  1.00  0.00    -0.186 C  
ENDROOT
BRANCH   2   3
HETATM    3  N   UNL     1     -11.262   9.172  68.397  1.00  0.00    -0.397 NA 
HETATM    4  H   UNL     1     -10.840   9.547  67.548  1.00  0.00     0.000 HD 
BRANCH   3   5
HETATM    5  C   UNL     1     -10.513   7.993  68.857  1.00  0.00    -0.191 C  
BRANCH   5   6
HETATM    6  C   UNL     1     -11.003   6.668  68.256  1.00  0.00    -0.321 C  
BRANCH   6   7
HETATM    7  C   UNL     1     -10.013   6.068  67.288  1.00  0.00    -0.177 A  
HETATM    8  C   UNL     1      -8.122   4.975  65.555  1.00  0.00    -0.115 A  
HETATM    9  C   UNL     1      -9.074   4.155  66.156  1.00  0.00    -0.137 A  
HETATM   10  O   UNL     1      -7.180   4.435  64.728  1.00  0.00    -0.067 OA 
HETATM   11  C   UNL     1      -8.110   6.341  65.792  1.00  0.00    -0.126 A  
HETATM   12  H   UNL     1      -8.379   2.452  65.286  1.00  0.00     0.000 HD 
HETATM   13  C   UNL     1     -10.025   4.691  67.019  1.00  0.00    -0.227 A  
HETATM   14  O   UNL     1      -9.028   2.817  65.875  1.00  0.00    -0.138 OA 
HETATM   15  C   UNL     1      -9.060   6.888  66.658  1.00  0.00    -0.172 A  
HETATM   16  H   UNL     1      -6.530   4.993  64.318  1.00  0.00     0.000 HD 
ENDBRANCH   6   7
ENDBRANCH   5   6
ENDBRANCH   3   5
ENDBRANCH   2   3
BRANCH   2  17
HETATM   17  C   UNL     1     -10.759  11.537  68.895  1.00  0.00    -0.245 C  
BRANCH  17  18
HETATM   18  C   UNL     1      -9.374  11.315  68.273  1.00  0.00    -0.180 C  
BRANCH  18  19
HETATM   19  C   UNL     1      -9.469  11.249  66.766  1.00  0.00    -0.196 A  
HETATM   20  C   UNL     1      -8.652  10.374  66.038  1.00  0.00    -0.158 A  
HETATM   21  C   UNL     1     -10.414  12.028  66.083  1.00  0.00    -0.271 A  
HETATM   22  C   UNL     1     -10.545  11.931  64.696  1.00  0.00    -0.353 A  
HETATM   23  H   UNL     1      -9.279  10.307  62.161  1.00  0.00     0.000 HD 
HETATM   24  C   UNL     1      -8.780  10.277  64.651  1.00  0.00    -0.203 A  
HETATM   25  C   UNL     1      -9.729  11.050  63.993  1.00  0.00    -0.288 A  
HETATM   26  O   UNL     1      -9.836  10.909  62.640  1.00  0.00    -0.246 OA 
ENDBRANCH  18  19
ENDBRANCH  17  18
ENDBRANCH   2  17
TORSDOF 7
ENDMDL
MODEL      310
REMARK 921   NORMALIZED FREE ENERGY PREDICTED BY IDOCK:   -3.21 KCAL/MOL
REMARK 922        TOTAL FREE ENERGY PREDICTED BY IDOCK:   -5.69 KCAL/MOL
REMARK 923 INTER-LIGAND FREE ENERGY PREDICTED BY IDOCK:   -4.73 KCAL/MOL
REMARK 924 INTRA-LIGAND FREE ENERGY PREDICTED BY IDOCK:   -0.96 KCAL/MOL
REMARK 927      BINDING AFFINITY PREDICTED BY RF-SCORE:    0.00 PKD
ROOT
HETATM    1  C   UNL     1      -5.718   8.857  65.433  1.00  0.00    -0.047 C  
HETATM    2  C   UNL     1      -6.529   9.421  66.605  1.00  0.00    -0.067 C  
ENDROOT
BRANCH   2   3
HETATM    3  N   UNL     1      -6.395   8.599  67.819  1.00  0.00    -0.056 NA 
HETATM    4  H   UNL     1      -5.476   8.739  68.239  1.00  0.00     0.000 HD 
BRANCH   3   5
HETATM    5  C   UNL     1      -7.448   8.797  68.826  1.00  0.00    -0.084 C  
BRANCH   5   6
HETATM    6  C   UNL     1      -7.831   7.523  69.591  1.00  0.00    -0.119 C  
BRANCH   6   7
HETATM    7  C   UNL     1      -8.324   6.425  68.681  1.00  0.00    -0.121 A  
HETATM    8  C   UNL     1      -9.246   4.347  67.068  1.00  0.00    -0.141 A  
HETATM    9  C   UNL     1     -10.003   5.506  67.213  1.00  0.00    -0.165 A  
HETATM   10  O   UNL     1      -9.711   3.318  66.299  1.00  0.00    -0.398 OA 
HETATM   11  C   UNL     1      -8.021   4.214  67.704  1.00  0.00    -0.091 A  
HETATM   12  H   UNL     1     -11.509   4.855  66.009  1.00  0.00     0.000 HD 
HETATM   13  C   UNL     1      -9.550   6.551  68.012  1.00  0.00    -0.119 A  
HETATM   14  O   UNL     1     -11.201   5.568  66.554  1.00  0.00    -0.060 OA 
HETATM   15  C   UNL     1      -7.558   5.258  68.509  1.00  0.00    -0.079 A  
HETATM   16  H   UNL     1      -9.195   2.527  66.200  1.00  0.00     0.000 HD 
ENDBRANCH   6   7
ENDBRANCH   5   6
ENDBRANCH   3   5
ENDBRANCH   2   3
BRANCH   2  17
HETATM   17  C   UNL     1      -8.012   9.519  66.196  1.00  0.00    -0.107 C  
BRANCH  17  18
HETATM   18  C   UNL     1      -8.236  10.300  64.894  1.00  0.00    -0.157 C  
BRANCH  18  19
HETATM   19  C   UNL     1      -9.580  10.991  64.909  1.00  0.00    -0.289 A  
HETATM   20  C   UNL     1     -10.230  11.311  63.710  1.00  0.00    -0.431 A  
HETATM   21  C   UNL     1     -10.215  11.274  66.127  1.00  0.00    -0.291 A  
HETATM   22  C   UNL     1     -11.482  11.862  66.147  1.00  0.00    -0.352 A  
HETATM   23  H   UNL     1     -13.790  12.927  64.097  1.00  0.00     0.000 HD 
HETATM   24  C   UNL     1     -11.496  11.900  63.729  1.00  0.00    -0.542 A  
HETATM   25  C   UNL     1     -12.113  12.164  64.945  1.00  0.00    -0.272 A  
HETATM   26  O   UNL     1     -13.359  12.721  64.919  1.00  0.00    -0.736 OA 
ENDBRANCH  18  19
ENDBRANCH  17  18
ENDBRANCH   2  17
TORSDOF 7
ENDMDL
MODEL      311
REMARK 921   NORMALIZED FREE ENERGY PREDICTED BY IDOCK:   -3.20 KCAL/MOL
REMARK 922        TOTAL FREE ENERGY PREDICTED BY IDOCK:   -5.67 KCAL/MOL
REMARK 923 INTER-LIGAND FREE ENERGY PREDICTED BY IDOCK:   -4.98 KCAL/MOL
REMARK 924 INTRA-LIGAND FREE ENERGY PREDICTED BY IDOCK:   -0.69 KCAL/MOL
REMARK 927      BINDING AFFINITY PREDICTED BY RF-SCORE:    0.00 PKD
ROOT
HETATM    1  C   UNL     1      -5.591   7.619  68.839  1.00  0.00    -0.023 C  
HETATM    2  C   UNL     1      -6.758   8.449  68.292  1.00  0.00    -0.065 C  
ENDROOT
BRANCH   2   3
HETATM    3  N   UNL     1      -7.154   8.026  66.940  1.00  0.00    -0.080 NA 
HETATM    4  H   UNL     1      -7.019   7.021  66.832  1.00  0.00     0.000 HD 
BRANCH   3   5
HETATM    5  C   UNL     1      -8.521   8.399  66.545  1.00  0.00    -0.113 C  
BRANCH   5   6
HETATM    6  C   UNL     1      -8.662   8.783  65.066  1.00  0.00    -0.183 C  
BRANCH   6   7
HETATM    7  C   UNL     1      -9.439  10.062  64.869  1.00  0.00    -0.355 A  
HETATM    8  C   UNL     1     -10.940  12.378  64.479  1.00  0.00    -0.316 A  
HETATM    9  C   UNL     1     -10.593  11.981  65.767  1.00  0.00    -0.263 A  
HETATM   10  O   UNL     1     -11.699  13.498  64.290  1.00  0.00    -0.386 OA 
HETATM   11  C   UNL     1     -10.534  11.644  63.375  1.00  0.00    -0.482 A  
HETATM   12  H   UNL     1     -11.540  13.541  66.668  1.00  0.00     0.000 HD 
HETATM   13  C   UNL     1      -9.840  10.829  65.973  1.00  0.00    -0.285 A  
HETATM   14  O   UNL     1     -11.027  12.755  66.808  1.00  0.00    -0.260 OA 
HETATM   15  C   UNL     1      -9.778  10.485  63.572  1.00  0.00    -0.374 A  
HETATM   16  H   UNL     1     -11.937  13.769  63.411  1.00  0.00     0.000 HD 
ENDBRANCH   6   7
ENDBRANCH   5   6
ENDBRANCH   3   5
ENDBRANCH   2   3
BRANCH   2  17
HETATM   17  C   UNL     1      -6.360   9.938  68.284  1.00  0.00    -0.054 C  
BRANCH  17  18
HETATM   18  C   UNL     1      -7.365  10.843  69.009  1.00  0.00    -0.113 C  
BRANCH  18  19
HETATM   19  C   UNL     1      -8.237  10.033  69.941  1.00  0.00    -0.175 A  
HETATM   20  C   UNL     1      -7.674   9.330  71.014  1.00  0.00    -0.100 A  
HETATM   21  C   UNL     1      -9.629  10.019  69.771  1.00  0.00    -0.249 A  
HETATM   22  C   UNL     1     -10.446   9.319  70.662  1.00  0.00    -0.325 A  
HETATM   23  H   UNL     1     -10.233   7.486  73.356  1.00  0.00     0.000 HD 
HETATM   24  C   UNL     1      -8.489   8.628  71.904  1.00  0.00    -0.210 A  
HETATM   25  C   UNL     1      -9.867   8.634  71.725  1.00  0.00    -0.295 A  
HETATM   26  O   UNL     1     -10.629   7.953  72.630  1.00  0.00    -0.275 OA 
ENDBRANCH  18  19
ENDBRANCH  17  18
ENDBRANCH   2  17
TORSDOF 7
ENDMDL
MODEL      312
REMARK 921   NORMALIZED FREE ENERGY PREDICTED BY IDOCK:   -3.19 KCAL/MOL
REMARK 922        TOTAL FREE ENERGY PREDICTED BY IDOCK:   -5.66 KCAL/MOL
REMARK 923 INTER-LIGAND FREE ENERGY PREDICTED BY IDOCK:   -4.41 KCAL/MOL
REMARK 924 INTRA-LIGAND FREE ENERGY PREDICTED BY IDOCK:   -1.25 KCAL/MOL
REMARK 927      BINDING AFFINITY PREDICTED BY RF-SCORE:    0.00 PKD
ROOT
HETATM    1  C   UNL     1      -6.638   5.569  66.872  1.00  0.00    -0.056 C  
HETATM    2  C   UNL     1      -7.729   5.927  65.857  1.00  0.00    -0.095 C  
ENDROOT
BRANCH   2   3
HETATM    3  N   UNL     1      -7.565   7.288  65.321  1.00  0.00    -0.095 NA 
HETATM    4  H   UNL     1      -7.221   7.249  64.362  1.00  0.00     0.000 HD 
BRANCH   3   5
HETATM    5  C   UNL     1      -8.764   8.136  65.395  1.00  0.00    -0.094 C  
BRANCH   5   6
HETATM    6  C   UNL     1      -8.558   9.559  64.858  1.00  0.00    -0.191 C  
BRANCH   6   7
HETATM    7  C   UNL     1      -8.875  10.619  65.883  1.00  0.00    -0.187 A  
HETATM    8  C   UNL     1      -9.379  12.596  67.783  1.00  0.00    -0.198 A  
HETATM    9  C   UNL     1      -9.795  12.772  66.466  1.00  0.00    -0.258 A  
HETATM   10  O   UNL     1      -9.602  13.577  68.707  1.00  0.00    -0.391 OA 
HETATM   11  C   UNL     1      -8.728  11.436  68.173  1.00  0.00    -0.154 A  
HETATM   12  H   UNL     1     -10.599  14.611  66.806  1.00  0.00     0.000 HD 
HETATM   13  C   UNL     1      -9.553  11.790  65.511  1.00  0.00    -0.222 A  
HETATM   14  O   UNL     1     -10.434  13.941  66.153  1.00  0.00    -0.286 OA 
HETATM   15  C   UNL     1      -8.480  10.444  67.221  1.00  0.00    -0.122 A  
HETATM   16  H   UNL     1      -9.318  13.457  69.606  1.00  0.00     0.000 HD 
ENDBRANCH   6   7
ENDBRANCH   5   6
ENDBRANCH   3   5
ENDBRANCH   2   3
BRANCH   2  17
HETATM   17  C   UNL     1      -9.111   5.786  66.526  1.00  0.00    -0.144 C  
BRANCH  17  18
HETATM   18  C   UNL     1      -9.041   5.271  67.970  1.00  0.00    -0.118 C  
BRANCH  18  19
HETATM   19  C   UNL     1      -9.904   6.112  68.881  1.00  0.00    -0.167 A  
HETATM   20  C   UNL     1     -10.500   5.550  70.018  1.00  0.00    -0.373 A  
HETATM   21  C   UNL     1     -10.077   7.481  68.626  1.00  0.00    -0.194 A  
HETATM   22  C   UNL     1     -10.827   8.276  69.494  1.00  0.00    -0.124 A  
HETATM   23  H   UNL     1     -12.522   8.049  72.277  1.00  0.00     0.000 HD 
HETATM   24  C   UNL     1     -11.252   6.344  70.886  1.00  0.00    -0.384 A  
HETATM   25  C   UNL     1     -11.404   7.699  70.622  1.00  0.00    -0.272 A  
HETATM   26  O   UNL     1     -12.129   8.443  71.507  1.00  0.00    -0.282 OA 
ENDBRANCH  18  19
ENDBRANCH  17  18
ENDBRANCH   2  17
TORSDOF 7
ENDMDL
MODEL      313
REMARK 921   NORMALIZED FREE ENERGY PREDICTED BY IDOCK:   -3.01 KCAL/MOL
REMARK 922        TOTAL FREE ENERGY PREDICTED BY IDOCK:   -5.40 KCAL/MOL
REMARK 923 INTER-LIGAND FREE ENERGY PREDICTED BY IDOCK:   -4.08 KCAL/MOL
REMARK 924 INTRA-LIGAND FREE ENERGY PREDICTED BY IDOCK:   -1.32 KCAL/MOL
REMARK 927      BINDING AFFINITY PREDICTED BY RF-SCORE:    0.00 PKD
ROOT
HETATM    1  C   UNL     1      -9.105   3.507  65.206  1.00  0.00    -0.144 C  
HETATM    2  C   UNL     1      -8.993   4.735  66.117  1.00  0.00    -0.122 C  
ENDROOT
BRANCH   2   3
HETATM    3  N   UNL     1      -8.495   4.388  67.458  1.00  0.00    -0.103 NA 
HETATM    4  H   UNL     1      -9.027   4.889  68.170  1.00  0.00     0.000 HD 
BRANCH   3   5
HETATM    5  C   UNL     1      -8.471   2.950  67.763  1.00  0.00    -0.086 C  
BRANCH   5   6
HETATM    6  C   UNL     1      -9.349   2.548  68.955  1.00  0.00    -0.218 C  
BRANCH   6   7
HETATM    7  C   UNL     1      -9.001   3.303  70.214  1.00  0.00    -0.170 A  
HETATM    8  C   UNL     1      -8.297   4.739  72.498  1.00  0.00    -0.115 A  
HETATM    9  C   UNL     1      -9.536   4.948  71.896  1.00  0.00    -0.149 A  
HETATM   10  O   UNL     1      -7.942   5.463  73.600  1.00  0.00    -0.108 OA 
HETATM   11  C   UNL     1      -7.407   3.808  71.986  1.00  0.00    -0.056 A  
HETATM   12  H   UNL     1     -10.116   6.369  73.233  1.00  0.00     0.000 HD 
HETATM   13  C   UNL     1      -9.899   4.233  70.759  1.00  0.00    -0.265 A  
HETATM   14  O   UNL     1     -10.364   5.881  72.457  1.00  0.00    -0.187 OA 
HETATM   15  C   UNL     1      -7.762   3.086  70.844  1.00  0.00    -0.043 A  
HETATM   16  H   UNL     1      -7.097   5.322  74.011  1.00  0.00     0.000 HD 
ENDBRANCH   6   7
ENDBRANCH   5   6
ENDBRANCH   3   5
ENDBRANCH   2   3
BRANCH   2  17
HETATM   17  C   UNL     1     -10.373   5.413  66.226  1.00  0.00    -0.251 C  
BRANCH  17  18
HETATM   18  C   UNL     1     -10.773   5.756  67.667  1.00  0.00    -0.313 C  
BRANCH  18  19
HETATM   19  C   UNL     1     -10.594   7.232  67.935  1.00  0.00    -0.266 A  
HETATM   20  C   UNL     1     -10.536   7.716  69.249  1.00  0.00    -0.220 A  
HETATM   21  C   UNL     1     -10.433   8.130  66.869  1.00  0.00    -0.379 A  
HETATM   22  C   UNL     1     -10.211   9.487  67.111  1.00  0.00    -0.305 A  
HETATM   23  H   UNL     1      -9.871  11.572  69.602  1.00  0.00     0.000 HD 
HETATM   24  C   UNL     1     -10.316   9.073  69.492  1.00  0.00    -0.211 A  
HETATM   25  C   UNL     1     -10.149   9.945  68.424  1.00  0.00    -0.167 A  
HETATM   26  O   UNL     1      -9.914  11.259  68.706  1.00  0.00    -0.205 OA 
ENDBRANCH  18  19
ENDBRANCH  17  18
ENDBRANCH   2  17
TORSDOF 7
ENDMDL
MODEL      314
REMARK 921   NORMALIZED FREE ENERGY PREDICTED BY IDOCK:   -2.95 KCAL/MOL
REMARK 922        TOTAL FREE ENERGY PREDICTED BY IDOCK:   -5.31 KCAL/MOL
REMARK 923 INTER-LIGAND FREE ENERGY PREDICTED BY IDOCK:   -4.44 KCAL/MOL
REMARK 924 INTRA-LIGAND FREE ENERGY PREDICTED BY IDOCK:   -0.87 KCAL/MOL
REMARK 927      BINDING AFFINITY PREDICTED BY RF-SCORE:    0.00 PKD
ROOT
HETATM    1  C   UNL     1      -7.349   8.921  64.600  1.00  0.00    -0.101 C  
HETATM    2  C   UNL     1      -8.353   9.087  65.746  1.00  0.00    -0.128 C  
ENDROOT
BRANCH   2   3
HETATM    3  N   UNL     1      -9.037   7.826  66.072  1.00  0.00    -0.310 NA 
HETATM    4  H   UNL     1      -8.771   7.100  65.408  1.00  0.00     0.000 HD 
BRANCH   3   5
HETATM    5  C   UNL     1      -8.842   7.348  67.450  1.00  0.00    -0.123 C  
BRANCH   5   6
HETATM    6  C   UNL     1      -9.954   6.419  67.953  1.00  0.00    -0.145 C  
BRANCH   6   7
HETATM    7  C   UNL     1     -10.661   6.963  69.170  1.00  0.00    -0.245 A  
HETATM    8  C   UNL     1     -11.920   7.918  71.467  1.00  0.00    -0.301 A  
HETATM    9  C   UNL     1     -11.084   8.753  70.731  1.00  0.00    -0.260 A  
HETATM   10  O   UNL     1     -12.515   8.378  72.607  1.00  0.00    -0.562 OA 
HETATM   11  C   UNL     1     -12.153   6.612  71.063  1.00  0.00    -0.384 A  
HETATM   12  H   UNL     1     -11.332  10.347  71.972  1.00  0.00     0.000 HD 
HETATM   13  C   UNL     1     -10.454   8.288  69.580  1.00  0.00    -0.221 A  
HETATM   14  O   UNL     1     -10.902  10.030  71.187  1.00  0.00    -0.260 OA 
HETATM   15  C   UNL     1     -11.525   6.136  69.910  1.00  0.00    -0.371 A  
HETATM   16  H   UNL     1     -13.085   7.808  73.109  1.00  0.00     0.000 HD 
ENDBRANCH   6   7
ENDBRANCH   5   6
ENDBRANCH   3   5
ENDBRANCH   2   3
BRANCH   2  17
HETATM   17  C   UNL     1      -9.388  10.164  65.362  1.00  0.00    -0.269 C  
BRANCH  17  18
HETATM   18  C   UNL     1      -9.052  11.557  65.910  1.00  0.00    -0.186 C  
BRANCH  18  19
HETATM   19  C   UNL     1      -8.148  11.454  67.117  1.00  0.00    -0.155 A  
HETATM   20  C   UNL     1      -6.769  11.669  66.995  1.00  0.00    -0.145 A  
HETATM   21  C   UNL     1      -8.689  11.191  68.384  1.00  0.00    -0.157 A  
HETATM   22  C   UNL     1      -7.867  11.150  69.512  1.00  0.00     0.160 A  
HETATM   23  H   UNL     1      -4.732  11.514  70.351  1.00  0.00     0.000 HD 
HETATM   24  C   UNL     1      -5.946  11.625  68.122  1.00  0.00    -0.046 A  
HETATM   25  C   UNL     1      -6.501  11.373  69.370  1.00  0.00    -0.108 A  
HETATM   26  O   UNL     1      -5.665  11.361  70.448  1.00  0.00    -0.122 OA 
ENDBRANCH  18  19
ENDBRANCH  17  18
ENDBRANCH   2  17
TORSDOF 7
ENDMDL
MODEL      315
REMARK 921   NORMALIZED FREE ENERGY PREDICTED BY IDOCK:   -2.95 KCAL/MOL
REMARK 922        TOTAL FREE ENERGY PREDICTED BY IDOCK:   -5.31 KCAL/MOL
REMARK 923 INTER-LIGAND FREE ENERGY PREDICTED BY IDOCK:   -4.37 KCAL/MOL
REMARK 924 INTRA-LIGAND FREE ENERGY PREDICTED BY IDOCK:   -0.94 KCAL/MOL
REMARK 927      BINDING AFFINITY PREDICTED BY RF-SCORE:    0.00 PKD
ROOT
HETATM    1  C   UNL     1      -9.561   3.237  67.153  1.00  0.00    -0.085 C  
HETATM    2  C   UNL     1      -9.891   4.702  67.458  1.00  0.00    -0.153 C  
ENDROOT
BRANCH   2   3
HETATM    3  N   UNL     1      -9.711   5.569  66.283  1.00  0.00    -0.172 NA 
HETATM    4  H   UNL     1     -10.531   5.517  65.679  1.00  0.00     0.000 HD 
BRANCH   3   5
HETATM    5  C   UNL     1      -9.393   6.973  66.585  1.00  0.00    -0.165 C  
BRANCH   5   6
HETATM    6  C   UNL     1     -10.622   7.841  66.889  1.00  0.00    -0.347 C  
BRANCH   6   7
HETATM    7  C   UNL     1     -10.328   9.318  66.792  1.00  0.00    -0.296 A  
HETATM    8  C   UNL     1      -9.708  12.032  66.644  1.00  0.00    -0.208 A  
HETATM    9  C   UNL     1      -9.918  11.300  65.479  1.00  0.00    -0.247 A  
HETATM   10  O   UNL     1      -9.377  13.355  66.569  1.00  0.00    -0.294 OA 
HETATM   11  C   UNL     1      -9.820  11.433  67.889  1.00  0.00    -0.188 A  
HETATM   12  H   UNL     1      -9.577  12.880  64.242  1.00  0.00     0.000 HD 
HETATM   13  C   UNL     1     -10.232   9.946  65.542  1.00  0.00    -0.194 A  
HETATM   14  O   UNL     1      -9.792  11.956  64.285  1.00  0.00    -0.250 OA 
HETATM   15  C   UNL     1     -10.135  10.074  67.962  1.00  0.00    -0.197 A  
HETATM   16  H   UNL     1      -9.233  13.855  67.364  1.00  0.00     0.000 HD 
ENDBRANCH   6   7
ENDBRANCH   5   6
ENDBRANCH   3   5
ENDBRANCH   2   3
BRANCH   2  17
HETATM   17  C   UNL     1      -8.998   5.192  68.616  1.00  0.00    -0.122 C  
BRANCH  17  18
HETATM   18  C   UNL     1      -9.666   5.077  69.993  1.00  0.00    -0.278 C  
BRANCH  18  19
HETATM   19  C   UNL     1      -9.103   6.104  70.948  1.00  0.00    -0.155 A  
HETATM   20  C   UNL     1      -9.157   5.895  72.333  1.00  0.00    -0.140 A  
HETATM   21  C   UNL     1      -8.473   7.256  70.456  1.00  0.00    -0.138 A  
HETATM   22  C   UNL     1      -7.901   8.182  71.331  1.00  0.00    -0.110 A  
HETATM   23  H   UNL     1      -7.437   8.662  74.528  1.00  0.00     0.000 HD 
HETATM   24  C   UNL     1      -8.588   6.821  73.209  1.00  0.00    -0.136 A  
HETATM   25  C   UNL     1      -7.960   7.951  72.702  1.00  0.00    -0.123 A  
HETATM   26  O   UNL     1      -7.398   8.820  73.592  1.00  0.00    -0.373 OA 
ENDBRANCH  18  19
ENDBRANCH  17  18
ENDBRANCH   2  17
TORSDOF 7
ENDMDL
MODEL      316
REMARK 921   NORMALIZED FREE ENERGY PREDICTED BY IDOCK:   -2.69 KCAL/MOL
REMARK 922        TOTAL FREE ENERGY PREDICTED BY IDOCK:   -4.95 KCAL/MOL
REMARK 923 INTER-LIGAND FREE ENERGY PREDICTED BY IDOCK:   -2.80 KCAL/MOL
REMARK 924 INTRA-LIGAND FREE ENERGY PREDICTED BY IDOCK:   -2.15 KCAL/MOL
REMARK 927      BINDING AFFINITY PREDICTED BY RF-SCORE:    0.00 PKD
ROOT
HETATM    1  C   UNL     1      -5.127   6.892  68.484  1.00  0.00    -0.015 C  
HETATM    2  C   UNL     1      -6.038   7.607  67.479  1.00  0.00    -0.049 C  
ENDROOT
BRANCH   2   3
HETATM    3  N   UNL     1      -5.554   7.470  66.096  1.00  0.00    -0.031 NA 
HETATM    4  H   UNL     1      -4.745   6.849  66.066  1.00  0.00     0.000 HD 
BRANCH   3   5
HETATM    5  C   UNL     1      -6.565   7.031  65.121  1.00  0.00    -0.047 C  
BRANCH   5   6
HETATM    6  C   UNL     1      -6.902   8.082  64.055  1.00  0.00    -0.066 C  
BRANCH   6   7
HETATM    7  C   UNL     1      -8.003   9.018  64.489  1.00  0.00    -0.131 A  
HETATM    8  C   UNL     1     -10.074  10.737  65.215  1.00  0.00    -0.290 A  
HETATM    9  C   UNL     1      -9.944   9.500  65.840  1.00  0.00    -0.272 A  
HETATM   10  O   UNL     1     -11.106  11.567  65.552  1.00  0.00    -0.271 OA 
HETATM   11  C   UNL     1      -9.173  11.140  64.242  1.00  0.00    -0.123 A  
HETATM   12  H   UNL     1     -11.573   9.758  67.033  1.00  0.00     0.000 HD 
HETATM   13  C   UNL     1      -8.911   8.636  65.488  1.00  0.00    -0.209 A  
HETATM   14  O   UNL     1     -10.868   9.169  66.793  1.00  0.00    -0.109 OA 
HETATM   15  C   UNL     1      -8.134  10.279  63.882  1.00  0.00    -0.138 A  
HETATM   16  H   UNL     1     -11.195  12.412  65.126  1.00  0.00     0.000 HD 
ENDBRANCH   6   7
ENDBRANCH   5   6
ENDBRANCH   3   5
ENDBRANCH   2   3
BRANCH   2  17
HETATM   17  C   UNL     1      -6.138   9.098  67.857  1.00  0.00    -0.050 C  
BRANCH  17  18
HETATM   18  C   UNL     1      -7.326   9.417  68.774  1.00  0.00    -0.074 C  
BRANCH  18  19
HETATM   19  C   UNL     1      -7.929  10.757  68.422  1.00  0.00    -0.124 A  
HETATM   20  C   UNL     1      -9.169  11.142  68.949  1.00  0.00    -0.106 A  
HETATM   21  C   UNL     1      -7.228  11.654  67.603  1.00  0.00    -0.107 A  
HETATM   22  C   UNL     1      -7.753  12.917  67.319  1.00  0.00    -0.122 A  
HETATM   23  H   UNL     1     -10.363  14.761  67.993  1.00  0.00     0.000 HD 
HETATM   24  C   UNL     1      -9.696  12.403  68.665  1.00  0.00    -0.064 A  
HETATM   25  C   UNL     1      -8.982  13.282  67.859  1.00  0.00    -0.199 A  
HETATM   26  O   UNL     1      -9.523  14.512  67.624  1.00  0.00    -0.203 OA 
ENDBRANCH  18  19
ENDBRANCH  17  18
ENDBRANCH   2  17
TORSDOF 7
ENDMDL
MODEL      317
REMARK 921   NORMALIZED FREE ENERGY PREDICTED BY IDOCK:   -2.67 KCAL/MOL
REMARK 922        TOTAL FREE ENERGY PREDICTED BY IDOCK:   -4.92 KCAL/MOL
REMARK 923 INTER-LIGAND FREE ENERGY PREDICTED BY IDOCK:   -4.40 KCAL/MOL
REMARK 924 INTRA-LIGAND FREE ENERGY PREDICTED BY IDOCK:   -0.52 KCAL/MOL
REMARK 927      BINDING AFFINITY PREDICTED BY RF-SCORE:    0.00 PKD
ROOT
HETATM    1  C   UNL     1      -6.851   9.205  63.913  1.00  0.00    -0.089 C  
HETATM    2  C   UNL     1      -6.977   8.585  65.309  1.00  0.00    -0.078 C  
ENDROOT
BRANCH   2   3
HETATM    3  N   UNL     1      -7.102   7.120  65.258  1.00  0.00    -0.059 NA 
HETATM    4  H   UNL     1      -7.749   6.849  64.517  1.00  0.00     0.000 HD 
BRANCH   3   5
HETATM    5  C   UNL     1      -5.834   6.389  65.115  1.00  0.00    -0.022 C  
BRANCH   5   6
HETATM    6  C   UNL     1      -5.815   5.026  65.819  1.00  0.00    -0.018 C  
BRANCH   6   7
HETATM    7  C   UNL     1      -7.015   4.178  65.475  1.00  0.00    -0.062 A  
HETATM    8  C   UNL     1      -9.277   2.682  64.829  1.00  0.00    -0.137 A  
HETATM    9  C   UNL     1      -8.181   2.695  63.971  1.00  0.00    -0.082 A  
HETATM   10  O   UNL     1     -10.395   1.971  64.498  1.00  0.00    -0.330 OA 
HETATM   11  C   UNL     1      -9.256   3.393  66.018  1.00  0.00    -0.164 A  
HETATM   12  H   UNL     1      -9.046   1.464  62.600  1.00  0.00     0.000 HD 
HETATM   13  C   UNL     1      -7.045   3.435  64.286  1.00  0.00    -0.057 A  
HETATM   14  O   UNL     1      -8.271   1.968  62.815  1.00  0.00    -0.066 OA 
HETATM   15  C   UNL     1      -8.120   4.139  66.343  1.00  0.00    -0.098 A  
HETATM   16  H   UNL     1     -11.144   1.962  65.083  1.00  0.00     0.000 HD 
ENDBRANCH   6   7
ENDBRANCH   5   6
ENDBRANCH   3   5
ENDBRANCH   2   3
BRANCH   2  17
HETATM   17  C   UNL     1      -8.198   9.194  66.027  1.00  0.00    -0.115 C  
BRANCH  17  18
HETATM   18  C   UNL     1      -8.151  10.725  66.121  1.00  0.00    -0.160 C  
BRANCH  18  19
HETATM   19  C   UNL     1      -9.491  11.325  65.761  1.00  0.00    -0.252 A  
HETATM   20  C   UNL     1     -10.288  11.930  66.742  1.00  0.00    -0.238 A  
HETATM   21  C   UNL     1      -9.929  11.327  64.428  1.00  0.00    -0.338 A  
HETATM   22  C   UNL     1     -11.139  11.929  64.080  1.00  0.00    -0.459 A  
HETATM   23  H   UNL     1     -13.619  13.560  65.444  1.00  0.00     0.000 HD 
HETATM   24  C   UNL     1     -11.499  12.531  66.395  1.00  0.00    -0.418 A  
HETATM   25  C   UNL     1     -11.912  12.532  65.068  1.00  0.00    -0.427 A  
HETATM   26  O   UNL     1     -13.091  13.148  64.769  1.00  0.00    -0.728 OA 
ENDBRANCH  18  19
ENDBRANCH  17  18
ENDBRANCH   2  17
TORSDOF 7
ENDMDL
MODEL      318
REMARK 921   NORMALIZED FREE ENERGY PREDICTED BY IDOCK:   -2.55 KCAL/MOL
REMARK 922        TOTAL FREE ENERGY PREDICTED BY IDOCK:   -4.76 KCAL/MOL
REMARK 923 INTER-LIGAND FREE ENERGY PREDICTED BY IDOCK:   -4.12 KCAL/MOL
REMARK 924 INTRA-LIGAND FREE ENERGY PREDICTED BY IDOCK:   -0.64 KCAL/MOL
REMARK 927      BINDING AFFINITY PREDICTED BY RF-SCORE:    0.00 PKD
ROOT
HETATM    1  C   UNL     1      -8.914   3.544  66.335  1.00  0.00    -0.149 C  
HETATM    2  C   UNL     1      -9.493   4.839  66.917  1.00  0.00    -0.155 C  
ENDROOT
BRANCH   2   3
HETATM    3  N   UNL     1      -9.317   5.984  66.009  1.00  0.00    -0.298 NA 
HETATM    4  H   UNL     1     -10.107   6.048  65.367  1.00  0.00     0.000 HD 
BRANCH   3   5
HETATM    5  C   UNL     1      -9.095   7.278  66.671  1.00  0.00    -0.154 C  
BRANCH   5   6
HETATM    6  C   UNL     1     -10.370   8.110  66.862  1.00  0.00    -0.401 C  
BRANCH   6   7
HETATM    7  C   UNL     1     -10.138   9.586  66.655  1.00  0.00    -0.321 A  
HETATM    8  C   UNL     1      -9.629  12.304  66.297  1.00  0.00    -0.242 A  
HETATM    9  C   UNL     1      -9.875  11.489  65.195  1.00  0.00    -0.257 A  
HETATM   10  O   UNL     1      -9.352  13.629  66.118  1.00  0.00    -0.454 OA 
HETATM   11  C   UNL     1      -9.650  11.785  67.582  1.00  0.00    -0.184 A  
HETATM   12  H   UNL     1      -9.663  12.995  63.842  1.00  0.00     0.000 HD 
HETATM   13  C   UNL     1     -10.134  10.132  65.363  1.00  0.00    -0.342 A  
HETATM   14  O   UNL     1      -9.840  12.069  63.956  1.00  0.00    -0.271 OA 
HETATM   15  C   UNL     1      -9.909  10.424  67.761  1.00  0.00    -0.193 A  
HETATM   16  H   UNL     1      -9.184  14.185  66.870  1.00  0.00     0.000 HD 
ENDBRANCH   6   7
ENDBRANCH   5   6
ENDBRANCH   3   5
ENDBRANCH   2   3
BRANCH   2  17
HETATM   17  C   UNL     1      -8.819   5.132  68.272  1.00  0.00    -0.107 C  
BRANCH  17  18
HETATM   18  C   UNL     1      -9.522   4.467  69.462  1.00  0.00    -0.251 C  
BRANCH  18  19
HETATM   19  C   UNL     1      -8.518   3.796  70.370  1.00  0.00    -0.093 A  
HETATM   20  C   UNL     1      -8.068   2.497  70.099  1.00  0.00    -0.056 A  
HETATM   21  C   UNL     1      -7.986   4.487  71.468  1.00  0.00    -0.095 A  
HETATM   22  C   UNL     1      -7.016   3.894  72.279  1.00  0.00    -0.049 A  
HETATM   23  H   UNL     1      -5.318   1.117  72.542  1.00  0.00     0.000 HD 
HETATM   24  C   UNL     1      -7.100   1.902  70.910  1.00  0.00    -0.033 A  
HETATM   25  C   UNL     1      -6.577   2.606  71.987  1.00  0.00    -0.015 A  
HETATM   26  O   UNL     1      -5.618   1.996  72.741  1.00  0.00     0.000 OA 
ENDBRANCH  18  19
ENDBRANCH  17  18
ENDBRANCH   2  17
TORSDOF 7
ENDMDL
MODEL      319
REMARK 921   NORMALIZED FREE ENERGY PREDICTED BY IDOCK:   -2.54 KCAL/MOL
REMARK 922        TOTAL FREE ENERGY PREDICTED BY IDOCK:   -4.75 KCAL/MOL
REMARK 923 INTER-LIGAND FREE ENERGY PREDICTED BY IDOCK:   -3.85 KCAL/MOL
REMARK 924 INTRA-LIGAND FREE ENERGY PREDICTED BY IDOCK:   -0.90 KCAL/MOL
REMARK 927      BINDING AFFINITY PREDICTED BY RF-SCORE:    0.00 PKD
ROOT
HETATM    1  C   UNL     1      -6.232  15.252  67.865  1.00  0.00    -0.170 C  
HETATM    2  C   UNL     1      -7.575  14.921  68.526  1.00  0.00    -0.121 C  
ENDROOT
BRANCH   2   3
HETATM    3  N   UNL     1      -7.931  13.501  68.381  1.00  0.00    -0.142 NA 
HETATM    4  H   UNL     1      -8.822  13.313  68.841  1.00  0.00     0.000 HD 
BRANCH   3   5
HETATM    5  C   UNL     1      -7.961  13.003  66.997  1.00  0.00    -0.004 C  
BRANCH   5   6
HETATM    6  C   UNL     1      -9.334  12.488  66.547  1.00  0.00    -0.233 C  
BRANCH   6   7
HETATM    7  C   UNL     1      -9.687  11.157  67.163  1.00  0.00    -0.199 A  
HETATM    8  C   UNL     1     -10.398   8.687  68.243  1.00  0.00    -0.207 A  
HETATM    9  C   UNL     1      -9.164   8.846  67.618  1.00  0.00    -0.136 A  
HETATM   10  O   UNL     1     -10.758   7.469  68.747  1.00  0.00    -0.323 OA 
HETATM   11  C   UNL     1     -11.280   9.751  68.353  1.00  0.00    -0.076 A  
HETATM   12  H   UNL     1      -8.594   6.914  67.915  1.00  0.00     0.000 HD 
HETATM   13  C   UNL     1      -8.797  10.076  67.080  1.00  0.00    -0.142 A  
HETATM   14  O   UNL     1      -8.344   7.753  67.547  1.00  0.00    -0.119 OA 
HETATM   15  C   UNL     1     -10.921  10.989  67.815  1.00  0.00    -0.323 A  
HETATM   16  H   UNL     1     -11.600   7.360  69.173  1.00  0.00     0.000 HD 
ENDBRANCH   6   7
ENDBRANCH   5   6
ENDBRANCH   3   5
ENDBRANCH   2   3
BRANCH   2  17
HETATM   17  C   UNL     1      -8.676  15.807  67.909  1.00  0.00    -0.170 C  
BRANCH  17  18
HETATM   18  C   UNL     1      -9.297  16.794  68.906  1.00  0.00    -0.233 C  
BRANCH  18  19
HETATM   19  C   UNL     1     -10.498  16.180  69.589  1.00  0.00    -0.291 A  
HETATM   20  C   UNL     1     -11.626  15.806  68.846  1.00  0.00    -0.400 A  
HETATM   21  C   UNL     1     -10.475  15.930  70.969  1.00  0.00     0.538 A  
HETATM   22  C   UNL     1     -11.559  15.312  71.596  1.00  0.00    -0.473 A  
HETATM   23  H   UNL     1     -14.494  14.065  70.891  1.00  0.00     0.000 HD 
HETATM   24  C   UNL     1     -12.711  15.190  69.473  1.00  0.00     0.095 A  
HETATM   25  C   UNL     1     -12.666  14.942  70.839  1.00  0.00    -0.360 A  
HETATM   26  O   UNL     1     -13.738  14.319  71.408  1.00  0.00    -0.358 OA 
ENDBRANCH  18  19
ENDBRANCH  17  18
ENDBRANCH   2  17
TORSDOF 7
ENDMDL
MODEL      320
REMARK 921   NORMALIZED FREE ENERGY PREDICTED BY IDOCK:   -2.44 KCAL/MOL
REMARK 922        TOTAL FREE ENERGY PREDICTED BY IDOCK:   -4.60 KCAL/MOL
REMARK 923 INTER-LIGAND FREE ENERGY PREDICTED BY IDOCK:   -4.40 KCAL/MOL
REMARK 924 INTRA-LIGAND FREE ENERGY PREDICTED BY IDOCK:   -0.21 KCAL/MOL
REMARK 927      BINDING AFFINITY PREDICTED BY RF-SCORE:    0.00 PKD
ROOT
HETATM    1  C   UNL     1      -7.214   8.770  67.520  1.00  0.00    -0.080 C  
HETATM    2  C   UNL     1      -7.009   9.002  69.021  1.00  0.00    -0.063 C  
ENDROOT
BRANCH   2   3
HETATM    3  N   UNL     1      -7.807   8.076  69.841  1.00  0.00    -0.100 NA 
HETATM    4  H   UNL     1      -7.324   7.182  69.932  1.00  0.00     0.000 HD 
BRANCH   3   5
HETATM    5  C   UNL     1      -8.186   8.585  71.168  1.00  0.00    -0.144 C  
BRANCH   5   6
HETATM    6  C   UNL     1      -9.509   9.362  71.186  1.00  0.00    -0.186 C  
BRANCH   6   7
HETATM    7  C   UNL     1     -10.695   8.482  71.494  1.00  0.00    -0.330 A  
HETATM    8  C   UNL     1     -12.867   6.860  72.146  1.00  0.00    -0.056 A  
HETATM    9  C   UNL     1     -13.079   8.149  71.664  1.00  0.00    -0.335 A  
HETATM   10  O   UNL     1     -13.931   6.077  72.491  1.00  0.00    -0.505 OA 
HETATM   11  C   UNL     1     -11.583   6.359  72.292  1.00  0.00    -0.341 A  
HETATM   12  H   UNL     1     -15.107   8.020  71.771  1.00  0.00     0.000 HD 
HETATM   13  C   UNL     1     -12.002   8.965  71.332  1.00  0.00    -0.374 A  
HETATM   14  O   UNL     1     -14.373   8.577  71.544  1.00  0.00    -0.424 OA 
HETATM   15  C   UNL     1     -10.496   7.171  71.961  1.00  0.00    -0.232 A  
HETATM   16  H   UNL     1     -13.787   5.197  72.821  1.00  0.00     0.000 HD 
ENDBRANCH   6   7
ENDBRANCH   5   6
ENDBRANCH   3   5
ENDBRANCH   2   3
BRANCH   2  17
HETATM   17  C   UNL     1      -7.377  10.460  69.363  1.00  0.00    -0.123 C  
BRANCH  17  18
HETATM   18  C   UNL     1      -6.166  11.400  69.416  1.00  0.00    -0.091 C  
BRANCH  18  19
HETATM   19  C   UNL     1      -6.609  12.845  69.392  1.00  0.00    -0.062 A  
HETATM   20  C   UNL     1      -5.867  13.828  70.060  1.00  0.00    -0.137 A  
HETATM   21  C   UNL     1      -7.740  13.225  68.656  1.00  0.00    -0.080 A  
HETATM   22  C   UNL     1      -8.122  14.566  68.583  1.00  0.00    -0.150 A  
HETATM   23  H   UNL     1      -7.178  17.508  69.641  1.00  0.00     0.000 HD 
HETATM   24  C   UNL     1      -6.250  15.169  69.990  1.00  0.00    -0.152 A  
HETATM   25  C   UNL     1      -7.368  15.528  69.248  1.00  0.00    -0.202 A  
HETATM   26  O   UNL     1      -7.694  16.851  69.188  1.00  0.00    -0.227 OA 
ENDBRANCH  18  19
ENDBRANCH  17  18
ENDBRANCH   2  17
TORSDOF 7
ENDMDL
MODEL      321
REMARK 921   NORMALIZED FREE ENERGY PREDICTED BY IDOCK:   -2.38 KCAL/MOL
REMARK 922        TOTAL FREE ENERGY PREDICTED BY IDOCK:   -4.51 KCAL/MOL
REMARK 923 INTER-LIGAND FREE ENERGY PREDICTED BY IDOCK:   -4.36 KCAL/MOL
REMARK 924 INTRA-LIGAND FREE ENERGY PREDICTED BY IDOCK:   -0.15 KCAL/MOL
REMARK 927      BINDING AFFINITY PREDICTED BY RF-SCORE:    0.00 PKD
ROOT
HETATM    1  C   UNL     1      -6.564   7.833  68.284  1.00  0.00    -0.058 C  
HETATM    2  C   UNL     1      -7.701   7.347  67.378  1.00  0.00    -0.114 C  
ENDROOT
BRANCH   2   3
HETATM    3  N   UNL     1      -8.770   6.679  68.139  1.00  0.00    -0.118 NA 
HETATM    4  H   UNL     1      -8.725   5.670  67.996  1.00  0.00     0.000 HD 
BRANCH   3   5
HETATM    5  C   UNL     1      -8.799   6.987  69.577  1.00  0.00    -0.133 C  
BRANCH   5   6
HETATM    6  C   UNL     1     -10.210   7.182  70.146  1.00  0.00    -0.204 C  
BRANCH   6   7
HETATM    7  C   UNL     1     -10.726   8.587  69.953  1.00  0.00    -0.224 A  
HETATM    8  C   UNL     1     -11.731  11.154  69.537  1.00  0.00    -0.335 A  
HETATM    9  C   UNL     1     -11.970  10.498  70.741  1.00  0.00    -0.370 A  
HETATM   10  O   UNL     1     -12.247  12.401  69.323  1.00  0.00    -0.195 OA 
HETATM   11  C   UNL     1     -10.979  10.554  68.539  1.00  0.00    -0.300 A  
HETATM   12  H   UNL     1     -13.060  12.025  71.532  1.00  0.00     0.000 HD 
HETATM   13  C   UNL     1     -11.469   9.219  70.961  1.00  0.00    -0.387 A  
HETATM   14  O   UNL     1     -12.718  11.151  71.682  1.00  0.00    -0.395 OA 
HETATM   15  C   UNL     1     -10.473   9.270  68.750  1.00  0.00    -0.233 A  
HETATM   16  H   UNL     1     -12.084  12.849  68.501  1.00  0.00     0.000 HD 
ENDBRANCH   6   7
ENDBRANCH   5   6
ENDBRANCH   3   5
ENDBRANCH   2   3
BRANCH   2  17
HETATM   17  C   UNL     1      -7.130   6.386  66.317  1.00  0.00    -0.068 C  
BRANCH  17  18
HETATM   18  C   UNL     1      -6.364   7.100  65.196  1.00  0.00    -0.037 C  
BRANCH  18  19
HETATM   19  C   UNL     1      -7.273   8.042  64.441  1.00  0.00    -0.085 A  
HETATM   20  C   UNL     1      -7.762   9.204  65.054  1.00  0.00    -0.109 A  
HETATM   21  C   UNL     1      -7.598   7.789  63.101  1.00  0.00    -0.123 A  
HETATM   22  C   UNL     1      -8.392   8.684  62.381  1.00  0.00    -0.200 A  
HETATM   23  H   UNL     1      -9.943  11.533  62.761  1.00  0.00     0.000 HD 
HETATM   24  C   UNL     1      -8.558  10.099  64.336  1.00  0.00    -0.199 A  
HETATM   25  C   UNL     1      -8.861   9.835  63.006  1.00  0.00    -0.246 A  
HETATM   26  O   UNL     1      -9.623  10.746  62.335  1.00  0.00    -0.224 OA 
ENDBRANCH  18  19
ENDBRANCH  17  18
ENDBRANCH   2  17
TORSDOF 7
ENDMDL
MODEL      322
REMARK 921   NORMALIZED FREE ENERGY PREDICTED BY IDOCK:   -2.36 KCAL/MOL
REMARK 922        TOTAL FREE ENERGY PREDICTED BY IDOCK:   -4.49 KCAL/MOL
REMARK 923 INTER-LIGAND FREE ENERGY PREDICTED BY IDOCK:   -3.99 KCAL/MOL
REMARK 924 INTRA-LIGAND FREE ENERGY PREDICTED BY IDOCK:   -0.50 KCAL/MOL
REMARK 927      BINDING AFFINITY PREDICTED BY RF-SCORE:    0.00 PKD
ROOT
HETATM    1  C   UNL     1      -5.478   6.388  68.054  1.00  0.00    -0.008 C  
HETATM    2  C   UNL     1      -6.588   6.750  67.061  1.00  0.00    -0.044 C  
ENDROOT
BRANCH   2   3
HETATM    3  N   UNL     1      -6.316   6.232  65.711  1.00  0.00    -0.037 NA 
HETATM    4  H   UNL     1      -5.974   6.982  65.110  1.00  0.00     0.000 HD 
BRANCH   3   5
HETATM    5  C   UNL     1      -5.402   5.081  65.655  1.00  0.00    -0.013 C  
BRANCH   5   6
HETATM    6  C   UNL     1      -6.093   3.749  65.339  1.00  0.00    -0.024 C  
BRANCH   6   7
HETATM    7  C   UNL     1      -7.590   3.886  65.212  1.00  0.00    -0.081 A  
HETATM    8  C   UNL     1     -10.352   4.216  65.015  1.00  0.00    -0.192 A  
HETATM    9  C   UNL     1      -9.569   4.187  63.864  1.00  0.00    -0.141 A  
HETATM   10  O   UNL     1     -11.701   4.406  64.919  1.00  0.00    -0.979 OA 
HETATM   11  C   UNL     1      -9.779   4.065  66.268  1.00  0.00    -0.201 A  
HETATM   12  H   UNL     1     -11.143   4.455  62.602  1.00  0.00     0.000 HD 
HETATM   13  C   UNL     1      -8.190   4.018  63.951  1.00  0.00    -0.092 A  
HETATM   14  O   UNL     1     -10.202   4.340  62.662  1.00  0.00    -0.150 OA 
HETATM   15  C   UNL     1      -8.395   3.896  66.366  1.00  0.00    -0.105 A  
HETATM   16  H   UNL     1     -12.236   4.426  65.704  1.00  0.00     0.000 HD 
ENDBRANCH   6   7
ENDBRANCH   5   6
ENDBRANCH   3   5
ENDBRANCH   2   3
BRANCH   2  17
HETATM   17  C   UNL     1      -6.749   8.283  67.016  1.00  0.00    -0.062 C  
BRANCH  17  18
HETATM   18  C   UNL     1      -7.148   8.895  68.365  1.00  0.00    -0.077 C  
BRANCH  18  19
HETATM   19  C   UNL     1      -8.497   9.568  68.269  1.00  0.00    -0.119 A  
HETATM   20  C   UNL     1      -9.496   9.046  67.436  1.00  0.00    -0.179 A  
HETATM   21  C   UNL     1      -8.783  10.695  69.054  1.00  0.00    -0.152 A  
HETATM   22  C   UNL     1     -10.047  11.287  69.012  1.00  0.00    -0.147 A  
HETATM   23  H   UNL     1     -12.949  10.917  67.560  1.00  0.00     0.000 HD 
HETATM   24  C   UNL     1     -10.759   9.639  67.391  1.00  0.00    -0.308 A  
HETATM   25  C   UNL     1     -11.026  10.749  68.183  1.00  0.00    -0.257 A  
HETATM   26  O   UNL     1     -12.280  11.285  68.126  1.00  0.00    -0.622 OA 
ENDBRANCH  18  19
ENDBRANCH  17  18
ENDBRANCH   2  17
TORSDOF 7
ENDMDL
MODEL      323
REMARK 921   NORMALIZED FREE ENERGY PREDICTED BY IDOCK:   -2.36 KCAL/MOL
REMARK 922        TOTAL FREE ENERGY PREDICTED BY IDOCK:   -4.48 KCAL/MOL
REMARK 923 INTER-LIGAND FREE ENERGY PREDICTED BY IDOCK:   -4.24 KCAL/MOL
REMARK 924 INTRA-LIGAND FREE ENERGY PREDICTED BY IDOCK:   -0.25 KCAL/MOL
REMARK 927      BINDING AFFINITY PREDICTED BY RF-SCORE:    0.00 PKD
ROOT
HETATM    1  C   UNL     1      -6.156  15.290  67.852  1.00  0.00    -0.169 C  
HETATM    2  C   UNL     1      -7.467  14.951  68.570  1.00  0.00    -0.118 C  
ENDROOT
BRANCH   2   3
HETATM    3  N   UNL     1      -7.869  13.551  68.361  1.00  0.00    -0.139 NA 
HETATM    4  H   UNL     1      -8.759  13.368  68.824  1.00  0.00     0.000 HD 
BRANCH   3   5
HETATM    5  C   UNL     1      -7.932  13.122  66.956  1.00  0.00     0.015 C  
BRANCH   5   6
HETATM    6  C   UNL     1      -9.303  12.584  66.527  1.00  0.00    -0.233 C  
BRANCH   6   7
HETATM    7  C   UNL     1      -9.587  11.210  67.080  1.00  0.00    -0.201 A  
HETATM    8  C   UNL     1     -10.174   8.661  68.045  1.00  0.00    -0.210 A  
HETATM    9  C   UNL     1      -8.966   8.900  67.396  1.00  0.00    -0.132 A  
HETATM   10  O   UNL     1     -10.472   7.405  68.493  1.00  0.00    -0.195 OA 
HETATM   11  C   UNL     1     -11.091   9.682  68.237  1.00  0.00    -0.102 A  
HETATM   12  H   UNL     1      -8.315   6.979  67.573  1.00  0.00     0.000 HD 
HETATM   13  C   UNL     1      -8.661  10.170  66.914  1.00  0.00    -0.127 A  
HETATM   14  O   UNL     1      -8.107   7.846  67.244  1.00  0.00    -0.115 OA 
HETATM   15  C   UNL     1     -10.795  10.960  67.756  1.00  0.00    -0.309 A  
HETATM   16  H   UNL     1     -11.297   7.241  68.935  1.00  0.00     0.000 HD 
ENDBRANCH   6   7
ENDBRANCH   5   6
ENDBRANCH   3   5
ENDBRANCH   2   3
BRANCH   2  17
HETATM   17  C   UNL     1      -8.578  15.898  68.073  1.00  0.00    -0.164 C  
BRANCH  17  18
HETATM   18  C   UNL     1      -8.270  16.541  66.714  1.00  0.00    -0.279 C  
BRANCH  18  19
HETATM   19  C   UNL     1      -7.522  17.842  66.895  1.00  0.00    -0.230 A  
HETATM   20  C   UNL     1      -7.731  18.631  68.034  1.00  0.00    -0.282 A  
HETATM   21  C   UNL     1      -6.571  18.249  65.948  1.00  0.00    -0.306 A  
HETATM   22  C   UNL     1      -5.836  19.421  66.137  1.00  0.00    -0.179 A  
HETATM   23  H   UNL     1      -5.493  21.850  68.293  1.00  0.00     0.000 HD 
HETATM   24  C   UNL     1      -6.998  19.805  68.223  1.00  0.00    -0.333 A  
HETATM   25  C   UNL     1      -6.054  20.186  67.279  1.00  0.00    -0.180 A  
HETATM   26  O   UNL     1      -5.345  21.328  67.513  1.00  0.00    -0.250 OA 
ENDBRANCH  18  19
ENDBRANCH  17  18
ENDBRANCH   2  17
TORSDOF 7
ENDMDL
MODEL      324
REMARK 921   NORMALIZED FREE ENERGY PREDICTED BY IDOCK:   -2.35 KCAL/MOL
REMARK 922        TOTAL FREE ENERGY PREDICTED BY IDOCK:   -4.48 KCAL/MOL
REMARK 923 INTER-LIGAND FREE ENERGY PREDICTED BY IDOCK:   -4.24 KCAL/MOL
REMARK 924 INTRA-LIGAND FREE ENERGY PREDICTED BY IDOCK:   -0.24 KCAL/MOL
REMARK 927      BINDING AFFINITY PREDICTED BY RF-SCORE:    0.00 PKD
ROOT
HETATM    1  C   UNL     1      -6.393  15.288  68.288  1.00  0.00    -0.118 C  
HETATM    2  C   UNL     1      -7.698  14.530  68.019  1.00  0.00    -0.135 C  
ENDROOT
BRANCH   2   3
HETATM    3  N   UNL     1      -7.481  13.080  67.891  1.00  0.00    -0.121 NA 
HETATM    4  H   UNL     1      -6.778  12.891  67.176  1.00  0.00     0.000 HD 
BRANCH   3   5
HETATM    5  C   UNL     1      -7.132  12.388  69.141  1.00  0.00     0.007 C  
BRANCH   5   6
HETATM    6  C   UNL     1      -6.667  10.939  68.944  1.00  0.00    -0.067 C  
BRANCH   6   7
HETATM    7  C   UNL     1      -7.776  10.032  68.471  1.00  0.00    -0.089 A  
HETATM    8  C   UNL     1      -9.878   8.396  67.648  1.00  0.00    -0.173 A  
HETATM    9  C   UNL     1      -9.296   9.288  66.751  1.00  0.00    -0.156 A  
HETATM   10  O   UNL     1     -10.927   7.616  67.252  1.00  0.00    -0.529 OA 
HETATM   11  C   UNL     1      -9.415   8.294  68.950  1.00  0.00    -0.151 A  
HETATM   12  H   UNL     1     -10.522   8.776  65.210  1.00  0.00     0.000 HD 
HETATM   13  C   UNL     1      -8.243  10.106  67.151  1.00  0.00    -0.121 A  
HETATM   14  O   UNL     1      -9.804   9.334  65.482  1.00  0.00    -0.265 OA 
HETATM   15  C   UNL     1      -8.358   9.111  69.361  1.00  0.00    -0.124 A  
HETATM   16  H   UNL     1     -11.325   7.007  67.863  1.00  0.00     0.000 HD 
ENDBRANCH   6   7
ENDBRANCH   5   6
ENDBRANCH   3   5
ENDBRANCH   2   3
BRANCH   2  17
HETATM   17  C   UNL     1      -8.349  15.082  66.735  1.00  0.00    -0.189 C  
BRANCH  17  18
HETATM   18  C   UNL     1      -7.756  16.420  66.275  1.00  0.00    -0.144 C  
BRANCH  18  19
HETATM   19  C   UNL     1      -8.443  17.575  66.967  1.00  0.00    -0.252 A  
HETATM   20  C   UNL     1      -9.758  17.445  67.435  1.00  0.00    -0.269 A  
HETATM   21  C   UNL     1      -7.754  18.775  67.194  1.00  0.00    -0.241 A  
HETATM   22  C   UNL     1      -8.364  19.826  67.881  1.00  0.00    -0.342 A  
HETATM   23  H   UNL     1     -11.185  20.562  69.354  1.00  0.00     0.000 HD 
HETATM   24  C   UNL     1     -10.370  18.496  68.121  1.00  0.00    -0.391 A  
HETATM   25  C   UNL     1      -9.667  19.673  68.344  1.00  0.00    -0.403 A  
HETATM   26  O   UNL     1     -10.295  20.666  69.037  1.00  0.00     0.035 OA 
ENDBRANCH  18  19
ENDBRANCH  17  18
ENDBRANCH   2  17
TORSDOF 7
ENDMDL
MODEL      325
REMARK 921   NORMALIZED FREE ENERGY PREDICTED BY IDOCK:   -2.32 KCAL/MOL
REMARK 922        TOTAL FREE ENERGY PREDICTED BY IDOCK:   -4.44 KCAL/MOL
REMARK 923 INTER-LIGAND FREE ENERGY PREDICTED BY IDOCK:   -3.45 KCAL/MOL
REMARK 924 INTRA-LIGAND FREE ENERGY PREDICTED BY IDOCK:   -0.99 KCAL/MOL
REMARK 927      BINDING AFFINITY PREDICTED BY RF-SCORE:    0.00 PKD
ROOT
HETATM    1  C   UNL     1      -8.045   3.894  66.193  1.00  0.00    -0.101 C  
HETATM    2  C   UNL     1      -7.446   5.175  66.784  1.00  0.00    -0.087 C  
ENDROOT
BRANCH   2   3
HETATM    3  N   UNL     1      -7.364   5.124  68.253  1.00  0.00    -0.070 NA 
HETATM    4  H   UNL     1      -7.670   6.011  68.653  1.00  0.00     0.000 HD 
BRANCH   3   5
HETATM    5  C   UNL     1      -8.091   4.009  68.880  1.00  0.00    -0.070 C  
BRANCH   5   6
HETATM    6  C   UNL     1      -9.154   4.448  69.896  1.00  0.00    -0.173 C  
BRANCH   6   7
HETATM    7  C   UNL     1      -8.663   5.537  70.818  1.00  0.00    -0.135 A  
HETATM    8  C   UNL     1      -7.685   7.554  72.475  1.00  0.00    -0.094 A  
HETATM    9  C   UNL     1      -8.789   7.794  71.662  1.00  0.00    -0.118 A  
HETATM   10  O   UNL     1      -7.189   8.552  73.266  1.00  0.00    -0.276 OA 
HETATM   11  C   UNL     1      -7.068   6.313  72.487  1.00  0.00    -0.083 A  
HETATM   12  H   UNL     1      -9.008   9.725  72.267  1.00  0.00     0.000 HD 
HETATM   13  C   UNL     1      -9.288   6.793  70.834  1.00  0.00    -0.157 A  
HETATM   14  O   UNL     1      -9.348   9.042  71.702  1.00  0.00    -0.265 OA 
HETATM   15  C   UNL     1      -7.561   5.302  71.659  1.00  0.00    -0.103 A  
HETATM   16  H   UNL     1      -6.435   8.389  73.820  1.00  0.00     0.000 HD 
ENDBRANCH   6   7
ENDBRANCH   5   6
ENDBRANCH   3   5
ENDBRANCH   2   3
BRANCH   2  17
HETATM   17  C   UNL     1      -8.298   6.383  66.345  1.00  0.00    -0.119 C  
BRANCH  17  18
HETATM   18  C   UNL     1      -8.605   7.361  67.487  1.00  0.00    -0.122 C  
BRANCH  18  19
HETATM   19  C   UNL     1      -8.877   8.745  66.946  1.00  0.00    -0.142 A  
HETATM   20  C   UNL     1      -9.971   8.979  66.101  1.00  0.00    -0.311 A  
HETATM   21  C   UNL     1      -8.065   9.825  67.325  1.00  0.00    -0.117 A  
HETATM   22  C   UNL     1      -8.345  11.116  66.874  1.00  0.00    -0.147 A  
HETATM   23  H   UNL     1     -10.509  12.719  65.027  1.00  0.00     0.000 HD 
HETATM   24  C   UNL     1     -10.250  10.270  65.648  1.00  0.00    -0.301 A  
HETATM   25  C   UNL     1      -9.440  11.327  66.042  1.00  0.00    -0.216 A  
HETATM   26  O   UNL     1      -9.760  12.575  65.594  1.00  0.00    -0.240 OA 
ENDBRANCH  18  19
ENDBRANCH  17  18
ENDBRANCH   2  17
TORSDOF 7
ENDMDL
MODEL      326
REMARK 921   NORMALIZED FREE ENERGY PREDICTED BY IDOCK:   -2.19 KCAL/MOL
REMARK 922        TOTAL FREE ENERGY PREDICTED BY IDOCK:   -4.25 KCAL/MOL
REMARK 923 INTER-LIGAND FREE ENERGY PREDICTED BY IDOCK:   -4.15 KCAL/MOL
REMARK 924 INTRA-LIGAND FREE ENERGY PREDICTED BY IDOCK:   -0.10 KCAL/MOL
REMARK 927      BINDING AFFINITY PREDICTED BY RF-SCORE:    0.00 PKD
ROOT
HETATM    1  C   UNL     1      -9.286   4.274  69.557  1.00  0.00    -0.207 C  
HETATM    2  C   UNL     1      -8.876   5.139  68.360  1.00  0.00    -0.101 C  
ENDROOT
BRANCH   2   3
HETATM    3  N   UNL     1      -8.099   6.320  68.768  1.00  0.00    -0.108 NA 
HETATM    4  H   UNL     1      -7.722   6.794  67.947  1.00  0.00     0.000 HD 
BRANCH   3   5
HETATM    5  C   UNL     1      -8.821   7.280  69.618  1.00  0.00    -0.141 C  
BRANCH   5   6
HETATM    6  C   UNL     1     -10.014   7.953  68.927  1.00  0.00    -0.194 C  
BRANCH   6   7
HETATM    7  C   UNL     1     -11.109   8.331  69.894  1.00  0.00    -0.100 A  
HETATM    8  C   UNL     1     -13.076   9.020  71.745  1.00  0.00    -0.381 A  
HETATM    9  C   UNL     1     -12.600   9.971  70.847  1.00  0.00    -0.332 A  
HETATM   10  O   UNL     1     -14.020   9.366  72.670  1.00  0.00    -0.701 OA 
HETATM   11  C   UNL     1     -12.597   7.719  71.723  1.00  0.00    -0.356 A  
HETATM   12  H   UNL     1     -13.787  11.462  71.560  1.00  0.00     0.000 HD 
HETATM   13  C   UNL     1     -11.621   9.636  69.916  1.00  0.00    -0.077 A  
HETATM   14  O   UNL     1     -13.119  11.234  70.925  1.00  0.00    -0.211 OA 
HETATM   15  C   UNL     1     -11.614   7.374  70.792  1.00  0.00    -0.317 A  
HETATM   16  H   UNL     1     -14.346   8.717  73.283  1.00  0.00     0.000 HD 
ENDBRANCH   6   7
ENDBRANCH   5   6
ENDBRANCH   3   5
ENDBRANCH   2   3
BRANCH   2  17
HETATM   17  C   UNL     1     -10.141   5.579  67.595  1.00  0.00    -0.217 C  
BRANCH  17  18
HETATM   18  C   UNL     1     -10.355   4.819  66.280  1.00  0.00    -0.329 C  
BRANCH  18  19
HETATM   19  C   UNL     1      -9.148   4.955  65.381  1.00  0.00    -0.155 A  
HETATM   20  C   UNL     1      -8.667   6.221  65.021  1.00  0.00     0.090 A  
HETATM   21  C   UNL     1      -8.464   3.813  64.938  1.00  0.00    -0.104 A  
HETATM   22  C   UNL     1      -7.315   3.934  64.154  1.00  0.00    -0.059 A  
HETATM   23  H   UNL     1      -5.403   6.229  62.834  1.00  0.00     0.000 HD 
HETATM   24  C   UNL     1      -7.519   6.342  64.235  1.00  0.00    -0.091 A  
HETATM   25  C   UNL     1      -6.850   5.200  63.814  1.00  0.00    -0.046 A  
HETATM   26  O   UNL     1      -5.721   5.364  63.066  1.00  0.00    -0.014 OA 
ENDBRANCH  18  19
ENDBRANCH  17  18
ENDBRANCH   2  17
TORSDOF 7
ENDMDL
MODEL      327
REMARK 921   NORMALIZED FREE ENERGY PREDICTED BY IDOCK:   -2.03 KCAL/MOL
REMARK 922        TOTAL FREE ENERGY PREDICTED BY IDOCK:   -4.02 KCAL/MOL
REMARK 923 INTER-LIGAND FREE ENERGY PREDICTED BY IDOCK:   -3.84 KCAL/MOL
REMARK 924 INTRA-LIGAND FREE ENERGY PREDICTED BY IDOCK:   -0.18 KCAL/MOL
REMARK 927      BINDING AFFINITY PREDICTED BY RF-SCORE:    0.00 PKD
ROOT
HETATM    1  C   UNL     1      -6.718   9.157  63.863  1.00  0.00    -0.089 C  
HETATM    2  C   UNL     1      -7.115   8.733  65.282  1.00  0.00    -0.083 C  
ENDROOT
BRANCH   2   3
HETATM    3  N   UNL     1      -7.470   7.306  65.357  1.00  0.00    -0.082 NA 
HETATM    4  H   UNL     1      -8.031   7.041  64.547  1.00  0.00     0.000 HD 
BRANCH   3   5
HETATM    5  C   UNL     1      -6.332   6.387  65.508  1.00  0.00    -0.038 C  
BRANCH   5   6
HETATM    6  C   UNL     1      -5.593   6.522  66.847  1.00  0.00    -0.013 C  
BRANCH   6   7
HETATM    7  C   UNL     1      -6.452   6.138  68.026  1.00  0.00    -0.049 A  
HETATM    8  C   UNL     1      -8.015   5.499  70.245  1.00  0.00    -0.101 A  
HETATM    9  C   UNL     1      -8.622   5.820  69.033  1.00  0.00    -0.106 A  
HETATM   10  O   UNL     1      -8.782   5.214  71.338  1.00  0.00    -0.125 OA 
HETATM   11  C   UNL     1      -6.634   5.475  70.363  1.00  0.00    -0.043 A  
HETATM   12  H   UNL     1     -10.515   5.607  69.750  1.00  0.00     0.000 HD 
HETATM   13  C   UNL     1      -7.851   6.136  67.919  1.00  0.00    -0.106 A  
HETATM   14  O   UNL     1      -9.989   5.822  68.989  1.00  0.00    -0.146 OA 
HETATM   15  C   UNL     1      -5.852   5.791  69.250  1.00  0.00    -0.016 A  
HETATM   16  H   UNL     1      -8.369   4.995  72.166  1.00  0.00     0.000 HD 
ENDBRANCH   6   7
ENDBRANCH   5   6
ENDBRANCH   3   5
ENDBRANCH   2   3
BRANCH   2  17
HETATM   17  C   UNL     1      -8.301   9.597  65.756  1.00  0.00    -0.132 C  
BRANCH  17  18
HETATM   18  C   UNL     1      -8.187  11.070  65.344  1.00  0.00     0.064 C  
BRANCH  18  19
HETATM   19  C   UNL     1      -9.550  11.722  65.308  1.00  0.00    -0.189 A  
HETATM   20  C   UNL     1      -9.939  12.616  66.314  1.00  0.00    -0.266 A  
HETATM   21  C   UNL     1     -10.422  11.479  64.237  1.00  0.00    -0.393 A  
HETATM   22  C   UNL     1     -11.659  12.121  64.168  1.00  0.00    -0.467 A  
HETATM   23  H   UNL     1     -13.463  14.283  65.823  1.00  0.00     0.000 HD 
HETATM   24  C   UNL     1     -11.177  13.258  66.248  1.00  0.00    -0.321 A  
HETATM   25  C   UNL     1     -12.023  13.011  65.174  1.00  0.00    -0.402 A  
HETATM   26  O   UNL     1     -13.214  13.675  65.136  1.00  0.00    -0.739 OA 
ENDBRANCH  18  19
ENDBRANCH  17  18
ENDBRANCH   2  17
TORSDOF 7
ENDMDL
MODEL      328
REMARK 921   NORMALIZED FREE ENERGY PREDICTED BY IDOCK:   -1.60 KCAL/MOL
REMARK 922        TOTAL FREE ENERGY PREDICTED BY IDOCK:   -3.41 KCAL/MOL
REMARK 923 INTER-LIGAND FREE ENERGY PREDICTED BY IDOCK:   -3.60 KCAL/MOL
REMARK 924 INTRA-LIGAND FREE ENERGY PREDICTED BY IDOCK:    0.18 KCAL/MOL
REMARK 927      BINDING AFFINITY PREDICTED BY RF-SCORE:    0.00 PKD
ROOT
HETATM    1  C   UNL     1      -9.074   4.120  69.237  1.00  0.00    -0.188 C  
HETATM    2  C   UNL     1      -8.469   5.008  68.144  1.00  0.00    -0.099 C  
ENDROOT
BRANCH   2   3
HETATM    3  N   UNL     1      -7.262   5.713  68.605  1.00  0.00    -0.076 NA 
HETATM    4  H   UNL     1      -6.748   6.088  67.808  1.00  0.00     0.000 HD 
BRANCH   3   5
HETATM    5  C   UNL     1      -7.498   6.770  69.600  1.00  0.00    -0.096 C  
BRANCH   5   6
HETATM    6  C   UNL     1      -8.398   7.908  69.100  1.00  0.00    -0.133 C  
BRANCH   6   7
HETATM    7  C   UNL     1      -9.522   8.223  70.057  1.00  0.00    -0.167 A  
HETATM    8  C   UNL     1     -11.648   8.821  71.758  1.00  0.00    -0.346 A  
HETATM    9  C   UNL     1     -11.168   7.517  71.674  1.00  0.00    -0.243 A  
HETATM   10  O   UNL     1     -12.708   9.108  72.571  1.00  0.00    -0.367 OA 
HETATM   11  C   UNL     1     -11.070   9.840  71.017  1.00  0.00    -0.431 A  
HETATM   12  H   UNL     1     -12.511   6.773  73.010  1.00  0.00     0.000 HD 
HETATM   13  C   UNL     1     -10.104   7.209  70.831  1.00  0.00    -0.200 A  
HETATM   14  O   UNL     1     -11.785   6.563  72.435  1.00  0.00    -0.281 OA 
HETATM   15  C   UNL     1     -10.002   9.540  70.168  1.00  0.00    -0.285 A  
HETATM   16  H   UNL     1     -13.036   9.997  72.629  1.00  0.00     0.000 HD 
ENDBRANCH   6   7
ENDBRANCH   5   6
ENDBRANCH   3   5
ENDBRANCH   2   3
BRANCH   2  17
HETATM   17  C   UNL     1      -9.527   6.026  67.674  1.00  0.00    -0.112 C  
BRANCH  17  18
HETATM   18  C   UNL     1      -9.806   5.966  66.167  1.00  0.00    -0.058 C  
BRANCH  18  19
HETATM   19  C   UNL     1      -8.594   6.410  65.380  1.00  0.00    -0.088 A  
HETATM   20  C   UNL     1      -8.116   7.723  65.489  1.00  0.00    -0.128 A  
HETATM   21  C   UNL     1      -7.903   5.497  64.570  1.00  0.00    -0.109 A  
HETATM   22  C   UNL     1      -6.751   5.886  63.885  1.00  0.00    -0.037 A  
HETATM   23  H   UNL     1      -4.840   8.501  63.465  1.00  0.00     0.000 HD 
HETATM   24  C   UNL     1      -6.964   8.113  64.803  1.00  0.00    -0.074 A  
HETATM   25  C   UNL     1      -6.288   7.192  64.013  1.00  0.00    -0.044 A  
HETATM   26  O   UNL     1      -5.156   7.609  63.377  1.00  0.00    -0.036 OA 
ENDBRANCH  18  19
ENDBRANCH  17  18
ENDBRANCH   2  17
TORSDOF 7
ENDMDL
MODEL      329
REMARK 921   NORMALIZED FREE ENERGY PREDICTED BY IDOCK:   -1.25 KCAL/MOL
REMARK 922        TOTAL FREE ENERGY PREDICTED BY IDOCK:   -2.92 KCAL/MOL
REMARK 923 INTER-LIGAND FREE ENERGY PREDICTED BY IDOCK:   -3.47 KCAL/MOL
REMARK 924 INTRA-LIGAND FREE ENERGY PREDICTED BY IDOCK:    0.55 KCAL/MOL
REMARK 927      BINDING AFFINITY PREDICTED BY RF-SCORE:    0.00 PKD
ROOT
HETATM    1  C   UNL     1      -7.872   8.533  67.847  1.00  0.00    -0.103 C  
HETATM    2  C   UNL     1      -8.439   7.526  66.840  1.00  0.00    -0.122 C  
ENDROOT
BRANCH   2   3
HETATM    3  N   UNL     1      -9.573   6.767  67.391  1.00  0.00    -0.131 NA 
HETATM    4  H   UNL     1     -10.118   6.351  66.636  1.00  0.00     0.000 HD 
BRANCH   3   5
HETATM    5  C   UNL     1      -9.213   5.740  68.382  1.00  0.00    -0.117 C  
BRANCH   5   6
HETATM    6  C   UNL     1     -10.350   5.377  69.347  1.00  0.00    -0.339 C  
BRANCH   6   7
HETATM    7  C   UNL     1     -10.882   6.575  70.095  1.00  0.00    -0.336 A  
HETATM    8  C   UNL     1     -11.801   8.780  71.532  1.00  0.00    -0.311 A  
HETATM    9  C   UNL     1     -11.287   8.949  70.249  1.00  0.00    -0.159 A  
HETATM   10  O   UNL     1     -12.226   9.864  72.246  1.00  0.00    -0.133 OA 
HETATM   11  C   UNL     1     -11.881   7.520  72.105  1.00  0.00    -0.338 A  
HETATM   12  H   UNL     1     -11.553  10.966  70.243  1.00  0.00     0.000 HD 
HETATM   13  C   UNL     1     -10.830   7.854  69.521  1.00  0.00    -0.141 A  
HETATM   14  O   UNL     1     -11.241  10.220  69.746  1.00  0.00    -0.248 OA 
HETATM   15  C   UNL     1     -11.423   6.416  71.382  1.00  0.00    -0.363 A  
HETATM   16  H   UNL     1     -12.576   9.750  73.122  1.00  0.00     0.000 HD 
ENDBRANCH   6   7
ENDBRANCH   5   6
ENDBRANCH   3   5
ENDBRANCH   2   3
BRANCH   2  17
HETATM   17  C   UNL     1      -7.320   6.560  66.403  1.00  0.00    -0.074 C  
BRANCH  17  18
HETATM   18  C   UNL     1      -6.336   7.177  65.401  1.00  0.00    -0.037 C  
BRANCH  18  19
HETATM   19  C   UNL     1      -7.019   8.233  64.563  1.00  0.00    -0.073 A  
HETATM   20  C   UNL     1      -8.215   7.947  63.891  1.00  0.00    -0.020 A  
HETATM   21  C   UNL     1      -6.489   9.530  64.489  1.00  0.00    -0.093 A  
HETATM   22  C   UNL     1      -7.145  10.525  63.762  1.00  0.00     0.111 A  
HETATM   23  H   UNL     1      -9.833  10.961  61.959  1.00  0.00     0.000 HD 
HETATM   24  C   UNL     1      -8.871   8.941  63.162  1.00  0.00     0.040 A  
HETATM   25  C   UNL     1      -8.336  10.222  63.110  1.00  0.00    -0.167 A  
HETATM   26  O   UNL     1      -9.019  11.168  62.404  1.00  0.00    -0.319 OA 
ENDBRANCH  18  19
ENDBRANCH  17  18
ENDBRANCH   2  17
TORSDOF 7
ENDMDL
MODEL      330
REMARK 921   NORMALIZED FREE ENERGY PREDICTED BY IDOCK:   -1.21 KCAL/MOL
REMARK 922        TOTAL FREE ENERGY PREDICTED BY IDOCK:   -2.86 KCAL/MOL
REMARK 923 INTER-LIGAND FREE ENERGY PREDICTED BY IDOCK:   -3.37 KCAL/MOL
REMARK 924 INTRA-LIGAND FREE ENERGY PREDICTED BY IDOCK:    0.51 KCAL/MOL
REMARK 927      BINDING AFFINITY PREDICTED BY RF-SCORE:    0.00 PKD
ROOT
HETATM    1  C   UNL     1      -9.892   4.422  69.478  1.00  0.00    -0.258 C  
HETATM    2  C   UNL     1      -9.445   5.485  68.468  1.00  0.00    -0.122 C  
ENDROOT
BRANCH   2   3
HETATM    3  N   UNL     1      -8.212   6.169  68.891  1.00  0.00    -0.111 NA 
HETATM    4  H   UNL     1      -8.037   5.998  69.881  1.00  0.00     0.000 HD 
BRANCH   3   5
HETATM    5  C   UNL     1      -7.015   5.842  68.101  1.00  0.00    -0.069 C  
BRANCH   5   6
HETATM    6  C   UNL     1      -6.755   4.337  67.953  1.00  0.00    -0.051 C  
BRANCH   6   7
HETATM    7  C   UNL     1      -7.043   3.831  66.561  1.00  0.00    -0.063 A  
HETATM    8  C   UNL     1      -7.593   2.820  64.022  1.00  0.00    -0.068 A  
HETATM    9  C   UNL     1      -8.437   3.769  64.592  1.00  0.00    -0.097 A  
HETATM   10  O   UNL     1      -7.878   2.304  62.790  1.00  0.00    -0.056 OA 
HETATM   11  C   UNL     1      -6.464   2.378  64.694  1.00  0.00    -0.023 A  
HETATM   12  H   UNL     1      -9.713   3.808  63.008  1.00  0.00     0.000 HD 
HETATM   13  C   UNL     1      -8.169   4.283  65.857  1.00  0.00    -0.109 A  
HETATM   14  O   UNL     1      -9.531   4.160  63.871  1.00  0.00    -0.153 OA 
HETATM   15  C   UNL     1      -6.187   2.888  65.965  1.00  0.00    -0.024 A  
HETATM   16  H   UNL     1      -7.302   1.656  62.400  1.00  0.00     0.000 HD 
ENDBRANCH   6   7
ENDBRANCH   5   6
ENDBRANCH   3   5
ENDBRANCH   2   3
BRANCH   2  17
HETATM   17  C   UNL     1     -10.579   6.513  68.278  1.00  0.00    -0.302 C  
BRANCH  17  18
HETATM   18  C   UNL     1     -10.525   7.674  69.280  1.00  0.00    -0.220 C  
BRANCH  18  19
HETATM   19  C   UNL     1     -10.632   7.163  70.698  1.00  0.00    -0.243 A  
HETATM   20  C   UNL     1     -11.770   6.461  71.119  1.00  0.00    -0.359 A  
HETATM   21  C   UNL     1      -9.569   7.341  71.595  1.00  0.00    -0.162 A  
HETATM   22  C   UNL     1      -9.638   6.822  72.890  1.00  0.00    -0.167 A  
HETATM   23  H   UNL     1     -11.650   5.103  74.803  1.00  0.00     0.000 HD 
HETATM   24  C   UNL     1     -11.841   5.944  72.414  1.00  0.00    -0.263 A  
HETATM   25  C   UNL     1     -10.774   6.122  73.285  1.00  0.00    -0.260 A  
HETATM   26  O   UNL     1     -10.875   5.582  74.534  1.00  0.00    -0.188 OA 
ENDBRANCH  18  19
ENDBRANCH  17  18
ENDBRANCH   2  17
TORSDOF 7
ENDMDL
MODEL      331
REMARK 921   NORMALIZED FREE ENERGY PREDICTED BY IDOCK:   -0.61 KCAL/MOL
REMARK 922        TOTAL FREE ENERGY PREDICTED BY IDOCK:   -2.02 KCAL/MOL
REMARK 923 INTER-LIGAND FREE ENERGY PREDICTED BY IDOCK:   -1.78 KCAL/MOL
REMARK 924 INTRA-LIGAND FREE ENERGY PREDICTED BY IDOCK:   -0.24 KCAL/MOL
REMARK 927      BINDING AFFINITY PREDICTED BY RF-SCORE:    0.00 PKD
ROOT
HETATM    1  C   UNL     1      -9.081   4.097  69.239  1.00  0.00    -0.188 C  
HETATM    2  C   UNL     1      -8.657   5.200  68.262  1.00  0.00    -0.098 C  
ENDROOT
BRANCH   2   3
HETATM    3  N   UNL     1      -7.426   5.880  68.693  1.00  0.00    -0.084 NA 
HETATM    4  H   UNL     1      -7.228   5.664  69.670  1.00  0.00     0.000 HD 
BRANCH   3   5
HETATM    5  C   UNL     1      -6.240   5.608  67.865  1.00  0.00    -0.037 C  
BRANCH   5   6
HETATM    6  C   UNL     1      -5.953   4.116  67.655  1.00  0.00    -0.027 C  
BRANCH   6   7
HETATM    7  C   UNL     1      -6.190   3.674  66.232  1.00  0.00    -0.032 A  
HETATM    8  C   UNL     1      -6.645   2.779  63.630  1.00  0.00    -0.031 A  
HETATM    9  C   UNL     1      -7.522   3.686  64.219  1.00  0.00    -0.071 A  
HETATM   10  O   UNL     1      -6.884   2.320  62.367  1.00  0.00    -0.024 OA 
HETATM   11  C   UNL     1      -5.530   2.322  64.316  1.00  0.00    -0.009 A  
HETATM   12  H   UNL     1      -8.750   3.784  62.599  1.00  0.00     0.000 HD 
HETATM   13  C   UNL     1      -7.302   4.143  65.515  1.00  0.00    -0.076 A  
HETATM   14  O   UNL     1      -8.600   4.095  63.484  1.00  0.00    -0.095 OA 
HETATM   15  C   UNL     1      -5.301   2.774  65.618  1.00  0.00    -0.009 A  
HETATM   16  H   UNL     1      -6.286   1.700  61.964  1.00  0.00     0.000 HD 
ENDBRANCH   6   7
ENDBRANCH   5   6
ENDBRANCH   3   5
ENDBRANCH   2   3
BRANCH   2  17
HETATM   17  C   UNL     1      -9.803   6.222  68.123  1.00  0.00    -0.133 C  
BRANCH  17  18
HETATM   18  C   UNL     1     -10.105   6.607  66.670  1.00  0.00    -0.202 C  
BRANCH  18  19
HETATM   19  C   UNL     1      -8.947   7.368  66.066  1.00  0.00    -0.156 A  
HETATM   20  C   UNL     1      -8.532   8.588  66.618  1.00  0.00    -0.116 A  
HETATM   21  C   UNL     1      -8.242   6.836  64.977  1.00  0.00    -0.096 A  
HETATM   22  C   UNL     1      -7.136   7.506  64.451  1.00  0.00    -0.069 A  
HETATM   23  H   UNL     1      -5.376  10.214  64.935  1.00  0.00     0.000 HD 
HETATM   24  C   UNL     1      -7.427   9.260  66.091  1.00  0.00    -0.096 A  
HETATM   25  C   UNL     1      -6.735   8.712  65.018  1.00  0.00    -0.068 A  
HETATM   26  O   UNL     1      -5.649   9.391  64.548  1.00  0.00    -0.064 OA 
ENDBRANCH  18  19
ENDBRANCH  17  18
ENDBRANCH   2  17
TORSDOF 7
ENDMDL
MODEL      332
REMARK 921   NORMALIZED FREE ENERGY PREDICTED BY IDOCK:   -0.26 KCAL/MOL
REMARK 922        TOTAL FREE ENERGY PREDICTED BY IDOCK:   -1.53 KCAL/MOL
REMARK 923 INTER-LIGAND FREE ENERGY PREDICTED BY IDOCK:   -3.24 KCAL/MOL
REMARK 924 INTRA-LIGAND FREE ENERGY PREDICTED BY IDOCK:    1.70 KCAL/MOL
REMARK 927      BINDING AFFINITY PREDICTED BY RF-SCORE:    0.00 PKD
ROOT
HETATM    1  C   UNL     1      -9.864  13.437  68.577  1.00  0.00    -0.178 C  
HETATM    2  C   UNL     1      -8.521  13.736  67.902  1.00  0.00    -0.176 C  
ENDROOT
BRANCH   2   3
HETATM    3  N   UNL     1      -8.448  13.184  66.539  1.00  0.00    -0.406 NA 
HETATM    4  H   UNL     1      -8.182  13.914  65.879  1.00  0.00     0.000 HD 
BRANCH   3   5
HETATM    5  C   UNL     1      -7.569  12.015  66.385  1.00  0.00     0.329 C  
BRANCH   5   6
HETATM    6  C   UNL     1      -8.289  10.752  65.894  1.00  0.00    -0.162 C  
BRANCH   6   7
HETATM    7  C   UNL     1      -8.147   9.593  66.850  1.00  0.00    -0.113 A  
HETATM    8  C   UNL     1      -7.866   7.402  68.551  1.00  0.00    -0.122 A  
HETATM    9  C   UNL     1      -6.955   8.453  68.611  1.00  0.00    -0.068 A  
HETATM   10  O   UNL     1      -7.712   6.317  69.365  1.00  0.00    -0.096 OA 
HETATM   11  C   UNL     1      -8.931   7.435  67.663  1.00  0.00    -0.126 A  
HETATM   12  H   UNL     1      -5.840   7.603  70.086  1.00  0.00     0.000 HD 
HETATM   13  C   UNL     1      -7.089   9.554  67.770  1.00  0.00    -0.081 A  
HETATM   14  O   UNL     1      -5.931   8.354  69.512  1.00  0.00    -0.032 OA 
HETATM   15  C   UNL     1      -9.073   8.536  66.814  1.00  0.00    -0.186 A  
HETATM   16  H   UNL     1      -8.333   5.599  69.324  1.00  0.00     0.000 HD 
ENDBRANCH   6   7
ENDBRANCH   5   6
ENDBRANCH   3   5
ENDBRANCH   2   3
BRANCH   2  17
HETATM   17  C   UNL     1      -7.381  13.160  68.765  1.00  0.00    -0.068 C  
BRANCH  17  18
HETATM   18  C   UNL     1      -6.571  14.234  69.504  1.00  0.00    -0.134 C  
BRANCH  18  19
HETATM   19  C   UNL     1      -7.015  15.618  69.089  1.00  0.00    -0.166 A  
HETATM   20  C   UNL     1      -8.350  15.864  68.741  1.00  0.00    -0.206 A  
HETATM   21  C   UNL     1      -6.104  16.684  69.097  1.00  0.00    -0.170 A  
HETATM   22  C   UNL     1      -6.521  17.976  68.769  1.00  0.00    -0.228 A  
HETATM   23  H   UNL     1      -9.216  19.602  67.897  1.00  0.00     0.000 HD 
HETATM   24  C   UNL     1      -8.767  17.155  68.410  1.00  0.00    -0.246 A  
HETATM   25  C   UNL     1      -7.852  18.200  68.434  1.00  0.00    -0.297 A  
HETATM   26  O   UNL     1      -8.306  19.449  68.125  1.00  0.00    -0.307 OA 
ENDBRANCH  18  19
ENDBRANCH  17  18
ENDBRANCH   2  17
TORSDOF 7
ENDMDL
MODEL      333
REMARK 921   NORMALIZED FREE ENERGY PREDICTED BY IDOCK:    0.63 KCAL/MOL
REMARK 922        TOTAL FREE ENERGY PREDICTED BY IDOCK:   -0.28 KCAL/MOL
REMARK 923 INTER-LIGAND FREE ENERGY PREDICTED BY IDOCK:   -0.05 KCAL/MOL
REMARK 924 INTRA-LIGAND FREE ENERGY PREDICTED BY IDOCK:   -0.23 KCAL/MOL
REMARK 927      BINDING AFFINITY PREDICTED BY RF-SCORE:    0.00 PKD
ROOT
HETATM    1  C   UNL     1      -6.941  15.599  68.129  1.00  0.00    -0.127 C  
HETATM    2  C   UNL     1      -7.667  15.019  69.349  1.00  0.00    -0.190 C  
ENDROOT
BRANCH   2   3
HETATM    3  N   UNL     1      -7.352  13.597  69.559  1.00  0.00    -0.310 NA 
HETATM    4  H   UNL     1      -7.488  13.075  68.693  1.00  0.00     0.000 HD 
BRANCH   3   5
HETATM    5  C   UNL     1      -6.013  13.328  70.106  1.00  0.00    -0.139 C  
BRANCH   5   6
HETATM    6  C   UNL     1      -5.441  11.959  69.715  1.00  0.00    -0.087 C  
BRANCH   6   7
HETATM    7  C   UNL     1      -6.270  10.812  70.238  1.00  0.00    -0.146 A  
HETATM    8  C   UNL     1      -7.768   8.704  71.280  1.00  0.00    -0.118 A  
HETATM    9  C   UNL     1      -8.403   9.868  70.855  1.00  0.00     0.755 A  
HETATM   10  O   UNL     1      -8.501   7.683  71.815  1.00  0.00    -0.105 OA 
HETATM   11  C   UNL     1      -6.393   8.567  71.176  1.00  0.00    -0.043 A  
HETATM   12  H   UNL     1     -10.267   9.213  71.345  1.00  0.00     0.000 HD 
HETATM   13  C   UNL     1      -7.665  10.925  70.329  1.00  0.00     1.074 A  
HETATM   14  O   UNL     1      -9.763   9.934  70.986  1.00  0.00     0.028 OA 
HETATM   15  C   UNL     1      -5.644   9.623  70.650  1.00  0.00    -0.053 A  
HETATM   16  H   UNL     1      -8.068   6.889  72.106  1.00  0.00     0.000 HD 
ENDBRANCH   6   7
ENDBRANCH   5   6
ENDBRANCH   3   5
ENDBRANCH   2   3
BRANCH   2  17
HETATM   17  C   UNL     1      -9.187  15.201  69.168  1.00  0.00    -0.215 C  
BRANCH  17  18
HETATM   18  C   UNL     1      -9.871  14.002  68.499  1.00  0.00    -0.225 C  
BRANCH  18  19
HETATM   19  C   UNL     1     -10.317  14.353  67.099  1.00  0.00    -0.262 A  
HETATM   20  C   UNL     1     -11.047  15.525  66.856  1.00  0.00    -0.221 A  
HETATM   21  C   UNL     1      -9.960  13.535  66.017  1.00  0.00    -0.308 A  
HETATM   22  C   UNL     1     -10.320  13.883  64.714  1.00  0.00    -0.419 A  
HETATM   23  H   UNL     1     -11.884  16.243  63.085  1.00  0.00     0.000 HD 
HETATM   24  C   UNL     1     -11.409  15.873  65.553  1.00  0.00     0.079 A  
HETATM   25  C   UNL     1     -11.038  15.054  64.494  1.00  0.00    -0.234 A  
HETATM   26  O   UNL     1     -11.394  15.442  63.235  1.00  0.00     1.212 OA 
ENDBRANCH  18  19
ENDBRANCH  17  18
ENDBRANCH   2  17
TORSDOF 7
ENDMDL
