MODEL        1
REMARK 921   NORMALIZED FREE ENERGY PREDICTED BY IDOCK:   -7.34 KCAL/MOL
REMARK 922        TOTAL FREE ENERGY PREDICTED BY IDOCK:  -15.15 KCAL/MOL
REMARK 923 INTER-LIGAND FREE ENERGY PREDICTED BY IDOCK:  -12.48 KCAL/MOL
REMARK 924 INTRA-LIGAND FREE ENERGY PREDICTED BY IDOCK:   -2.67 KCAL/MOL
REMARK 927      BINDING AFFINITY PREDICTED BY RF-SCORE:    0.00 PKD
ROOT
HETATM    1  C   UNL     1      -7.640   6.122  69.456  1.00  0.00    -0.094 C  
HETATM    2  C   UNL     1      -8.449   5.247  68.494  1.00  0.00    -0.092 C  
HETATM    3  C   UNL     1      -8.242   5.871  67.088  1.00  0.00    -0.105 C  
HETATM    4  O   UNL     1      -6.847   5.795  66.760  1.00  0.00    -0.060 OA 
HETATM    5  C   UNL     1      -8.836   7.295  67.102  1.00  0.00    -0.125 C  
HETATM    6  H   UNL     1      -6.720   6.177  65.900  1.00  0.00     0.000 HD 
HETATM    7  C   UNL     1      -8.396   8.041  65.719  1.00  0.00    -0.138 C  
HETATM    8  C   UNL     1     -10.357   7.136  66.754  1.00  0.00    -0.297 C  
HETATM    9  C   UNL     1      -8.914   9.466  65.298  1.00  0.00    -0.204 C  
HETATM   10  O   UNL     1      -7.750   7.432  64.850  1.00  0.00    -0.098 OA 
HETATM   11  O   UNL     1      -8.104  10.019  64.249  1.00  0.00    -0.145 OA 
HETATM   12  C   UNL     1      -8.903  10.507  66.359  1.00  0.00    -0.165 C  
HETATM   13  C   UNL     1      -9.873  11.399  66.677  1.00  0.00    -0.233 C  
HETATM   14  H   UNL     1      -8.417  10.880  63.995  1.00  0.00     0.000 HD 
HETATM   15  C   UNL     1      -9.686  12.557  67.933  1.00  0.00    -0.205 C  
HETATM   16  C   UNL     1     -11.275  11.235  66.092  1.00  0.00    -0.133 C  
HETATM   17  C   UNL     1      -9.993  11.432  68.865  1.00  0.00    -0.146 C  
HETATM   18  C   UNL     1      -7.836   7.589  70.015  1.00  0.00    -0.099 C  
HETATM   19  C   UNL     1      -6.462   6.967  70.736  1.00  0.00    -0.048 C  
HETATM   20  C   UNL     1      -8.819  10.321  68.853  1.00  0.00    -0.157 C  
HETATM   21  O   UNL     1      -7.133   5.632  70.698  1.00  0.00    -0.062 OA 
HETATM   22  C   UNL     1      -9.749   8.695  69.044  1.00  0.00    -0.173 C  
HETATM   23  C   UNL     1      -6.484   9.635  67.069  1.00  0.00    -0.066 C  
HETATM   24  C   UNL     1      -7.779  10.543  67.324  1.00  0.00    -0.106 C  
HETATM   25  O   UNL     1      -7.860  10.568  69.896  1.00  0.00    -0.342 OA 
HETATM   26  C   UNL     1      -8.540   7.995  68.589  1.00  0.00    -0.128 C  
HETATM   27  H   UNL     1      -7.170   9.914  69.888  1.00  0.00     0.000 HD 
HETATM   28  C   UNL     1      -6.970  11.853  66.896  1.00  0.00    -0.072 C  
ENDROOT
BRANCH  15  29
HETATM   29  O   UNL     1      -8.362  12.937  68.588  1.00  0.00    -0.091 OA 
BRANCH  29  30
HETATM   30  C   UNL     1      -7.962  14.241  68.781  1.00  0.00    -0.119 C  
HETATM   31  O   UNL     1      -7.368  14.605  69.789  1.00  0.00    -0.122 OA 
BRANCH  30  32
HETATM   32  C   UNL     1      -8.422  15.206  67.583  1.00  0.00    -0.160 C  
HETATM   33  O   UNL     1      -7.427  16.129  67.124  1.00  0.00    -0.169 OA 
HETATM   34  H   UNL     1      -7.699  16.700  66.415  1.00  0.00     0.000 HD 
BRANCH  32  35
HETATM   35  C   UNL     1      -9.741  15.980  67.959  1.00  0.00    -0.217 C  
BRANCH  35  36
HETATM   36  N   UNL     1     -10.135  15.624  69.348  1.00  0.00    -0.250 N  
HETATM   37  C   UNL     1     -11.422  15.311  69.570  1.00  0.00    -0.305 C  
HETATM   38  O   UNL     1     -12.324  15.479  68.835  1.00  0.00    -0.156 OA 
HETATM   39  H   UNL     1      -9.452  15.617  70.105  1.00  0.00     0.000 HD 
BRANCH  37  40
HETATM   40  O   UNL     1     -11.520  14.669  70.810  1.00  0.00    -0.259 OA 
HETATM   41  C   UNL     1     -12.336  15.302  71.808  1.00  0.00    -0.358 C  
HETATM   42  C   UNL     1     -13.793  15.423  71.323  1.00  0.00    -0.523 C  
HETATM   43  C   UNL     1     -11.748  16.655  72.236  1.00  0.00    -0.186 C  
HETATM   44  C   UNL     1     -12.314  14.354  73.018  1.00  0.00    -0.194 C  
ENDBRANCH  37  40
ENDBRANCH  35  36
BRANCH  35  45
HETATM   45  C   UNL     1      -9.878  17.499  67.760  1.00  0.00    -0.286 A  
HETATM   46  C   UNL     1      -9.809  18.469  68.769  1.00  0.00    -0.411 A  
HETATM   47  C   UNL     1     -10.249  20.273  67.178  1.00  0.00    -0.500 A  
HETATM   48  C   UNL     1     -10.150  17.974  66.450  1.00  0.00    -0.384 A  
HETATM   49  C   UNL     1      -9.986  19.841  68.478  1.00  0.00    -0.538 A  
HETATM   50  C   UNL     1     -10.335  19.334  66.161  1.00  0.00    -0.578 A  
ENDBRANCH  35  45
ENDBRANCH  32  35
ENDBRANCH  30  32
ENDBRANCH  29  30
ENDBRANCH  15  29
BRANCH  22  51
HETATM   51  O   UNL     1     -10.109   7.371  70.184  1.00  0.00    -0.194 OA 
BRANCH  51  52
HETATM   52  C   UNL     1     -11.121   6.544  70.778  1.00  0.00    -0.300 C  
HETATM   53  O   UNL     1     -12.300   6.863  70.649  1.00  0.00    -0.348 OA 
BRANCH  52  54
HETATM   54  C   UNL     1     -10.895   5.241  71.832  1.00  0.00    -0.218 A  
HETATM   55  C   UNL     1     -10.944   3.862  73.950  1.00  0.00    -0.285 A  
HETATM   56  C   UNL     1      -9.796   2.943  72.090  1.00  0.00    -0.239 A  
HETATM   57  C   UNL     1     -10.154   4.117  71.343  1.00  0.00    -0.168 A  
HETATM   58  C   UNL     1     -11.282   5.031  73.178  1.00  0.00    -0.408 A  
HETATM   59  C   UNL     1     -10.198   2.798  73.423  1.00  0.00    -0.204 A  
ENDBRANCH  52  54
ENDBRANCH  51  52
ENDBRANCH  22  51
BRANCH  18  60
HETATM   60  O   UNL     1      -8.404   8.226  71.396  1.00  0.00    -0.110 OA 
BRANCH  60  61
HETATM   61  C   UNL     1      -7.935   8.234  72.736  1.00  0.00    -0.137 C  
HETATM   62  C   UNL     1      -8.625   7.345  73.729  1.00  0.00    -0.227 C  
HETATM   63  O   UNL     1      -7.073   8.936  73.275  1.00  0.00    -0.348 OA 
ENDBRANCH  60  61
ENDBRANCH  18  60
TORSDOF 12
ENDMDL
MODEL        2
REMARK 921   NORMALIZED FREE ENERGY PREDICTED BY IDOCK:   -6.71 KCAL/MOL
REMARK 922        TOTAL FREE ENERGY PREDICTED BY IDOCK:  -14.09 KCAL/MOL
REMARK 923 INTER-LIGAND FREE ENERGY PREDICTED BY IDOCK:  -11.66 KCAL/MOL
REMARK 924 INTRA-LIGAND FREE ENERGY PREDICTED BY IDOCK:   -2.43 KCAL/MOL
REMARK 927      BINDING AFFINITY PREDICTED BY RF-SCORE:    0.00 PKD
ROOT
HETATM    1  C   UNL     1      -7.183   5.758  69.116  1.00  0.00    -0.074 C  
HETATM    2  C   UNL     1      -7.755   4.731  68.135  1.00  0.00    -0.082 C  
HETATM    3  C   UNL     1      -7.257   5.173  66.733  1.00  0.00    -0.077 C  
HETATM    4  O   UNL     1      -5.823   5.112  66.722  1.00  0.00    -0.020 OA 
HETATM    5  C   UNL     1      -7.857   6.561  66.424  1.00  0.00    -0.104 C  
HETATM    6  H   UNL     1      -5.518   5.382  65.864  1.00  0.00     0.000 HD 
HETATM    7  C   UNL     1      -7.138   7.135  65.077  1.00  0.00    -0.064 C  
HETATM    8  C   UNL     1      -9.265   6.294  65.787  1.00  0.00     0.013 C  
HETATM    9  C   UNL     1      -7.570   8.469  64.364  1.00  0.00    -0.117 C  
HETATM   10  O   UNL     1      -6.313   6.444  64.457  1.00  0.00    -0.029 OA 
HETATM   11  O   UNL     1      -6.560   8.913  63.445  1.00  0.00    -0.089 OA 
HETATM   12  C   UNL     1      -7.801   9.641  65.250  1.00  0.00    -0.115 C  
HETATM   13  C   UNL     1      -8.826  10.526  65.229  1.00  0.00    -0.205 C  
HETATM   14  H   UNL     1      -6.821   9.719  63.015  1.00  0.00     0.000 HD 
HETATM   15  C   UNL     1      -8.928  11.846  66.325  1.00  0.00    -0.157 C  
HETATM   16  C   UNL     1     -10.068  10.229  64.388  1.00  0.00    -0.242 C  
HETATM   17  C   UNL     1      -9.417  10.843  67.316  1.00  0.00    -0.176 C  
HETATM   18  C   UNL     1      -7.512   7.276  69.414  1.00  0.00    -0.092 C  
HETATM   19  C   UNL     1      -6.319   6.811  70.489  1.00  0.00    -0.039 C  
HETATM   20  C   UNL     1      -8.254   9.788  67.706  1.00  0.00    -0.114 C  
HETATM   21  O   UNL     1      -6.950   5.457  70.493  1.00  0.00    -0.050 OA 
HETATM   22  C   UNL     1      -9.184   8.165  67.917  1.00  0.00    -0.131 C  
HETATM   23  C   UNL     1      -5.581   8.970  66.570  1.00  0.00    -0.049 C  
HETATM   24  C   UNL     1      -6.912   9.850  66.416  1.00  0.00    -0.095 C  
HETATM   25  O   UNL     1      -7.545  10.210  68.885  1.00  0.00    -0.079 OA 
HETATM   26  C   UNL     1      -7.897   7.462  67.830  1.00  0.00    -0.113 C  
HETATM   27  H   UNL     1      -6.862   9.590  69.113  1.00  0.00     0.000 HD 
HETATM   28  C   UNL     1      -6.045  11.124  65.994  1.00  0.00    -0.047 C  
ENDROOT
BRANCH  15  29
HETATM   29  O   UNL     1      -7.782  12.364  67.187  1.00  0.00    -0.162 OA 
BRANCH  29  30
HETATM   30  C   UNL     1      -7.691  13.668  67.620  1.00  0.00    -0.178 C  
HETATM   31  O   UNL     1      -6.818  14.432  67.231  1.00  0.00    -0.241 OA 
BRANCH  30  32
HETATM   32  C   UNL     1      -8.804  14.024  68.723  1.00  0.00    -0.031 C  
HETATM   33  O   UNL     1      -9.472  12.899  69.305  1.00  0.00    -0.077 OA 
HETATM   34  H   UNL     1     -10.130  13.110  69.957  1.00  0.00     0.000 HD 
BRANCH  32  35
HETATM   35  C   UNL     1      -9.861  15.040  68.147  1.00  0.00    -0.216 C  
BRANCH  35  36
HETATM   36  N   UNL     1      -9.182  16.326  67.837  1.00  0.00    -0.200 N  
HETATM   37  C   UNL     1      -9.531  17.404  68.557  1.00  0.00    -0.297 C  
HETATM   38  O   UNL     1     -10.457  17.502  69.274  1.00  0.00    -0.321 OA 
HETATM   39  H   UNL     1      -8.477  16.387  67.103  1.00  0.00     0.000 HD 
BRANCH  37  40
HETATM   40  O   UNL     1      -8.557  18.394  68.381  1.00  0.00    -0.310 OA 
HETATM   41  C   UNL     1      -8.985  19.627  67.778  1.00  0.00    -0.322 C  
HETATM   42  C   UNL     1     -10.071  20.304  68.636  1.00  0.00    -0.261 C  
HETATM   43  C   UNL     1      -9.437  19.413  66.326  1.00  0.00    -0.422 C  
HETATM   44  C   UNL     1      -7.744  20.534  67.775  1.00  0.00    -0.229 C  
ENDBRANCH  37  40
ENDBRANCH  35  36
BRANCH  35  45
HETATM   45  C   UNL     1     -10.803  14.664  66.990  1.00  0.00    -0.304 A  
HETATM   46  C   UNL     1     -11.878  13.769  67.065  1.00  0.00    -0.445 A  
HETATM   47  C   UNL     1     -12.376  14.042  64.686  1.00  0.00    -0.425 A  
HETATM   48  C   UNL     1     -10.542  15.227  65.714  1.00  0.00    -0.359 A  
HETATM   49  C   UNL     1     -12.659  13.467  65.925  1.00  0.00    -0.454 A  
HETATM   50  C   UNL     1     -11.311  14.923  64.580  1.00  0.00    -0.362 A  
ENDBRANCH  35  45
ENDBRANCH  32  35
ENDBRANCH  30  32
ENDBRANCH  29  30
ENDBRANCH  15  29
BRANCH  22  51
HETATM   51  O   UNL     1      -9.766   6.989  69.126  1.00  0.00    -0.155 OA 
BRANCH  51  52
HETATM   52  C   UNL     1     -10.834   6.600  70.002  1.00  0.00    -0.280 C  
HETATM   53  O   UNL     1     -11.101   5.407  70.120  1.00  0.00    -0.170 OA 
BRANCH  52  54
HETATM   54  C   UNL     1     -11.943   7.611  70.781  1.00  0.00    -0.192 A  
HETATM   55  C   UNL     1     -12.903   9.650  71.927  1.00  0.00    -0.515 A  
HETATM   56  C   UNL     1     -14.271   7.716  71.842  1.00  0.00    -0.492 A  
HETATM   57  C   UNL     1     -13.216   7.053  71.125  1.00  0.00    -0.223 A  
HETATM   58  C   UNL     1     -11.859   8.958  71.213  1.00  0.00    -0.371 A  
HETATM   59  C   UNL     1     -14.124   9.046  72.254  1.00  0.00    -0.485 A  
ENDBRANCH  52  54
ENDBRANCH  51  52
ENDBRANCH  22  51
BRANCH  18  60
HETATM   60  O   UNL     1      -8.372   8.066  70.543  1.00  0.00    -0.118 OA 
BRANCH  60  61
HETATM   61  C   UNL     1      -8.133   8.396  71.902  1.00  0.00    -0.145 C  
HETATM   62  C   UNL     1      -9.033   7.794  72.942  1.00  0.00    -0.243 C  
HETATM   63  O   UNL     1      -7.331   9.192  72.400  1.00  0.00    -0.313 OA 
ENDBRANCH  60  61
ENDBRANCH  18  60
TORSDOF 12
ENDMDL
MODEL        3
REMARK 921   NORMALIZED FREE ENERGY PREDICTED BY IDOCK:   -6.60 KCAL/MOL
REMARK 922        TOTAL FREE ENERGY PREDICTED BY IDOCK:  -13.89 KCAL/MOL
REMARK 923 INTER-LIGAND FREE ENERGY PREDICTED BY IDOCK:  -11.20 KCAL/MOL
REMARK 924 INTRA-LIGAND FREE ENERGY PREDICTED BY IDOCK:   -2.70 KCAL/MOL
REMARK 927      BINDING AFFINITY PREDICTED BY RF-SCORE:    0.00 PKD
ROOT
HETATM    1  C   UNL     1      -7.223   5.999  69.551  1.00  0.00    -0.070 C  
HETATM    2  C   UNL     1      -8.005   5.087  68.601  1.00  0.00    -0.085 C  
HETATM    3  C   UNL     1      -7.696   5.609  67.173  1.00  0.00    -0.101 C  
HETATM    4  O   UNL     1      -6.287   5.469  66.935  1.00  0.00    -0.036 OA 
HETATM    5  C   UNL     1      -8.240   7.049  67.059  1.00  0.00    -0.117 C  
HETATM    6  H   UNL     1      -6.097   5.789  66.061  1.00  0.00     0.000 HD 
HETATM    7  C   UNL     1      -7.695   7.686  65.660  1.00  0.00    -0.099 C  
HETATM    8  C   UNL     1      -9.743   6.913  66.632  1.00  0.00    -0.221 C  
HETATM    9  C   UNL     1      -8.138   9.095  65.117  1.00  0.00    -0.130 C  
HETATM   10  O   UNL     1      -7.021   7.001  64.872  1.00  0.00    -0.049 OA 
HETATM   11  O   UNL     1      -7.251   9.552  64.085  1.00  0.00    -0.106 OA 
HETATM   12  C   UNL     1      -8.153  10.204  66.107  1.00  0.00    -0.123 C  
HETATM   13  C   UNL     1      -9.108  11.145  66.308  1.00  0.00    -0.207 C  
HETATM   14  H   UNL     1      -7.519  10.404  63.758  1.00  0.00     0.000 HD 
HETATM   15  C   UNL     1      -8.954  12.377  67.495  1.00  0.00    -0.183 C  
HETATM   16  C   UNL     1     -10.479  10.985  65.652  1.00  0.00    -0.293 C  
HETATM   17  C   UNL     1      -9.354  11.327  68.478  1.00  0.00    -0.182 C  
HETATM   18  C   UNL     1      -7.400   7.505  70.002  1.00  0.00    -0.081 C  
HETATM   19  C   UNL     1      -6.093   6.890  70.843  1.00  0.00    -0.036 C  
HETATM   20  C   UNL     1      -8.220  10.182  68.608  1.00  0.00    -0.111 C  
HETATM   21  O   UNL     1      -6.806   5.578  70.850  1.00  0.00    -0.045 OA 
HETATM   22  C   UNL     1      -9.215   8.602  68.848  1.00  0.00    -0.145 C  
HETATM   23  C   UNL     1      -5.811   9.308  67.016  1.00  0.00    -0.045 C  
HETATM   24  C   UNL     1      -7.087  10.270  67.133  1.00  0.00    -0.089 C  
HETATM   25  O   UNL     1      -7.314  10.469  69.689  1.00  0.00    -0.134 OA 
HETATM   26  C   UNL     1      -8.007   7.837  68.513  1.00  0.00    -0.122 C  
HETATM   27  H   UNL     1      -6.648   9.796  69.765  1.00  0.00     0.000 HD 
HETATM   28  C   UNL     1      -6.209  11.523  66.671  1.00  0.00    -0.113 C  
ENDROOT
BRANCH  15  29
HETATM   29  O   UNL     1      -7.658  12.760  68.202  1.00  0.00    -0.112 OA 
BRANCH  29  30
HETATM   30  C   UNL     1      -7.327  14.058  68.523  1.00  0.00    -0.114 C  
HETATM   31  O   UNL     1      -7.185  14.434  69.680  1.00  0.00    -0.104 OA 
BRANCH  30  32
HETATM   32  C   UNL     1      -7.224  15.001  67.228  1.00  0.00    -0.140 C  
HETATM   33  O   UNL     1      -6.040  15.802  67.146  1.00  0.00    -0.322 OA 
HETATM   34  H   UNL     1      -5.978  16.360  66.379  1.00  0.00     0.000 HD 
BRANCH  32  35
HETATM   35  C   UNL     1      -8.501  15.914  67.093  1.00  0.00    -0.199 C  
BRANCH  35  36
HETATM   36  N   UNL     1      -8.179  17.077  66.224  1.00  0.00    -0.290 N  
HETATM   37  C   UNL     1      -8.225  18.299  66.776  1.00  0.00    -0.253 C  
HETATM   38  O   UNL     1      -8.688  18.583  67.819  1.00  0.00    -0.268 OA 
HETATM   39  H   UNL     1      -7.931  16.949  65.243  1.00  0.00     0.000 HD 
BRANCH  37  40
HETATM   40  O   UNL     1      -7.556  19.196  65.936  1.00  0.00    -0.355 OA 
HETATM   41  C   UNL     1      -6.590  20.066  66.550  1.00  0.00    -0.203 C  
HETATM   42  C   UNL     1      -5.466  19.248  67.212  1.00  0.00    -0.165 C  
HETATM   43  C   UNL     1      -7.259  21.042  67.530  1.00  0.00    -0.320 C  
HETATM   44  C   UNL     1      -5.976  20.876  65.397  1.00  0.00    -0.280 C  
ENDBRANCH  37  40
ENDBRANCH  35  36
BRANCH  35  45
HETATM   45  C   UNL     1      -9.872  15.340  66.696  1.00  0.00    -0.263 A  
HETATM   46  C   UNL     1     -10.906  15.001  67.579  1.00  0.00    -0.297 A  
HETATM   47  C   UNL     1     -12.316  14.202  65.746  1.00  0.00    -0.481 A  
HETATM   48  C   UNL     1     -10.108  15.077  65.321  1.00  0.00    -0.378 A  
HETATM   49  C   UNL     1     -12.117  14.444  67.105  1.00  0.00    -0.367 A  
HETATM   50  C   UNL     1     -11.305  14.517  64.851  1.00  0.00    -0.394 A  
ENDBRANCH  35  45
ENDBRANCH  32  35
ENDBRANCH  30  32
ENDBRANCH  29  30
ENDBRANCH  15  29
BRANCH  22  51
HETATM   51  O   UNL     1      -9.686   7.368  70.048  1.00  0.00    -0.174 OA 
BRANCH  51  52
HETATM   52  C   UNL     1     -10.743   6.554  70.577  1.00  0.00    -0.254 C  
HETATM   53  O   UNL     1     -11.906   6.926  70.437  1.00  0.00    -0.342 OA 
BRANCH  52  54
HETATM   54  C   UNL     1     -10.593   5.194  71.569  1.00  0.00    -0.217 A  
HETATM   55  C   UNL     1      -9.847   2.922  72.392  1.00  0.00    -0.228 A  
HETATM   56  C   UNL     1     -11.494   4.047  73.674  1.00  0.00    -0.181 A  
HETATM   57  C   UNL     1     -11.420   5.135  72.737  1.00  0.00    -0.284 A  
HETATM   58  C   UNL     1      -9.799   4.026  71.465  1.00  0.00    -0.251 A  
HETATM   59  C   UNL     1     -10.692   2.912  73.510  1.00  0.00    -0.289 A  
ENDBRANCH  52  54
ENDBRANCH  51  52
ENDBRANCH  22  51
BRANCH  18  60
HETATM   60  O   UNL     1      -8.025   8.250  71.302  1.00  0.00    -0.092 OA 
BRANCH  60  61
HETATM   61  C   UNL     1      -7.677   8.273  72.678  1.00  0.00    -0.117 C  
HETATM   62  C   UNL     1      -8.457   7.398  73.616  1.00  0.00    -0.202 C  
HETATM   63  O   UNL     1      -6.864   8.978  73.284  1.00  0.00    -0.334 OA 
ENDBRANCH  60  61
ENDBRANCH  18  60
TORSDOF 12
ENDMDL
MODEL        4
REMARK 921   NORMALIZED FREE ENERGY PREDICTED BY IDOCK:   -6.42 KCAL/MOL
REMARK 922        TOTAL FREE ENERGY PREDICTED BY IDOCK:  -13.59 KCAL/MOL
REMARK 923 INTER-LIGAND FREE ENERGY PREDICTED BY IDOCK:  -11.31 KCAL/MOL
REMARK 924 INTRA-LIGAND FREE ENERGY PREDICTED BY IDOCK:   -2.28 KCAL/MOL
REMARK 927      BINDING AFFINITY PREDICTED BY RF-SCORE:    0.00 PKD
ROOT
HETATM    1  C   UNL     1      -7.307   6.627  70.253  1.00  0.00    -0.085 C  
HETATM    2  C   UNL     1      -6.827   5.906  68.990  1.00  0.00    -0.062 C  
HETATM    3  C   UNL     1      -6.254   7.015  68.069  1.00  0.00    -0.035 C  
HETATM    4  O   UNL     1      -5.138   7.625  68.735  1.00  0.00    -0.020 OA 
HETATM    5  C   UNL     1      -7.403   7.976  67.700  1.00  0.00    -0.093 C  
HETATM    6  H   UNL     1      -4.787   8.304  68.172  1.00  0.00     0.000 HD 
HETATM    7  C   UNL     1      -6.758   9.273  66.950  1.00  0.00    -0.076 C  
HETATM    8  C   UNL     1      -8.101   7.357  66.440  1.00  0.00    -0.118 C  
HETATM    9  C   UNL     1      -7.620  10.420  66.304  1.00  0.00    -0.127 C  
HETATM   10  O   UNL     1      -5.539   9.326  66.713  1.00  0.00    -0.042 OA 
HETATM   11  O   UNL     1      -6.819  11.584  66.046  1.00  0.00    -0.366 OA 
HETATM   12  C   UNL     1      -8.754  10.927  67.119  1.00  0.00    -0.132 C  
HETATM   13  C   UNL     1     -10.027  11.181  66.730  1.00  0.00    -0.242 C  
HETATM   14  H   UNL     1      -7.340  12.276  65.655  1.00  0.00     0.000 HD 
HETATM   15  C   UNL     1     -11.218  11.788  67.810  1.00  0.00    -0.266 C  
HETATM   16  C   UNL     1     -10.516  10.690  65.368  1.00  0.00    -0.254 C  
HETATM   17  C   UNL     1     -11.328  10.384  68.304  1.00  0.00    -0.292 C  
HETATM   18  C   UNL     1      -8.524   7.590  70.558  1.00  0.00    -0.133 C  
HETATM   19  C   UNL     1      -7.709   7.357  71.999  1.00  0.00    -0.089 C  
HETATM   20  C   UNL     1      -9.975   9.918  69.056  1.00  0.00    -0.187 C  
HETATM   21  O   UNL     1      -7.404   5.975  71.520  1.00  0.00    -0.084 OA 
HETATM   22  C   UNL     1      -9.807   8.105  68.579  1.00  0.00    -0.179 C  
HETATM   23  C   UNL     1      -7.129  10.905  69.235  1.00  0.00    -0.124 C  
HETATM   24  C   UNL     1      -8.585  11.064  68.584  1.00  0.00    -0.157 C  
HETATM   25  O   UNL     1     -10.067  10.140  70.474  1.00  0.00    -0.392 OA 
HETATM   26  C   UNL     1      -8.407   8.158  69.023  1.00  0.00    -0.128 C  
HETATM   27  H   UNL     1      -9.271   9.866  70.916  1.00  0.00     0.000 HD 
HETATM   28  C   UNL     1      -8.531  12.646  68.801  1.00  0.00     0.160 C  
ENDROOT
BRANCH  15  29
HETATM   29  O   UNL     1     -10.934  12.406  69.175  1.00  0.00    -0.225 OA 
BRANCH  29  30
HETATM   30  C   UNL     1     -11.686  13.427  69.713  1.00  0.00    -0.286 C  
HETATM   31  O   UNL     1     -12.797  13.245  70.194  1.00  0.00     0.009 OA 
BRANCH  30  32
HETATM   32  C   UNL     1     -10.967  14.857  69.569  1.00  0.00    -0.273 C  
HETATM   33  O   UNL     1     -11.053  15.704  70.721  1.00  0.00    -0.320 OA 
HETATM   34  H   UNL     1     -10.627  16.549  70.636  1.00  0.00     0.000 HD 
BRANCH  32  35
HETATM   35  C   UNL     1     -11.490  15.624  68.297  1.00  0.00    -0.350 C  
BRANCH  35  36
HETATM   36  N   UNL     1     -10.980  17.020  68.327  1.00  0.00    -0.335 N  
HETATM   37  C   UNL     1      -9.667  17.200  68.541  1.00  0.00    -0.291 C  
HETATM   38  O   UNL     1      -8.898  16.392  68.911  1.00  0.00    -0.241 OA 
HETATM   39  H   UNL     1     -11.606  17.813  68.189  1.00  0.00     0.000 HD 
BRANCH  37  40
HETATM   40  O   UNL     1      -9.329  18.509  68.177  1.00  0.00    -0.294 OA 
HETATM   41  C   UNL     1      -9.118  18.761  66.778  1.00  0.00    -0.312 C  
HETATM   42  C   UNL     1     -10.395  18.457  65.973  1.00  0.00    -0.397 C  
HETATM   43  C   UNL     1      -7.896  17.995  66.249  1.00  0.00    -0.288 C  
HETATM   44  C   UNL     1      -8.834  20.268  66.672  1.00  0.00    -0.334 C  
ENDBRANCH  37  40
ENDBRANCH  35  36
BRANCH  35  45
HETATM   45  C   UNL     1     -11.331  15.049  66.878  1.00  0.00    -0.302 A  
HETATM   46  C   UNL     1     -10.132  14.954  66.161  1.00  0.00    -0.316 A  
HETATM   47  C   UNL     1     -11.278  14.025  64.210  1.00  0.00    -0.236 A  
HETATM   48  C   UNL     1     -12.503  14.620  66.203  1.00  0.00    -0.025 A  
HETATM   49  C   UNL     1     -10.107  14.442  64.843  1.00  0.00    -0.253 A  
HETATM   50  C   UNL     1     -12.481  14.119  64.893  1.00  0.00    -0.419 A  
ENDBRANCH  35  45
ENDBRANCH  32  35
ENDBRANCH  30  32
ENDBRANCH  29  30
ENDBRANCH  15  29
BRANCH  22  51
HETATM   51  O   UNL     1      -9.958   6.437  69.194  1.00  0.00    -0.143 OA 
BRANCH  51  52
HETATM   52  C   UNL     1     -10.079   5.045  68.865  1.00  0.00    -0.144 C  
HETATM   53  O   UNL     1     -10.215   4.230  69.774  1.00  0.00    -0.087 OA 
BRANCH  52  54
HETATM   54  C   UNL     1      -9.865   4.325  67.351  1.00  0.00    -0.176 A  
HETATM   55  C   UNL     1      -8.913   2.842  65.537  1.00  0.00    -0.145 A  
HETATM   56  C   UNL     1     -10.582   4.398  64.894  1.00  0.00    -0.120 A  
HETATM   57  C   UNL     1     -10.654   4.824  66.265  1.00  0.00    -0.246 A  
HETATM   58  C   UNL     1      -9.001   3.295  66.903  1.00  0.00    -0.174 A  
HETATM   59  C   UNL     1      -9.698   3.383  64.510  1.00  0.00    -0.167 A  
ENDBRANCH  52  54
ENDBRANCH  51  52
ENDBRANCH  22  51
BRANCH  18  60
HETATM   60  O   UNL     1      -9.990   7.410  71.234  1.00  0.00    -0.187 OA 
BRANCH  60  61
HETATM   61  C   UNL     1     -10.457   6.740  72.394  1.00  0.00    -0.204 C  
HETATM   62  C   UNL     1     -10.490   7.505  73.685  1.00  0.00    -0.285 C  
HETATM   63  O   UNL     1     -10.780   5.558  72.557  1.00  0.00    -0.217 OA 
ENDBRANCH  60  61
ENDBRANCH  18  60
TORSDOF 12
ENDMDL
MODEL        5
REMARK 921   NORMALIZED FREE ENERGY PREDICTED BY IDOCK:   -5.88 KCAL/MOL
REMARK 922        TOTAL FREE ENERGY PREDICTED BY IDOCK:  -12.67 KCAL/MOL
REMARK 923 INTER-LIGAND FREE ENERGY PREDICTED BY IDOCK:   -9.66 KCAL/MOL
REMARK 924 INTRA-LIGAND FREE ENERGY PREDICTED BY IDOCK:   -3.01 KCAL/MOL
REMARK 927      BINDING AFFINITY PREDICTED BY RF-SCORE:    0.00 PKD
ROOT
HETATM    1  C   UNL     1      -9.887  15.962  68.712  1.00  0.00    -0.216 C  
HETATM    2  C   UNL     1     -10.333  16.865  67.559  1.00  0.00    -0.318 C  
HETATM    3  C   UNL     1     -11.422  16.062  66.799  1.00  0.00     0.371 C  
HETATM    4  O   UNL     1     -12.522  15.834  67.692  1.00  0.00     0.305 OA 
HETATM    5  C   UNL     1     -10.769  14.788  66.224  1.00  0.00    -0.313 C  
HETATM    6  H   UNL     1     -13.189  15.343  67.228  1.00  0.00     0.000 HD 
HETATM    7  C   UNL     1     -11.955  13.825  65.651  1.00  0.00    -0.388 C  
HETATM    8  C   UNL     1     -10.168  15.195  64.834  1.00  0.00    -0.231 C  
HETATM    9  C   UNL     1     -11.684  12.488  64.868  1.00  0.00    -0.359 C  
HETATM   10  O   UNL     1     -13.139  14.201  65.669  1.00  0.00    -0.617 OA 
HETATM   11  O   UNL     1     -12.869  11.679  64.805  1.00  0.00     0.100 OA 
HETATM   12  C   UNL     1     -10.653  11.586  65.445  1.00  0.00    -0.336 C  
HETATM   13  C   UNL     1      -9.649  10.936  64.810  1.00  0.00    -0.301 C  
HETATM   14  H   UNL     1     -12.705  10.871  64.332  1.00  0.00     0.000 HD 
HETATM   15  C   UNL     1      -8.547   9.908  65.637  1.00  0.00    -0.145 C  
HETATM   16  C   UNL     1      -9.303  11.299  63.366  1.00  0.00    -0.253 C  
HETATM   17  C   UNL     1      -7.867  11.166  66.066  1.00  0.00    -0.020 C  
HETATM   18  C   UNL     1      -9.037  14.630  68.784  1.00  0.00    -0.178 C  
HETATM   19  C   UNL     1      -9.419  15.054  70.355  1.00  0.00     0.808 C  
HETATM   20  C   UNL     1      -8.801  12.025  67.069  1.00  0.00    -0.197 C  
HETATM   21  O   UNL     1      -9.322  16.479  69.918  1.00  0.00     0.296 OA 
HETATM   22  C   UNL     1      -8.430  13.809  66.596  1.00  0.00     0.166 C  
HETATM   23  C   UNL     1     -11.716  12.053  67.847  1.00  0.00    -0.393 C  
HETATM   24  C   UNL     1     -10.564  11.443  66.917  1.00  0.00    -0.292 C  
HETATM   25  O   UNL     1      -8.509  11.715  68.443  1.00  0.00    -0.151 OA 
HETATM   26  C   UNL     1      -9.645  14.212  67.318  1.00  0.00    -0.234 C  
HETATM   27  H   UNL     1      -9.058  12.220  69.032  1.00  0.00     0.000 HD 
HETATM   28  C   UNL     1     -11.111   9.964  67.175  1.00  0.00    -0.006 C  
ENDROOT
BRANCH  15  29
HETATM   29  O   UNL     1      -8.747   9.356  67.044  1.00  0.00    -0.126 OA 
BRANCH  29  30
HETATM   30  C   UNL     1      -7.905   8.430  67.619  1.00  0.00    -0.107 C  
HETATM   31  O   UNL     1      -6.918   7.990  67.043  1.00  0.00    -0.071 OA 
BRANCH  30  32
HETATM   32  C   UNL     1      -8.409   7.963  69.071  1.00  0.00    -0.130 C  
HETATM   33  O   UNL     1      -7.615   6.949  69.699  1.00  0.00    -0.096 OA 
HETATM   34  H   UNL     1      -7.913   6.673  70.557  1.00  0.00     0.000 HD 
BRANCH  32  35
HETATM   35  C   UNL     1      -9.918   7.513  69.025  1.00  0.00    -0.175 C  
BRANCH  35  36
HETATM   36  N   UNL     1      -9.982   6.051  68.757  1.00  0.00    -0.141 N  
HETATM   37  C   UNL     1     -10.383   5.657  67.539  1.00  0.00    -0.222 C  
HETATM   38  O   UNL     1     -10.887   6.326  66.714  1.00  0.00    -0.326 OA 
HETATM   39  H   UNL     1      -9.728   5.372  69.475  1.00  0.00     0.000 HD 
BRANCH  37  40
HETATM   40  O   UNL     1     -10.035   4.313  67.365  1.00  0.00    -0.164 OA 
HETATM   41  C   UNL     1      -9.312   3.978  66.169  1.00  0.00    -0.171 C  
HETATM   42  C   UNL     1      -7.970   4.731  66.116  1.00  0.00    -0.103 C  
HETATM   43  C   UNL     1     -10.165   4.213  64.913  1.00  0.00    -0.218 C  
HETATM   44  C   UNL     1      -9.011   2.474  66.280  1.00  0.00    -0.126 C  
ENDBRANCH  37  40
ENDBRANCH  35  36
BRANCH  35  45
HETATM   45  C   UNL     1     -10.909   7.874  70.144  1.00  0.00    -0.243 A  
HETATM   46  C   UNL     1     -11.104   9.151  70.687  1.00  0.00    -0.320 A  
HETATM   47  C   UNL     1     -12.748   8.306  72.289  1.00  0.00    -0.338 A  
HETATM   48  C   UNL     1     -11.664   6.822  70.725  1.00  0.00    -0.439 A  
HETATM   49  C   UNL     1     -12.019   9.363  71.744  1.00  0.00    -0.452 A  
HETATM   50  C   UNL     1     -12.567   7.030  71.779  1.00  0.00    -0.388 A  
ENDBRANCH  35  45
ENDBRANCH  32  35
ENDBRANCH  30  32
ENDBRANCH  29  30
ENDBRANCH  15  29
BRANCH  22  51
HETATM   51  O   UNL     1      -7.598  15.294  67.130  1.00  0.00    -0.203 OA 
BRANCH  51  52
HETATM   52  C   UNL     1      -6.747  16.389  66.761  1.00  0.00    -0.109 C  
HETATM   53  O   UNL     1      -5.574  16.158  66.474  1.00  0.00    -0.109 OA 
BRANCH  52  54
HETATM   54  C   UNL     1      -7.097  18.040  66.851  1.00  0.00    -0.216 A  
HETATM   55  C   UNL     1      -7.688  20.387  66.121  1.00  0.00    -0.146 A  
HETATM   56  C   UNL     1      -7.154  20.071  68.409  1.00  0.00    -0.310 A  
HETATM   57  C   UNL     1      -6.967  18.674  68.129  1.00  0.00    -0.257 A  
HETATM   58  C   UNL     1      -7.487  18.983  65.868  1.00  0.00    -0.253 A  
HETATM   59  C   UNL     1      -7.527  20.956  67.392  1.00  0.00    -0.339 A  
ENDBRANCH  52  54
ENDBRANCH  51  52
ENDBRANCH  22  51
BRANCH  18  60
HETATM   60  O   UNL     1      -7.495  14.268  69.141  1.00  0.00    -0.123 OA 
BRANCH  60  61
HETATM   61  C   UNL     1      -6.565  14.772  70.087  1.00  0.00    -0.145 C  
HETATM   62  C   UNL     1      -6.133  13.865  71.203  1.00  0.00    -0.045 C  
HETATM   63  O   UNL     1      -6.088  15.905  70.211  1.00  0.00    -0.145 OA 
ENDBRANCH  60  61
ENDBRANCH  18  60
TORSDOF 12
ENDMDL
MODEL        6
REMARK 921   NORMALIZED FREE ENERGY PREDICTED BY IDOCK:   -5.86 KCAL/MOL
REMARK 922        TOTAL FREE ENERGY PREDICTED BY IDOCK:  -12.64 KCAL/MOL
REMARK 923 INTER-LIGAND FREE ENERGY PREDICTED BY IDOCK:   -9.68 KCAL/MOL
REMARK 924 INTRA-LIGAND FREE ENERGY PREDICTED BY IDOCK:   -2.96 KCAL/MOL
REMARK 927      BINDING AFFINITY PREDICTED BY RF-SCORE:    0.00 PKD
ROOT
HETATM    1  C   UNL     1      -9.867  15.817  68.726  1.00  0.00    -0.214 C  
HETATM    2  C   UNL     1     -10.348  16.759  67.618  1.00  0.00    -0.309 C  
HETATM    3  C   UNL     1     -11.437  15.970  66.845  1.00  0.00     0.333 C  
HETATM    4  O   UNL     1     -12.518  15.688  67.747  1.00  0.00     0.103 OA 
HETATM    5  C   UNL     1     -10.774  14.731  66.208  1.00  0.00    -0.313 C  
HETATM    6  H   UNL     1     -13.185  15.205  67.274  1.00  0.00     0.000 HD 
HETATM    7  C   UNL     1     -11.955  13.773  65.616  1.00  0.00    -0.388 C  
HETATM    8  C   UNL     1     -10.205  15.204  64.826  1.00  0.00    -0.085 C  
HETATM    9  C   UNL     1     -11.678  12.473  64.774  1.00  0.00    -0.358 C  
HETATM   10  O   UNL     1     -13.145  14.128  65.669  1.00  0.00    -0.617 OA 
HETATM   11  O   UNL     1     -12.851  11.648  64.698  1.00  0.00    -0.004 OA 
HETATM   12  C   UNL     1     -10.623  11.566  65.296  1.00  0.00    -0.339 C  
HETATM   13  C   UNL     1      -9.619  10.958  64.618  1.00  0.00    -0.305 C  
HETATM   14  H   UNL     1     -12.683  10.863  64.190  1.00  0.00     0.000 HD 
HETATM   15  C   UNL     1      -8.487   9.916  65.383  1.00  0.00    -0.147 C  
HETATM   16  C   UNL     1      -9.305  11.385  63.184  1.00  0.00    -0.307 C  
HETATM   17  C   UNL     1      -7.820  11.166  65.852  1.00  0.00     0.036 C  
HETATM   18  C   UNL     1      -8.995  14.497  68.728  1.00  0.00    -0.157 C  
HETATM   19  C   UNL     1      -9.356  14.851  70.322  1.00  0.00     0.804 C  
HETATM   20  C   UNL     1      -8.749  11.969  66.905  1.00  0.00    -0.193 C  
HETATM   21  O   UNL     1      -9.289  16.294  69.942  1.00  0.00     0.121 OA 
HETATM   22  C   UNL     1      -8.414  13.776  66.499  1.00  0.00     0.331 C  
HETATM   23  C   UNL     1     -11.650  11.917  67.733  1.00  0.00    -0.393 C  
HETATM   24  C   UNL     1     -10.504  11.364  66.759  1.00  0.00    -0.284 C  
HETATM   25  O   UNL     1      -8.428  11.608  68.260  1.00  0.00    -0.149 OA 
HETATM   26  C   UNL     1      -9.622  14.129  67.257  1.00  0.00    -0.234 C  
HETATM   27  H   UNL     1      -8.974  12.079  68.878  1.00  0.00     0.000 HD 
HETATM   28  C   UNL     1     -11.023   9.867  66.966  1.00  0.00    -0.098 C  
ENDROOT
BRANCH  15  29
HETATM   29  O   UNL     1      -8.653   9.304  66.770  1.00  0.00    -0.125 OA 
BRANCH  29  30
HETATM   30  C   UNL     1      -7.865   8.278  67.242  1.00  0.00    -0.105 C  
HETATM   31  O   UNL     1      -6.762   8.470  67.739  1.00  0.00    -0.064 OA 
BRANCH  30  32
HETATM   32  C   UNL     1      -8.528   6.836  67.001  1.00  0.00    -0.114 C  
HETATM   33  O   UNL     1      -9.642   6.817  66.100  1.00  0.00    -0.368 OA 
HETATM   34  H   UNL     1     -10.034   5.964  65.957  1.00  0.00     0.000 HD 
BRANCH  32  35
HETATM   35  C   UNL     1      -8.931   6.166  68.368  1.00  0.00    -0.115 C  
BRANCH  35  36
HETATM   36  N   UNL     1     -10.149   6.835  68.898  1.00  0.00    -0.158 N  
HETATM   37  C   UNL     1     -10.018   7.581  70.007  1.00  0.00    -0.186 C  
HETATM   38  O   UNL     1      -9.092   7.608  70.731  1.00  0.00    -0.151 OA 
HETATM   39  H   UNL     1     -11.051   6.732  68.435  1.00  0.00     0.000 HD 
BRANCH  37  40
HETATM   40  O   UNL     1     -11.147   8.398  70.134  1.00  0.00    -0.245 OA 
HETATM   41  C   UNL     1     -11.888   8.297  71.361  1.00  0.00    -0.293 C  
HETATM   42  C   UNL     1     -11.003   8.676  72.563  1.00  0.00    -0.221 C  
HETATM   43  C   UNL     1     -12.525   6.908  71.519  1.00  0.00    -0.420 C  
HETATM   44  C   UNL     1     -13.012   9.341  71.248  1.00  0.00    -0.342 C  
ENDBRANCH  37  40
ENDBRANCH  35  36
BRANCH  35  45
HETATM   45  C   UNL     1      -9.078   4.641  68.515  1.00  0.00    -0.157 A  
HETATM   46  C   UNL     1      -9.102   3.715  67.465  1.00  0.00    -0.185 A  
HETATM   47  C   UNL     1      -9.450   1.851  69.011  1.00  0.00    -0.164 A  
HETATM   48  C   UNL     1      -9.256   4.116  69.822  1.00  0.00    -0.213 A  
HETATM   49  C   UNL     1      -9.281   2.334  67.713  1.00  0.00    -0.226 A  
HETATM   50  C   UNL     1      -9.441   2.748  70.069  1.00  0.00    -0.168 A  
ENDBRANCH  35  45
ENDBRANCH  32  35
ENDBRANCH  30  32
ENDBRANCH  29  30
ENDBRANCH  15  29
BRANCH  22  51
HETATM   51  O   UNL     1      -7.597  15.252  67.079  1.00  0.00    -0.205 OA 
BRANCH  51  52
HETATM   52  C   UNL     1      -6.653  16.293  66.786  1.00  0.00     0.025 C  
HETATM   53  O   UNL     1      -5.465  16.001  66.671  1.00  0.00    -0.144 OA 
BRANCH  52  54
HETATM   54  C   UNL     1      -6.936  17.959  66.760  1.00  0.00    -0.225 A  
HETATM   55  C   UNL     1      -7.270  20.299  65.862  1.00  0.00    -0.268 A  
HETATM   56  C   UNL     1      -7.181  20.049  68.218  1.00  0.00    -0.312 A  
HETATM   57  C   UNL     1      -7.012  18.636  68.019  1.00  0.00    -0.247 A  
HETATM   58  C   UNL     1      -7.092  18.879  65.693  1.00  0.00    -0.231 A  
HETATM   59  C   UNL     1      -7.318  20.909  67.123  1.00  0.00    -0.369 A  
ENDBRANCH  52  54
ENDBRANCH  51  52
ENDBRANCH  22  51
BRANCH  18  60
HETATM   60  O   UNL     1      -7.442  14.146  69.044  1.00  0.00    -0.124 OA 
BRANCH  60  61
HETATM   61  C   UNL     1      -6.569  14.452  70.121  1.00  0.00    -0.104 C  
HETATM   62  C   UNL     1      -5.960  15.824  70.167  1.00  0.00    -0.133 C  
HETATM   63  O   UNL     1      -6.134  13.731  71.025  1.00  0.00    -0.163 OA 
ENDBRANCH  60  61
ENDBRANCH  18  60
TORSDOF 12
ENDMDL
MODEL        7
REMARK 921   NORMALIZED FREE ENERGY PREDICTED BY IDOCK:   -5.74 KCAL/MOL
REMARK 922        TOTAL FREE ENERGY PREDICTED BY IDOCK:  -12.44 KCAL/MOL
REMARK 923 INTER-LIGAND FREE ENERGY PREDICTED BY IDOCK:   -9.16 KCAL/MOL
REMARK 924 INTRA-LIGAND FREE ENERGY PREDICTED BY IDOCK:   -3.28 KCAL/MOL
REMARK 927      BINDING AFFINITY PREDICTED BY RF-SCORE:    0.00 PKD
ROOT
HETATM    1  C   UNL     1      -9.775  15.988  68.690  1.00  0.00    -0.217 C  
HETATM    2  C   UNL     1     -10.130  16.868  67.488  1.00  0.00    -0.282 C  
HETATM    3  C   UNL     1     -11.243  16.102  66.725  1.00  0.00     0.154 C  
HETATM    4  O   UNL     1     -12.381  15.977  67.591  1.00  0.00     0.399 OA 
HETATM    5  C   UNL     1     -10.652  14.769  66.222  1.00  0.00    -0.306 C  
HETATM    6  H   UNL     1     -13.063  15.508  67.125  1.00  0.00     0.000 HD 
HETATM    7  C   UNL     1     -11.877  13.856  65.649  1.00  0.00    -0.371 C  
HETATM    8  C   UNL     1      -9.987  15.083  64.837  1.00  0.00    -0.067 C  
HETATM    9  C   UNL     1     -11.665  12.474  64.927  1.00  0.00    -0.359 C  
HETATM   10  O   UNL     1     -13.036  14.302  65.614  1.00  0.00    -0.561 OA 
HETATM   11  O   UNL     1     -12.895  11.736  64.858  1.00  0.00    -0.020 OA 
HETATM   12  C   UNL     1     -10.709  11.537  65.572  1.00  0.00    -0.328 C  
HETATM   13  C   UNL     1      -9.727  10.802  64.995  1.00  0.00    -0.323 C  
HETATM   14  H   UNL     1     -12.767  10.901  64.422  1.00  0.00     0.000 HD 
HETATM   15  C   UNL     1      -8.715   9.745  65.896  1.00  0.00    -0.139 C  
HETATM   16  C   UNL     1      -9.318  11.085  63.550  1.00  0.00    -0.276 C  
HETATM   17  C   UNL     1      -7.973  10.976  66.298  1.00  0.00    -0.148 C  
HETATM   18  C   UNL     1      -9.010  14.612  68.840  1.00  0.00    -0.136 C  
HETATM   19  C   UNL     1      -9.412  15.121  70.380  1.00  0.00     0.731 C  
HETATM   20  C   UNL     1      -8.882  11.930  67.236  1.00  0.00    -0.179 C  
HETATM   21  O   UNL     1      -9.215  16.519  69.891  1.00  0.00     0.360 OA 
HETATM   22  C   UNL     1      -8.389  13.668  66.706  1.00  0.00     0.114 C  
HETATM   23  C   UNL     1     -11.812  12.164  67.919  1.00  0.00    -0.338 C  
HETATM   24  C   UNL     1     -10.672  11.448  67.050  1.00  0.00    -0.304 C  
HETATM   25  O   UNL     1      -8.651  11.659  68.630  1.00  0.00    -0.238 OA 
HETATM   26  C   UNL     1      -9.598  14.171  67.372  1.00  0.00    -0.229 C  
HETATM   27  H   UNL     1      -9.185  12.220  69.180  1.00  0.00     0.000 HD 
HETATM   28  C   UNL     1     -11.315  10.016  67.348  1.00  0.00     0.233 C  
ENDROOT
BRANCH  15  29
HETATM   29  O   UNL     1      -8.990   9.264  67.317  1.00  0.00    -0.123 OA 
BRANCH  29  30
HETATM   30  C   UNL     1      -8.422   8.129  67.853  1.00  0.00    -0.132 C  
HETATM   31  O   UNL     1      -8.043   7.193  67.162  1.00  0.00    -0.111 OA 
BRANCH  30  32
HETATM   32  C   UNL     1      -8.387   8.163  69.459  1.00  0.00    -0.122 C  
HETATM   33  O   UNL     1      -7.180   7.675  70.056  1.00  0.00    -0.068 OA 
HETATM   34  H   UNL     1      -7.160   7.695  71.005  1.00  0.00     0.000 HD 
BRANCH  32  35
HETATM   35  C   UNL     1      -9.631   7.410  70.064  1.00  0.00    -0.168 C  
BRANCH  35  36
HETATM   36  N   UNL     1      -9.156   6.399  71.047  1.00  0.00    -0.153 N  
HETATM   37  C   UNL     1      -9.332   5.104  70.742  1.00  0.00    -0.160 C  
HETATM   38  O   UNL     1     -10.001   4.668  69.880  1.00  0.00    -0.213 OA 
HETATM   39  H   UNL     1      -8.712   6.681  71.920  1.00  0.00     0.000 HD 
BRANCH  37  40
HETATM   40  O   UNL     1      -8.519   4.332  71.581  1.00  0.00    -0.096 OA 
HETATM   41  C   UNL     1      -9.154   3.711  72.711  1.00  0.00    -0.096 C  
HETATM   42  C   UNL     1     -10.259   2.742  72.250  1.00  0.00    -0.187 C  
HETATM   43  C   UNL     1      -9.673   4.759  73.707  1.00  0.00    -0.151 C  
HETATM   44  C   UNL     1      -8.053   2.887  73.398  1.00  0.00    -0.068 C  
ENDBRANCH  37  40
ENDBRANCH  35  36
BRANCH  35  45
HETATM   45  C   UNL     1     -10.836   8.167  70.648  1.00  0.00    -0.246 A  
HETATM   46  C   UNL     1     -10.921   9.553  70.836  1.00  0.00    -0.407 A  
HETATM   47  C   UNL     1     -13.145   9.361  71.837  1.00  0.00    -0.505 A  
HETATM   48  C   UNL     1     -11.948   7.404  71.088  1.00  0.00    -0.351 A  
HETATM   49  C   UNL     1     -12.067  10.142  71.419  1.00  0.00    -0.475 A  
HETATM   50  C   UNL     1     -13.083   7.986  71.673  1.00  0.00    -0.354 A  
ENDBRANCH  35  45
ENDBRANCH  32  35
ENDBRANCH  30  32
ENDBRANCH  29  30
ENDBRANCH  15  29
BRANCH  22  51
HETATM   51  O   UNL     1      -7.485  15.122  67.209  1.00  0.00    -0.195 OA 
BRANCH  51  52
HETATM   52  C   UNL     1      -6.476  16.082  66.866  1.00  0.00     0.116 C  
HETATM   53  O   UNL     1      -5.298  15.732  66.868  1.00  0.00    -0.254 OA 
BRANCH  52  54
HETATM   54  C   UNL     1      -6.676  17.744  66.631  1.00  0.00    -0.240 A  
HETATM   55  C   UNL     1      -6.840  19.976  65.453  1.00  0.00    -0.337 A  
HETATM   56  C   UNL     1      -6.917  19.998  67.822  1.00  0.00    -0.305 A  
HETATM   57  C   UNL     1      -6.803  18.565  67.797  1.00  0.00    -0.217 A  
HETATM   58  C   UNL     1      -6.719  18.539  65.459  1.00  0.00    -0.270 A  
HETATM   59  C   UNL     1      -6.941  20.730  66.630  1.00  0.00    -0.311 A  
ENDBRANCH  52  54
ENDBRANCH  51  52
ENDBRANCH  22  51
BRANCH  18  60
HETATM   60  O   UNL     1      -7.504  14.173  69.260  1.00  0.00    -0.087 OA 
BRANCH  60  61
HETATM   61  C   UNL     1      -6.667  14.483  70.364  1.00  0.00     0.036 C  
HETATM   62  C   UNL     1      -5.822  15.721  70.281  1.00  0.00    -0.126 C  
HETATM   63  O   UNL     1      -6.436  13.842  71.394  1.00  0.00     0.049 OA 
ENDBRANCH  60  61
ENDBRANCH  18  60
TORSDOF 12
ENDMDL
MODEL        8
REMARK 921   NORMALIZED FREE ENERGY PREDICTED BY IDOCK:   -5.57 KCAL/MOL
REMARK 922        TOTAL FREE ENERGY PREDICTED BY IDOCK:  -12.15 KCAL/MOL
REMARK 923 INTER-LIGAND FREE ENERGY PREDICTED BY IDOCK:   -8.76 KCAL/MOL
REMARK 924 INTRA-LIGAND FREE ENERGY PREDICTED BY IDOCK:   -3.39 KCAL/MOL
REMARK 927      BINDING AFFINITY PREDICTED BY RF-SCORE:    0.00 PKD
ROOT
HETATM    1  C   UNL     1      -9.847  15.811  68.774  1.00  0.00    -0.214 C  
HETATM    2  C   UNL     1     -10.302  16.742  67.647  1.00  0.00    -0.309 C  
HETATM    3  C   UNL     1     -11.382  15.951  66.863  1.00  0.00     0.123 C  
HETATM    4  O   UNL     1     -12.480  15.686  67.748  1.00  0.00     0.103 OA 
HETATM    5  C   UNL     1     -10.715  14.700  66.252  1.00  0.00    -0.316 C  
HETATM    6  H   UNL     1     -13.142  15.202  67.269  1.00  0.00     0.000 HD 
HETATM    7  C   UNL     1     -11.891  13.743  65.650  1.00  0.00    -0.365 C  
HETATM    8  C   UNL     1     -10.118  15.154  64.876  1.00  0.00    -0.151 C  
HETATM    9  C   UNL     1     -11.606  12.431  64.829  1.00  0.00    -0.341 C  
HETATM   10  O   UNL     1     -13.079  14.106  65.678  1.00  0.00    -0.617 OA 
HETATM   11  O   UNL     1     -12.782  11.612  64.742  1.00  0.00     0.021 OA 
HETATM   12  C   UNL     1     -10.566  11.524  65.382  1.00  0.00    -0.336 C  
HETATM   13  C   UNL     1      -9.554  10.902  64.729  1.00  0.00    -0.301 C  
HETATM   14  H   UNL     1     -12.610  10.820  64.246  1.00  0.00     0.000 HD 
HETATM   15  C   UNL     1      -8.443   9.863  65.527  1.00  0.00    -0.140 C  
HETATM   16  C   UNL     1      -9.212  11.310  63.297  1.00  0.00    -0.235 C  
HETATM   17  C   UNL     1      -7.777  11.114  65.994  1.00  0.00    -0.001 C  
HETATM   18  C   UNL     1      -8.984  14.486  68.808  1.00  0.00    -0.157 C  
HETATM   19  C   UNL     1      -9.372  14.861  70.391  1.00  0.00     1.035 C  
HETATM   20  C   UNL     1      -8.720  11.935  67.019  1.00  0.00    -0.181 C  
HETATM   21  O   UNL     1      -9.289  16.299  69.995  1.00  0.00     0.306 OA 
HETATM   22  C   UNL     1      -8.367  13.735  66.598  1.00  0.00     0.270 C  
HETATM   23  C   UNL     1     -11.636  11.911  67.795  1.00  0.00    -0.393 C  
HETATM   24  C   UNL     1     -10.476  11.339  66.849  1.00  0.00    -0.286 C  
HETATM   25  O   UNL     1      -8.426  11.588  68.384  1.00  0.00    -0.149 OA 
HETATM   26  C   UNL     1      -9.586  14.104  67.330  1.00  0.00    -0.234 C  
HETATM   27  H   UNL     1      -8.981  12.070  68.987  1.00  0.00     0.000 HD 
HETATM   28  C   UNL     1     -11.008   9.847  67.064  1.00  0.00    -0.098 C  
ENDROOT
BRANCH  15  29
HETATM   29  O   UNL     1      -8.638   9.268  66.918  1.00  0.00    -0.125 OA 
BRANCH  29  30
HETATM   30  C   UNL     1      -8.139   8.040  67.292  1.00  0.00    -0.121 C  
HETATM   31  O   UNL     1      -8.691   6.988  66.998  1.00  0.00    -0.119 OA 
BRANCH  30  32
HETATM   32  C   UNL     1      -6.817   8.166  68.195  1.00  0.00    -0.076 C  
HETATM   33  O   UNL     1      -5.679   7.435  67.721  1.00  0.00    -0.028 OA 
HETATM   34  H   UNL     1      -4.897   7.510  68.255  1.00  0.00     0.000 HD 
BRANCH  32  35
HETATM   35  C   UNL     1      -7.119   7.781  69.692  1.00  0.00    -0.063 C  
BRANCH  35  36
HETATM   36  N   UNL     1      -8.502   8.206  70.034  1.00  0.00    -0.126 N  
HETATM   37  C   UNL     1      -8.691   8.827  71.209  1.00  0.00    -0.215 C  
HETATM   38  O   UNL     1      -7.925   8.899  72.098  1.00  0.00    -0.364 OA 
HETATM   39  H   UNL     1      -9.280   8.032  69.397  1.00  0.00     0.000 HD 
BRANCH  37  40
HETATM   40  O   UNL     1      -9.941   9.456  71.187  1.00  0.00    -0.289 OA 
HETATM   41  C   UNL     1     -11.087   8.636  71.468  1.00  0.00    -0.288 C  
HETATM   42  C   UNL     1     -10.988   8.028  72.879  1.00  0.00    -0.398 C  
HETATM   43  C   UNL     1     -11.291   7.568  70.384  1.00  0.00    -0.253 C  
HETATM   44  C   UNL     1     -12.291   9.593  71.444  1.00  0.00    -0.468 C  
ENDBRANCH  37  40
ENDBRANCH  35  36
BRANCH  35  45
HETATM   45  C   UNL     1      -6.868   6.363  70.233  1.00  0.00    -0.054 A  
HETATM   46  C   UNL     1      -7.456   5.186  69.754  1.00  0.00    -0.061 A  
HETATM   47  C   UNL     1      -6.325   3.835  71.450  1.00  0.00    -0.015 A  
HETATM   48  C   UNL     1      -6.005   6.225  71.352  1.00  0.00    -0.032 A  
HETATM   49  C   UNL     1      -7.181   3.935  70.354  1.00  0.00    -0.041 A  
HETATM   50  C   UNL     1      -5.737   4.986  71.952  1.00  0.00    -0.012 A  
ENDBRANCH  35  45
ENDBRANCH  32  35
ENDBRANCH  30  32
ENDBRANCH  29  30
ENDBRANCH  15  29
BRANCH  22  51
HETATM   51  O   UNL     1      -7.551  15.213  67.176  1.00  0.00    -0.205 OA 
BRANCH  51  52
HETATM   52  C   UNL     1      -6.691  16.313  66.846  1.00  0.00    -0.130 C  
HETATM   53  O   UNL     1      -5.500  16.094  66.637  1.00  0.00    -0.243 OA 
BRANCH  52  54
HETATM   54  C   UNL     1      -7.067  17.960  66.889  1.00  0.00    -0.212 A  
HETATM   55  C   UNL     1      -7.784  20.256  66.107  1.00  0.00    -0.225 A  
HETATM   56  C   UNL     1      -7.006  20.070  68.338  1.00  0.00    -0.330 A  
HETATM   57  C   UNL     1      -6.818  18.664  68.111  1.00  0.00    -0.243 A  
HETATM   58  C   UNL     1      -7.578  18.843  65.905  1.00  0.00    -0.209 A  
HETATM   59  C   UNL     1      -7.503  20.894  67.323  1.00  0.00    -0.345 A  
ENDBRANCH  52  54
ENDBRANCH  51  52
ENDBRANCH  22  51
BRANCH  18  60
HETATM   60  O   UNL     1      -7.439  14.130  69.157  1.00  0.00    -0.112 OA 
BRANCH  60  61
HETATM   61  C   UNL     1      -6.579  14.455  70.238  1.00  0.00    -0.076 C  
HETATM   62  C   UNL     1      -5.805  15.740  70.161  1.00  0.00    -0.149 C  
HETATM   63  O   UNL     1      -6.277  13.802  71.242  1.00  0.00    -0.170 OA 
ENDBRANCH  60  61
ENDBRANCH  18  60
TORSDOF 12
ENDMDL
MODEL        9
REMARK 921   NORMALIZED FREE ENERGY PREDICTED BY IDOCK:   -5.56 KCAL/MOL
REMARK 922        TOTAL FREE ENERGY PREDICTED BY IDOCK:  -12.13 KCAL/MOL
REMARK 923 INTER-LIGAND FREE ENERGY PREDICTED BY IDOCK:  -10.41 KCAL/MOL
REMARK 924 INTRA-LIGAND FREE ENERGY PREDICTED BY IDOCK:   -1.72 KCAL/MOL
REMARK 927      BINDING AFFINITY PREDICTED BY RF-SCORE:    0.00 PKD
ROOT
HETATM    1  C   UNL     1     -10.603  12.075  65.343  1.00  0.00    -0.278 C  
HETATM    2  C   UNL     1      -9.638  12.261  64.168  1.00  0.00     0.068 C  
HETATM    3  C   UNL     1      -9.170  10.832  63.785  1.00  0.00    -0.244 C  
HETATM    4  O   UNL     1     -10.316  10.079  63.360  1.00  0.00    -0.282 OA 
HETATM    5  C   UNL     1      -8.402  10.238  64.985  1.00  0.00    -0.169 C  
HETATM    6  H   UNL     1     -10.030   9.204  63.125  1.00  0.00     0.000 HD 
HETATM    7  C   UNL     1      -8.135   8.657  64.682  1.00  0.00    -0.156 C  
HETATM    8  C   UNL     1      -6.917  10.714  64.829  1.00  0.00     0.156 C  
HETATM    9  C   UNL     1      -7.266   7.731  65.611  1.00  0.00    -0.068 C  
HETATM   10  O   UNL     1      -8.478   8.153  63.600  1.00  0.00    -0.047 OA 
HETATM   11  O   UNL     1      -7.495   6.345  65.315  1.00  0.00    -0.074 OA 
HETATM   12  C   UNL     1      -7.520   7.843  67.071  1.00  0.00    -0.092 C  
HETATM   13  C   UNL     1      -6.620   7.929  68.081  1.00  0.00    -0.059 C  
HETATM   14  H   UNL     1      -6.970   5.786  65.876  1.00  0.00     0.000 HD 
HETATM   15  C   UNL     1      -7.092   8.035  69.730  1.00  0.00    -0.060 C  
HETATM   16  C   UNL     1      -5.149   8.195  67.765  1.00  0.00    -0.033 C  
HETATM   17  C   UNL     1      -7.365   9.474  69.446  1.00  0.00    -0.084 C  
HETATM   18  C   UNL     1     -10.403  11.672  66.859  1.00  0.00    -0.220 C  
HETATM   19  C   UNL     1     -12.033  11.979  66.642  1.00  0.00     0.001 C  
HETATM   20  C   UNL     1      -8.606   9.646  68.424  1.00  0.00    -0.119 C  
HETATM   21  O   UNL     1     -11.630  13.019  65.649  1.00  0.00    -0.325 OA 
HETATM   22  C   UNL     1      -8.108  11.125  67.370  1.00  0.00    -0.132 C  
HETATM   23  C   UNL     1     -10.132   7.863  66.527  1.00  0.00    -0.246 C  
HETATM   24  C   UNL     1      -8.909   8.030  67.549  1.00  0.00    -0.129 C  
HETATM   25  O   UNL     1      -9.843   9.829  69.135  1.00  0.00    -0.171 OA 
HETATM   26  C   UNL     1      -9.139  10.731  66.400  1.00  0.00    -0.188 C  
HETATM   27  H   UNL     1     -10.572   9.929  68.534  1.00  0.00     0.000 HD 
HETATM   28  C   UNL     1      -9.257   6.624  68.225  1.00  0.00    -0.121 C  
ENDROOT
BRANCH  15  29
HETATM   29  O   UNL     1      -8.484   7.720  70.269  1.00  0.00    -0.129 OA 
BRANCH  29  30
HETATM   30  C   UNL     1      -8.901   8.070  71.533  1.00  0.00    -0.143 C  
HETATM   31  O   UNL     1      -9.430   9.147  71.778  1.00  0.00    -0.312 OA 
BRANCH  30  32
HETATM   32  C   UNL     1      -8.552   6.946  72.626  1.00  0.00    -0.120 C  
HETATM   33  O   UNL     1      -7.166   6.840  72.974  1.00  0.00    -0.076 OA 
HETATM   34  H   UNL     1      -6.960   6.175  73.621  1.00  0.00     0.000 HD 
BRANCH  32  35
HETATM   35  C   UNL     1      -9.104   5.539  72.182  1.00  0.00    -0.143 C  
BRANCH  35  36
HETATM   36  N   UNL     1     -10.558   5.656  71.892  1.00  0.00    -0.225 N  
HETATM   37  C   UNL     1     -11.415   5.407  72.894  1.00  0.00    -0.275 C  
HETATM   38  O   UNL     1     -11.163   4.907  73.928  1.00  0.00    -0.263 OA 
HETATM   39  H   UNL     1     -10.892   5.918  70.964  1.00  0.00     0.000 HD 
BRANCH  37  40
HETATM   40  O   UNL     1     -12.673   5.911  72.544  1.00  0.00    -0.003 OA 
HETATM   41  C   UNL     1     -12.696   7.125  71.775  1.00  0.00    -0.339 C  
HETATM   42  C   UNL     1     -11.974   6.929  70.429  1.00  0.00    -0.312 C  
HETATM   43  C   UNL     1     -12.130   8.307  72.576  1.00  0.00    -0.400 C  
HETATM   44  C   UNL     1     -14.181   7.397  71.484  1.00  0.00    -0.571 C  
ENDBRANCH  37  40
ENDBRANCH  35  36
BRANCH  35  45
HETATM   45  C   UNL     1      -8.425   4.711  71.077  1.00  0.00    -0.115 A  
HETATM   46  C   UNL     1      -7.068   4.758  70.733  1.00  0.00    -0.044 A  
HETATM   47  C   UNL     1      -7.389   3.143  68.924  1.00  0.00    -0.049 A  
HETATM   48  C   UNL     1      -9.243   3.855  70.294  1.00  0.00    -0.215 A  
HETATM   49  C   UNL     1      -6.556   3.977  69.671  1.00  0.00    -0.033 A  
HETATM   50  C   UNL     1      -8.738   3.085  69.235  1.00  0.00    -0.134 A  
ENDBRANCH  35  45
ENDBRANCH  32  35
ENDBRANCH  30  32
ENDBRANCH  29  30
ENDBRANCH  15  29
BRANCH  22  51
HETATM   51  O   UNL     1      -8.449  12.849  67.061  1.00  0.00    -0.192 OA 
BRANCH  51  52
HETATM   52  C   UNL     1      -7.946  14.192  67.085  1.00  0.00    -0.075 C  
HETATM   53  O   UNL     1      -6.783  14.384  67.434  1.00  0.00    -0.256 OA 
BRANCH  52  54
HETATM   54  C   UNL     1      -8.821  15.622  66.871  1.00  0.00    -0.279 A  
HETATM   55  C   UNL     1     -10.497  17.264  65.928  1.00  0.00    -0.267 A  
HETATM   56  C   UNL     1      -8.992  18.080  67.567  1.00  0.00    -0.249 A  
HETATM   57  C   UNL     1      -8.426  16.761  67.643  1.00  0.00    -0.197 A  
HETATM   58  C   UNL     1      -9.905  15.953  66.020  1.00  0.00    -0.366 A  
HETATM   59  C   UNL     1     -10.054  18.348  66.697  1.00  0.00    -0.399 A  
ENDBRANCH  52  54
ENDBRANCH  51  52
ENDBRANCH  22  51
BRANCH  18  60
HETATM   60  O   UNL     1     -10.327  12.482  68.264  1.00  0.00    -0.224 OA 
BRANCH  60  61
HETATM   61  C   UNL     1     -11.305  13.058  69.116  1.00  0.00    -0.273 C  
HETATM   62  C   UNL     1     -11.466  14.551  69.094  1.00  0.00    -0.324 C  
HETATM   63  O   UNL     1     -12.024  12.535  69.973  1.00  0.00    -0.332 OA 
ENDBRANCH  60  61
ENDBRANCH  18  60
TORSDOF 12
ENDMDL
MODEL       10
REMARK 921   NORMALIZED FREE ENERGY PREDICTED BY IDOCK:   -5.36 KCAL/MOL
REMARK 922        TOTAL FREE ENERGY PREDICTED BY IDOCK:  -11.78 KCAL/MOL
REMARK 923 INTER-LIGAND FREE ENERGY PREDICTED BY IDOCK:   -9.66 KCAL/MOL
REMARK 924 INTRA-LIGAND FREE ENERGY PREDICTED BY IDOCK:   -2.12 KCAL/MOL
REMARK 927      BINDING AFFINITY PREDICTED BY RF-SCORE:    0.00 PKD
ROOT
HETATM    1  C   UNL     1      -9.149  14.862  66.405  1.00  0.00    -0.258 C  
HETATM    2  C   UNL     1      -8.478  15.668  67.522  1.00  0.00    -0.182 C  
HETATM    3  C   UNL     1      -7.232  14.843  67.941  1.00  0.00    -0.153 C  
HETATM    4  O   UNL     1      -6.352  14.749  66.811  1.00  0.00     0.104 OA 
HETATM    5  C   UNL     1      -7.718  13.493  68.509  1.00  0.00    -0.125 C  
HETATM    6  H   UNL     1      -5.589  14.245  67.067  1.00  0.00     0.000 HD 
HETATM    7  C   UNL     1      -6.415  12.531  68.709  1.00  0.00    -0.084 C  
HETATM    8  C   UNL     1      -8.006  13.739  70.030  1.00  0.00     1.601 C  
HETATM    9  C   UNL     1      -6.479  11.114  69.391  1.00  0.00    -0.100 C  
HETATM   10  O   UNL     1      -5.272  12.957  68.474  1.00  0.00    -0.057 OA 
HETATM   11  O   UNL     1      -5.294  10.354  69.111  1.00  0.00    -0.039 OA 
HETATM   12  C   UNL     1      -7.594  10.230  68.960  1.00  0.00    -0.102 C  
HETATM   13  C   UNL     1      -8.421   9.479  69.728  1.00  0.00    -0.185 C  
HETATM   14  H   UNL     1      -5.333   9.498  69.523  1.00  0.00     0.000 HD 
HETATM   15  C   UNL     1      -9.656   8.490  69.058  1.00  0.00    -0.167 C  
HETATM   16  C   UNL     1      -8.447   9.687  71.242  1.00  0.00     0.700 C  
HETATM   17  C   UNL     1     -10.439   9.753  68.918  1.00  0.00    -0.233 C  
HETATM   18  C   UNL     1      -9.966  13.509  66.383  1.00  0.00    -0.295 C  
HETATM   19  C   UNL     1      -9.948  14.097  64.819  1.00  0.00    -0.008 C  
HETATM   20  C   UNL     1      -9.766  10.743  67.831  1.00  0.00    -0.167 C  
HETATM   21  O   UNL     1      -9.975  15.469  65.411  1.00  0.00    -0.337 OA 
HETATM   22  C   UNL     1     -10.060  12.456  68.554  1.00  0.00    -0.185 C  
HETATM   23  C   UNL     1      -7.095  10.970  66.446  1.00  0.00    -0.120 C  
HETATM   24  C   UNL     1      -8.002  10.224  67.536  1.00  0.00    -0.106 C  
HETATM   25  O   UNL     1     -10.347  10.555  66.528  1.00  0.00    -0.233 OA 
HETATM   26  C   UNL     1      -9.042  12.978  67.632  1.00  0.00    -0.198 C  
HETATM   27  H   UNL     1      -9.951  11.137  65.890  1.00  0.00     0.000 HD 
HETATM   28  C   UNL     1      -7.495   8.802  67.014  1.00  0.00    -0.091 C  
ENDROOT
BRANCH  15  29
HETATM   29  O   UNL     1      -9.760   8.085  67.591  1.00  0.00    -0.147 OA 
BRANCH  29  30
HETATM   30  C   UNL     1     -10.288   6.883  67.175  1.00  0.00    -0.269 C  
HETATM   31  O   UNL     1     -11.390   6.795  66.648  1.00  0.00    -0.102 OA 
BRANCH  30  32
HETATM   32  C   UNL     1      -9.332   5.641  67.523  1.00  0.00    -0.109 C  
HETATM   33  O   UNL     1      -9.088   4.733  66.441  1.00  0.00    -0.114 OA 
HETATM   34  H   UNL     1      -8.522   3.999  66.647  1.00  0.00     0.000 HD 
BRANCH  32  35
HETATM   35  C   UNL     1      -9.867   4.852  68.777  1.00  0.00    -0.161 C  
BRANCH  35  36
HETATM   36  N   UNL     1      -8.808   3.925  69.257  1.00  0.00    -0.085 N  
HETATM   37  C   UNL     1      -8.723   2.719  68.674  1.00  0.00    -0.090 C  
HETATM   38  O   UNL     1      -9.517   2.225  67.961  1.00  0.00    -0.207 OA 
HETATM   39  H   UNL     1      -8.168   4.196  70.004  1.00  0.00     0.000 HD 
BRANCH  37  40
HETATM   40  O   UNL     1      -7.482   2.154  68.989  1.00  0.00    -0.043 OA 
HETATM   41  C   UNL     1      -6.394   2.433  68.092  1.00  0.00    -0.029 C  
HETATM   42  C   UNL     1      -6.121   3.947  68.023  1.00  0.00    -0.032 C  
HETATM   43  C   UNL     1      -6.640   1.820  66.705  1.00  0.00    -0.031 C  
HETATM   44  C   UNL     1      -5.164   1.754  68.716  1.00  0.00    -0.012 C  
ENDBRANCH  37  40
ENDBRANCH  35  36
BRANCH  35  45
HETATM   45  C   UNL     1     -10.504   5.571  69.979  1.00  0.00    -0.373 A  
HETATM   46  C   UNL     1     -11.794   6.117  70.018  1.00  0.00     0.128 A  
HETATM   47  C   UNL     1     -11.459   6.947  72.295  1.00  0.00    -0.313 A  
HETATM   48  C   UNL     1      -9.709   5.750  71.141  1.00  0.00    -0.210 A  
HETATM   49  C   UNL     1     -12.266   6.792  71.168  1.00  0.00    -0.413 A  
HETATM   50  C   UNL     1     -10.174   6.426  72.278  1.00  0.00    -0.205 A  
ENDBRANCH  35  45
ENDBRANCH  32  35
ENDBRANCH  30  32
ENDBRANCH  29  30
ENDBRANCH  15  29
BRANCH  22  51
HETATM   51  O   UNL     1     -11.019  13.950  68.369  1.00  0.00    -0.237 OA 
BRANCH  51  52
HETATM   52  C   UNL     1     -11.591  15.094  69.019  1.00  0.00    -0.330 C  
HETATM   53  O   UNL     1     -11.538  16.185  68.455  1.00  0.00    -0.377 OA 
BRANCH  52  54
HETATM   54  C   UNL     1     -12.185  15.189  70.598  1.00  0.00    -0.401 A  
HETATM   55  C   UNL     1     -13.828  15.261  72.519  1.00  0.00    -0.626 A  
HETATM   56  C   UNL     1     -11.543  15.620  73.039  1.00  0.00    -0.346 A  
HETATM   57  C   UNL     1     -11.242  15.441  71.645  1.00  0.00    -0.386 A  
HETATM   58  C   UNL     1     -13.497  15.093  71.126  1.00  0.00    -0.533 A  
HETATM   59  C   UNL     1     -12.862  15.526  73.499  1.00  0.00    -0.687 A  
ENDBRANCH  52  54
ENDBRANCH  51  52
ENDBRANCH  22  51
BRANCH  18  60
HETATM   60  O   UNL     1     -11.541  13.118  66.333  1.00  0.00    -0.317 OA 
BRANCH  60  61
HETATM   61  C   UNL     1     -12.548  13.236  65.340  1.00  0.00    -0.468 C  
HETATM   62  C   UNL     1     -12.636  12.160  64.296  1.00  0.00    -0.432 C  
HETATM   63  O   UNL     1     -13.349  14.150  65.120  1.00  0.00    -0.684 OA 
ENDBRANCH  60  61
ENDBRANCH  18  60
TORSDOF 12
ENDMDL
MODEL       11
REMARK 921   NORMALIZED FREE ENERGY PREDICTED BY IDOCK:   -5.22 KCAL/MOL
REMARK 922        TOTAL FREE ENERGY PREDICTED BY IDOCK:  -11.55 KCAL/MOL
REMARK 923 INTER-LIGAND FREE ENERGY PREDICTED BY IDOCK:   -9.01 KCAL/MOL
REMARK 924 INTRA-LIGAND FREE ENERGY PREDICTED BY IDOCK:   -2.54 KCAL/MOL
REMARK 927      BINDING AFFINITY PREDICTED BY RF-SCORE:    0.00 PKD
ROOT
HETATM    1  C   UNL     1     -11.525  13.128  65.634  1.00  0.00    -0.323 C  
HETATM    2  C   UNL     1     -10.977  13.287  64.213  1.00  0.00    -0.418 C  
HETATM    3  C   UNL     1     -10.508  11.871  63.786  1.00  0.00    -0.423 C  
HETATM    4  O   UNL     1     -11.651  11.002  63.773  1.00  0.00    -0.280 OA 
HETATM    5  C   UNL     1      -9.365  11.437  64.728  1.00  0.00    -0.118 C  
HETATM    6  H   UNL     1     -11.365  10.135  63.511  1.00  0.00     0.000 HD 
HETATM    7  C   UNL     1      -9.049   9.861  64.447  1.00  0.00    -0.254 C  
HETATM    8  C   UNL     1      -8.046  12.009  64.102  1.00  0.00     2.655 C  
HETATM    9  C   UNL     1      -7.858   9.083  65.118  1.00  0.00    -0.108 C  
HETATM   10  O   UNL     1      -9.649   9.245  63.550  1.00  0.00     0.477 OA 
HETATM   11  O   UNL     1      -8.030   7.663  64.984  1.00  0.00    -0.119 OA 
HETATM   12  C   UNL     1      -7.676   9.295  66.578  1.00  0.00    -0.093 C  
HETATM   13  C   UNL     1      -6.529   9.531  67.261  1.00  0.00    -0.070 C  
HETATM   14  H   UNL     1      -7.311   7.193  65.390  1.00  0.00     0.000 HD 
HETATM   15  C   UNL     1      -6.496   9.736  68.966  1.00  0.00    -0.045 C  
HETATM   16  C   UNL     1      -5.251   9.880  66.498  1.00  0.00    -0.043 C  
HETATM   17  C   UNL     1      -6.979  11.123  68.698  1.00  0.00    -0.081 C  
HETATM   18  C   UNL     1     -10.846  12.867  67.038  1.00  0.00    -0.260 C  
HETATM   19  C   UNL     1     -12.487  13.032  67.309  1.00  0.00     0.373 C  
HETATM   20  C   UNL     1      -8.478  11.117  68.093  1.00  0.00    -0.138 C  
HETATM   21  O   UNL     1     -12.501  14.014  66.184  1.00  0.00    -0.467 OA 
HETATM   22  C   UNL     1      -8.461  12.537  66.858  1.00  0.00    -0.130 C  
HETATM   23  C   UNL     1     -10.320   9.074  66.852  1.00  0.00    -0.324 C  
HETATM   24  C   UNL     1      -8.871   9.416  67.444  1.00  0.00    -0.135 C  
HETATM   25  O   UNL     1      -9.459  11.264  69.136  1.00  0.00    -0.394 OA 
HETATM   26  C   UNL     1      -9.691  11.989  66.270  1.00  0.00    -0.251 C  
HETATM   27  H   UNL     1     -10.340  11.260  68.780  1.00  0.00     0.000 HD 
HETATM   28  C   UNL     1      -8.865   8.049  68.272  1.00  0.00    -0.133 C  
ENDROOT
BRANCH  15  29
HETATM   29  O   UNL     1      -7.628   9.364  69.919  1.00  0.00    -0.082 OA 
BRANCH  29  30
HETATM   30  C   UNL     1      -7.445   8.594  71.046  1.00  0.00    -0.090 C  
HETATM   31  O   UNL     1      -6.458   7.887  71.207  1.00  0.00    -0.037 OA 
BRANCH  30  32
HETATM   32  C   UNL     1      -8.688   8.686  72.058  1.00  0.00    -0.165 C  
HETATM   33  O   UNL     1      -8.355   8.580  73.448  1.00  0.00    -0.374 OA 
HETATM   34  H   UNL     1      -9.091   8.635  74.047  1.00  0.00     0.000 HD 
BRANCH  32  35
HETATM   35  C   UNL     1      -9.794   7.628  71.688  1.00  0.00    -0.162 C  
BRANCH  35  36
HETATM   36  N   UNL     1      -9.582   6.398  72.496  1.00  0.00    -0.153 N  
HETATM   37  C   UNL     1      -9.253   5.272  71.844  1.00  0.00    -0.138 C  
HETATM   38  O   UNL     1      -9.310   5.089  70.684  1.00  0.00    -0.146 OA 
HETATM   39  H   UNL     1      -9.681   6.410  73.511  1.00  0.00     0.000 HD 
BRANCH  37  40
HETATM   40  O   UNL     1      -8.750   4.348  72.767  1.00  0.00    -0.107 OA 
HETATM   41  C   UNL     1      -9.671   3.372  73.279  1.00  0.00    -0.111 C  
HETATM   42  C   UNL     1     -10.235   2.505  72.138  1.00  0.00    -0.171 C  
HETATM   43  C   UNL     1     -10.779   4.031  74.115  1.00  0.00    -0.276 C  
HETATM   44  C   UNL     1      -8.838   2.466  74.201  1.00  0.00    -0.076 C  
ENDBRANCH  37  40
ENDBRANCH  35  36
BRANCH  35  45
HETATM   45  C   UNL     1     -11.291   7.985  71.680  1.00  0.00    -0.306 A  
HETATM   46  C   UNL     1     -11.832   9.258  71.903  1.00  0.00    -0.426 A  
HETATM   47  C   UNL     1     -14.117   8.409  71.708  1.00  0.00    -0.509 A  
HETATM   48  C   UNL     1     -12.222   6.932  71.482  1.00  0.00    -0.415 A  
HETATM   49  C   UNL     1     -13.231   9.466  71.910  1.00  0.00    -0.507 A  
HETATM   50  C   UNL     1     -13.610   7.136  71.496  1.00  0.00    -0.408 A  
ENDBRANCH  35  45
ENDBRANCH  32  35
ENDBRANCH  30  32
ENDBRANCH  29  30
ENDBRANCH  15  29
BRANCH  22  51
HETATM   51  O   UNL     1      -9.043  14.199  66.570  1.00  0.00    -0.246 OA 
BRANCH  51  52
HETATM   52  C   UNL     1      -8.688  15.577  66.388  1.00  0.00    -0.298 C  
HETATM   53  O   UNL     1      -9.217  16.211  65.478  1.00  0.00    -0.377 OA 
BRANCH  52  54
HETATM   54  C   UNL     1      -7.455  16.432  67.166  1.00  0.00    -0.227 A  
HETATM   55  C   UNL     1      -5.240  17.593  67.544  1.00  0.00    -0.140 A  
HETATM   56  C   UNL     1      -6.676  17.371  69.417  1.00  0.00    -0.187 A  
HETATM   57  C   UNL     1      -7.625  16.717  68.559  1.00  0.00    -0.212 A  
HETATM   58  C   UNL     1      -6.208  16.927  66.708  1.00  0.00    -0.228 A  
HETATM   59  C   UNL     1      -5.455  17.827  68.909  1.00  0.00    -0.174 A  
ENDBRANCH  52  54
ENDBRANCH  51  52
ENDBRANCH  22  51
BRANCH  18  60
HETATM   60  O   UNL     1     -10.433  13.793  68.306  1.00  0.00    -0.235 OA 
BRANCH  60  61
HETATM   61  C   UNL     1     -11.177  14.544  69.252  1.00  0.00    -0.281 C  
HETATM   62  C   UNL     1     -11.350  16.015  69.006  1.00  0.00    -0.363 C  
HETATM   63  O   UNL     1     -11.662  14.205  70.337  1.00  0.00    -0.285 OA 
ENDBRANCH  60  61
ENDBRANCH  18  60
TORSDOF 12
ENDMDL
MODEL       12
REMARK 921   NORMALIZED FREE ENERGY PREDICTED BY IDOCK:   -5.17 KCAL/MOL
REMARK 922        TOTAL FREE ENERGY PREDICTED BY IDOCK:  -11.47 KCAL/MOL
REMARK 923 INTER-LIGAND FREE ENERGY PREDICTED BY IDOCK:   -8.26 KCAL/MOL
REMARK 924 INTRA-LIGAND FREE ENERGY PREDICTED BY IDOCK:   -3.21 KCAL/MOL
REMARK 927      BINDING AFFINITY PREDICTED BY RF-SCORE:    0.00 PKD
ROOT
HETATM    1  C   UNL     1      -9.840   4.954  67.696  1.00  0.00    -0.161 C  
HETATM    2  C   UNL     1      -9.451   3.977  68.809  1.00  0.00    -0.226 C  
HETATM    3  C   UNL     1      -9.716   4.733  70.139  1.00  0.00    -0.217 C  
HETATM    4  O   UNL     1     -11.118   5.029  70.218  1.00  0.00     0.253 OA 
HETATM    5  C   UNL     1      -8.782   5.960  70.189  1.00  0.00    -0.141 C  
HETATM    6  H   UNL     1     -11.281   5.492  71.032  1.00  0.00     0.000 HD 
HETATM    7  C   UNL     1      -9.235   6.889  71.452  1.00  0.00    -0.156 C  
HETATM    8  C   UNL     1      -7.431   5.454  70.803  1.00  0.00    -0.080 C  
HETATM    9  C   UNL     1      -8.444   8.167  71.916  1.00  0.00    -0.150 C  
HETATM   10  O   UNL     1     -10.148   6.524  72.211  1.00  0.00    -0.176 OA 
HETATM   11  O   UNL     1      -9.244   8.978  72.791  1.00  0.00    -0.132 OA 
HETATM   12  C   UNL     1      -8.014   9.099  70.841  1.00  0.00    -0.192 C  
HETATM   13  C   UNL     1      -6.810   9.698  70.673  1.00  0.00    -0.119 C  
HETATM   14  H   UNL     1      -8.766   9.750  73.071  1.00  0.00     0.000 HD 
HETATM   15  C   UNL     1      -6.487  10.772  69.372  1.00  0.00    -0.076 C  
HETATM   16  C   UNL     1      -5.611   9.234  71.500  1.00  0.00    -0.066 C  
HETATM   17  C   UNL     1      -6.330   9.542  68.540  1.00  0.00    -0.048 C  
HETATM   18  C   UNL     1      -9.186   6.282  67.139  1.00  0.00    -0.122 C  
HETATM   19  C   UNL     1     -10.538   5.970  66.205  1.00  0.00     0.045 C  
HETATM   20  C   UNL     1      -7.737   8.761  68.378  1.00  0.00    -0.096 C  
HETATM   21  O   UNL     1     -10.247   4.517  66.399  1.00  0.00    -0.246 OA 
HETATM   22  C   UNL     1      -7.237   6.946  68.399  1.00  0.00    -0.088 C  
HETATM   23  C   UNL     1     -10.428   8.806  69.742  1.00  0.00    -0.222 C  
HETATM   24  C   UNL     1      -8.919   9.343  69.694  1.00  0.00    -0.181 C  
HETATM   25  O   UNL     1      -8.418   9.163  67.176  1.00  0.00    -0.119 OA 
HETATM   26  C   UNL     1      -8.643   6.602  68.654  1.00  0.00    -0.125 C  
HETATM   27  H   UNL     1      -9.244   8.703  67.081  1.00  0.00     0.000 HD 
HETATM   28  C   UNL     1      -9.423  10.840  69.935  1.00  0.00     0.508 C  
ENDROOT
BRANCH  15  29
HETATM   29  O   UNL     1      -7.543  11.421  68.484  1.00  0.00    -0.113 OA 
BRANCH  29  30
HETATM   30  C   UNL     1      -7.273  12.465  67.628  1.00  0.00    -0.130 C  
HETATM   31  O   UNL     1      -6.784  12.297  66.518  1.00  0.00     0.135 OA 
BRANCH  30  32
HETATM   32  C   UNL     1      -7.607  13.894  68.281  1.00  0.00    -0.130 C  
HETATM   33  O   UNL     1      -7.443  13.972  69.702  1.00  0.00    -0.342 OA 
HETATM   34  H   UNL     1      -7.640  14.817  70.088  1.00  0.00     0.000 HD 
BRANCH  32  35
HETATM   35  C   UNL     1      -9.052  14.373  67.879  1.00  0.00    -0.187 C  
BRANCH  35  36
HETATM   36  N   UNL     1      -9.564  13.507  66.783  1.00  0.00    -0.260 N  
HETATM   37  C   UNL     1     -10.091  14.111  65.706  1.00  0.00    -0.333 C  
HETATM   38  O   UNL     1     -10.383  15.246  65.608  1.00  0.00    -0.311 OA 
HETATM   39  H   UNL     1      -9.516  12.491  66.848  1.00  0.00     0.000 HD 
BRANCH  37  40
HETATM   40  O   UNL     1     -10.173  13.179  64.665  1.00  0.00    -0.349 OA 
HETATM   41  C   UNL     1     -11.195  12.174  64.771  1.00  0.00    -0.323 C  
HETATM   42  C   UNL     1     -12.592  12.821  64.818  1.00  0.00    -0.518 C  
HETATM   43  C   UNL     1     -10.941  11.241  65.965  1.00  0.00    -0.237 C  
HETATM   44  C   UNL     1     -11.094  11.349  63.477  1.00  0.00    -0.373 C  
ENDBRANCH  37  40
ENDBRANCH  35  36
BRANCH  35  45
HETATM   45  C   UNL     1     -10.160  14.585  68.926  1.00  0.00    -0.224 A  
HETATM   46  C   UNL     1     -10.236  15.648  69.834  1.00  0.00    -0.297 A  
HETATM   47  C   UNL     1     -12.265  14.737  70.852  1.00  0.00    -0.384 A  
HETATM   48  C   UNL     1     -11.173  13.597  69.027  1.00  0.00    -0.316 A  
HETATM   49  C   UNL     1     -11.283  15.725  70.783  1.00  0.00    -0.404 A  
HETATM   50  C   UNL     1     -12.208  13.667  69.972  1.00  0.00    -0.395 A  
ENDBRANCH  35  45
ENDBRANCH  32  35
ENDBRANCH  30  32
ENDBRANCH  29  30
ENDBRANCH  15  29
BRANCH  22  51
HETATM   51  O   UNL     1      -7.049   5.495  67.377  1.00  0.00    -0.070 OA 
BRANCH  51  52
HETATM   52  C   UNL     1      -6.199   4.405  66.990  1.00  0.00    -0.036 C  
HETATM   53  O   UNL     1      -5.251   4.106  67.712  1.00  0.00    -0.010 OA 
BRANCH  52  54
HETATM   54  C   UNL     1      -6.213   3.562  65.525  1.00  0.00    -0.031 A  
HETATM   55  C   UNL     1      -5.370   2.355  63.469  1.00  0.00    -0.008 A  
HETATM   56  C   UNL     1      -7.704   2.748  63.609  1.00  0.00    -0.068 A  
HETATM   57  C   UNL     1      -7.479   3.376  64.882  1.00  0.00    -0.073 A  
HETATM   58  C   UNL     1      -5.174   2.997  64.745  1.00  0.00    -0.009 A  
HETATM   59  C   UNL     1      -6.634   2.218  62.879  1.00  0.00    -0.021 A  
ENDBRANCH  52  54
ENDBRANCH  51  52
ENDBRANCH  22  51
BRANCH  18  60
HETATM   60  O   UNL     1      -8.257   6.657  65.861  1.00  0.00    -0.118 OA 
BRANCH  60  61
HETATM   61  C   UNL     1      -8.403   7.560  64.776  1.00  0.00    -0.006 C  
HETATM   62  C   UNL     1      -7.451   7.434  63.622  1.00  0.00    -0.104 C  
HETATM   63  O   UNL     1      -9.155   8.531  64.642  1.00  0.00     0.115 OA 
ENDBRANCH  60  61
ENDBRANCH  18  60
TORSDOF 12
ENDMDL
MODEL       13
REMARK 921   NORMALIZED FREE ENERGY PREDICTED BY IDOCK:   -5.09 KCAL/MOL
REMARK 922        TOTAL FREE ENERGY PREDICTED BY IDOCK:  -11.32 KCAL/MOL
REMARK 923 INTER-LIGAND FREE ENERGY PREDICTED BY IDOCK:   -9.91 KCAL/MOL
REMARK 924 INTRA-LIGAND FREE ENERGY PREDICTED BY IDOCK:   -1.41 KCAL/MOL
REMARK 927      BINDING AFFINITY PREDICTED BY RF-SCORE:    0.00 PKD
ROOT
HETATM    1  C   UNL     1      -6.782   5.738  69.413  1.00  0.00    -0.060 C  
HETATM    2  C   UNL     1      -7.037   4.698  68.318  1.00  0.00    -0.057 C  
HETATM    3  C   UNL     1      -6.551   5.354  66.999  1.00  0.00    -0.053 C  
HETATM    4  O   UNL     1      -5.143   5.607  67.112  1.00  0.00    -0.004 OA 
HETATM    5  C   UNL     1      -7.423   6.599  66.731  1.00  0.00    -0.079 C  
HETATM    6  H   UNL     1      -4.845   6.009  66.304  1.00  0.00     0.000 HD 
HETATM    7  C   UNL     1      -6.755   7.427  65.494  1.00  0.00    -0.048 C  
HETATM    8  C   UNL     1      -8.685   6.087  65.954  1.00  0.00    -0.157 C  
HETATM    9  C   UNL     1      -7.422   8.691  64.836  1.00  0.00    -0.093 C  
HETATM   10  O   UNL     1      -5.753   6.987  64.905  1.00  0.00    -0.031 OA 
HETATM   11  O   UNL     1      -6.473   9.419  64.042  1.00  0.00    -0.089 OA 
HETATM   12  C   UNL     1      -7.972   9.705  65.773  1.00  0.00    -0.109 C  
HETATM   13  C   UNL     1      -9.166  10.345  65.720  1.00  0.00    -0.210 C  
HETATM   14  H   UNL     1      -6.876  10.183  63.644  1.00  0.00     0.000 HD 
HETATM   15  C   UNL     1      -9.640  11.513  66.887  1.00  0.00    -0.187 C  
HETATM   16  C   UNL     1     -10.245   9.857  64.754  1.00  0.00     0.224 C  
HETATM   17  C   UNL     1      -9.961  10.348  67.762  1.00  0.00    -0.203 C  
HETATM   18  C   UNL     1      -7.464   7.117  69.781  1.00  0.00    -0.097 C  
HETATM   19  C   UNL     1      -6.277   6.834  70.924  1.00  0.00    -0.040 C  
HETATM   20  C   UNL     1      -8.624   9.543  68.183  1.00  0.00    -0.120 C  
HETATM   21  O   UNL     1      -6.588   5.380  70.782  1.00  0.00    -0.036 OA 
HETATM   22  C   UNL     1      -9.179   7.744  68.203  1.00  0.00    -0.138 C  
HETATM   23  C   UNL     1      -5.760   9.425  67.238  1.00  0.00    -0.041 C  
HETATM   24  C   UNL     1      -7.239  10.003  67.025  1.00  0.00    -0.090 C  
HETATM   25  O   UNL     1      -8.114  10.008  69.446  1.00  0.00    -0.120 OA 
HETATM   26  C   UNL     1      -7.765   7.347  68.184  1.00  0.00    -0.120 C  
HETATM   27  H   UNL     1      -7.328   9.534  69.693  1.00  0.00     0.000 HD 
HETATM   28  C   UNL     1      -6.652  11.467  66.767  1.00  0.00    -0.136 C  
ENDROOT
BRANCH  15  29
HETATM   29  O   UNL     1      -8.703  12.194  67.880  1.00  0.00    -0.159 OA 
BRANCH  29  30
HETATM   30  C   UNL     1      -8.937  13.446  68.403  1.00  0.00    -0.136 C  
HETATM   31  O   UNL     1      -8.409  14.456  67.956  1.00  0.00    -0.139 OA 
BRANCH  30  32
HETATM   32  C   UNL     1      -9.908  13.403  69.682  1.00  0.00     1.269 C  
HETATM   33  O   UNL     1     -10.415  12.107  70.024  1.00  0.00     0.301 OA 
HETATM   34  H   UNL     1     -10.989  12.082  70.780  1.00  0.00     0.000 HD 
BRANCH  32  35
HETATM   35  C   UNL     1     -11.099  14.421  69.519  1.00  0.00    -0.231 C  
BRANCH  35  36
HETATM   36  N   UNL     1     -11.964  13.981  68.392  1.00  0.00    -0.433 N  
HETATM   37  C   UNL     1     -11.892  14.673  67.244  1.00  0.00    -0.351 C  
HETATM   38  O   UNL     1     -11.373  15.715  67.082  1.00  0.00    -0.229 OA 
HETATM   39  H   UNL     1     -12.590  13.181  68.489  1.00  0.00     0.000 HD 
BRANCH  37  40
HETATM   40  O   UNL     1     -12.478  13.913  66.225  1.00  0.00    -0.453 OA 
HETATM   41  C   UNL     1     -11.944  14.078  64.901  1.00  0.00    -0.404 C  
HETATM   42  C   UNL     1     -10.454  13.688  64.863  1.00  0.00    -0.426 C  
HETATM   43  C   UNL     1     -12.190  15.498  64.371  1.00  0.00    -0.087 C  
HETATM   44  C   UNL     1     -12.720  13.086  64.019  1.00  0.00    -0.179 C  
ENDBRANCH  37  40
ENDBRANCH  35  36
BRANCH  35  45
HETATM   45  C   UNL     1     -11.979  14.840  70.709  1.00  0.00    -0.371 A  
HETATM   46  C   UNL     1     -13.380  14.856  70.728  1.00  0.00    -0.338 A  
HETATM   47  C   UNL     1     -13.419  15.744  73.007  1.00  0.00    -0.672 A  
HETATM   48  C   UNL     1     -11.329  15.304  71.882  1.00  0.00    -0.447 A  
HETATM   49  C   UNL     1     -14.090  15.298  71.868  1.00  0.00    -0.656 A  
HETATM   50  C   UNL     1     -12.033  15.750  73.011  1.00  0.00    -0.596 A  
ENDBRANCH  35  45
ENDBRANCH  32  35
ENDBRANCH  30  32
ENDBRANCH  29  30
ENDBRANCH  15  29
BRANCH  22  51
HETATM   51  O   UNL     1      -9.569   6.372  69.274  1.00  0.00    -0.138 OA 
BRANCH  51  52
HETATM   52  C   UNL     1     -10.557   5.741  70.102  1.00  0.00    -0.307 C  
HETATM   53  O   UNL     1     -11.724   6.121  70.028  1.00  0.00    -0.336 OA 
BRANCH  52  54
HETATM   54  C   UNL     1     -10.296   4.631  71.349  1.00  0.00    -0.160 A  
HETATM   55  C   UNL     1      -9.720   2.466  72.523  1.00  0.00    -0.186 A  
HETATM   56  C   UNL     1     -10.539   4.238  73.868  1.00  0.00    -0.314 A  
HETATM   57  C   UNL     1     -10.624   5.044  72.681  1.00  0.00    -0.274 A  
HETATM   58  C   UNL     1      -9.823   3.296  71.348  1.00  0.00    -0.194 A  
HETATM   59  C   UNL     1     -10.074   2.920  73.801  1.00  0.00    -0.177 A  
ENDBRANCH  52  54
ENDBRANCH  51  52
ENDBRANCH  22  51
BRANCH  18  60
HETATM   60  O   UNL     1      -8.558   7.602  70.878  1.00  0.00    -0.126 OA 
BRANCH  60  61
HETATM   61  C   UNL     1      -8.460   8.252  72.136  1.00  0.00    -0.179 C  
HETATM   62  C   UNL     1      -9.572   8.046  73.123  1.00  0.00    -0.344 C  
HETATM   63  O   UNL     1      -7.626   9.062  72.553  1.00  0.00    -0.339 OA 
ENDBRANCH  60  61
ENDBRANCH  18  60
TORSDOF 12
ENDMDL
MODEL       14
REMARK 921   NORMALIZED FREE ENERGY PREDICTED BY IDOCK:   -5.08 KCAL/MOL
REMARK 922        TOTAL FREE ENERGY PREDICTED BY IDOCK:  -11.31 KCAL/MOL
REMARK 923 INTER-LIGAND FREE ENERGY PREDICTED BY IDOCK:  -10.34 KCAL/MOL
REMARK 924 INTRA-LIGAND FREE ENERGY PREDICTED BY IDOCK:   -0.97 KCAL/MOL
REMARK 927      BINDING AFFINITY PREDICTED BY RF-SCORE:    0.00 PKD
ROOT
HETATM    1  C   UNL     1      -9.579   4.849  67.764  1.00  0.00    -0.148 C  
HETATM    2  C   UNL     1      -8.936   4.610  69.133  1.00  0.00    -0.139 C  
HETATM    3  C   UNL     1      -9.497   5.723  70.057  1.00  0.00    -0.158 C  
HETATM    4  O   UNL     1     -10.920   5.558  70.152  1.00  0.00    -0.286 OA 
HETATM    5  C   UNL     1      -9.029   7.087  69.506  1.00  0.00    -0.143 C  
HETATM    6  H   UNL     1     -11.263   6.240  70.717  1.00  0.00     0.000 HD 
HETATM    7  C   UNL     1      -9.822   8.259  70.318  1.00  0.00    -0.184 C  
HETATM    8  C   UNL     1      -7.616   7.347  70.132  1.00  0.00    -0.089 C  
HETATM    9  C   UNL     1      -9.525   9.793  70.137  1.00  0.00    -0.229 C  
HETATM   10  O   UNL     1     -10.594   7.974  71.249  1.00  0.00    -0.206 OA 
HETATM   11  O   UNL     1     -10.588  10.592  70.680  1.00  0.00    -0.367 OA 
HETATM   12  C   UNL     1      -9.384  10.273  68.737  1.00  0.00    -0.166 C  
HETATM   13  C   UNL     1      -8.443  11.098  68.217  1.00  0.00    -0.145 C  
HETATM   14  H   UNL     1     -10.408  11.519  70.570  1.00  0.00     0.000 HD 
HETATM   15  C   UNL     1      -8.439  11.569  66.565  1.00  0.00    -0.160 C  
HETATM   16  C   UNL     1      -7.195  11.435  69.034  1.00  0.00    -0.118 C  
HETATM   17  C   UNL     1      -7.844  10.227  66.297  1.00  0.00    -0.118 C  
HETATM   18  C   UNL     1      -9.382   5.953  66.649  1.00  0.00    -0.145 C  
HETATM   19  C   UNL     1     -10.509   4.863  66.068  1.00  0.00    -0.283 C  
HETATM   20  C   UNL     1      -8.900   9.043  66.612  1.00  0.00    -0.132 C  
HETATM   21  O   UNL     1      -9.759   3.804  66.808  1.00  0.00    -0.208 OA 
HETATM   22  C   UNL     1      -7.824   7.671  67.322  1.00  0.00    -0.117 C  
HETATM   23  C   UNL     1     -11.509   8.789  68.106  1.00  0.00     1.093 C  
HETATM   24  C   UNL     1     -10.266   9.710  67.689  1.00  0.00    -0.267 C  
HETATM   25  O   UNL     1      -9.622   8.663  65.428  1.00  0.00    -0.435 OA 
HETATM   26  C   UNL     1      -9.044   7.034  67.837  1.00  0.00    -0.127 C  
HETATM   27  H   UNL     1     -10.243   7.967  65.614  1.00  0.00     0.000 HD 
HETATM   28  C   UNL     1     -11.251  10.921  67.348  1.00  0.00    -0.345 C  
ENDROOT
BRANCH  15  29
HETATM   29  O   UNL     1      -9.611  11.410  65.602  1.00  0.00    -0.219 OA 
BRANCH  29  30
HETATM   30  C   UNL     1      -9.900  12.315  64.606  1.00  0.00    -0.100 C  
HETATM   31  O   UNL     1      -9.575  12.135  63.439  1.00  0.00    -0.294 OA 
BRANCH  30  32
HETATM   32  C   UNL     1     -10.632  13.630  65.167  1.00  0.00    -0.361 C  
HETATM   33  O   UNL     1     -10.959  14.617  64.181  1.00  0.00    -0.556 OA 
HETATM   34  H   UNL     1     -11.392  15.394  64.513  1.00  0.00     0.000 HD 
BRANCH  32  35
HETATM   35  C   UNL     1      -9.795  14.287  66.328  1.00  0.00    -0.307 C  
BRANCH  35  36
HETATM   36  N   UNL     1      -9.228  15.576  65.851  1.00  0.00    -0.368 N  
HETATM   37  C   UNL     1      -9.963  16.685  66.032  1.00  0.00    -0.324 C  
HETATM   38  O   UNL     1     -11.095  16.736  66.343  1.00  0.00     0.068 OA 
HETATM   39  H   UNL     1      -8.313  15.616  65.402  1.00  0.00     0.000 HD 
BRANCH  37  40
HETATM   40  O   UNL     1      -9.137  17.803  65.863  1.00  0.00    -0.516 OA 
HETATM   41  C   UNL     1      -9.294  18.876  66.805  1.00  0.00    -0.322 C  
HETATM   42  C   UNL     1      -8.997  18.391  68.237  1.00  0.00    -0.330 C  
HETATM   43  C   UNL     1     -10.680  19.528  66.685  1.00  0.00    -0.552 C  
HETATM   44  C   UNL     1      -8.229  19.917  66.423  1.00  0.00    -0.365 C  
ENDBRANCH  37  40
ENDBRANCH  35  36
BRANCH  35  45
HETATM   45  C   UNL     1     -10.373  14.472  67.742  1.00  0.00    -0.237 A  
HETATM   46  C   UNL     1     -11.670  14.133  68.150  1.00  0.00    -0.390 A  
HETATM   47  C   UNL     1     -11.271  14.987  70.407  1.00  0.00    -0.290 A  
HETATM   48  C   UNL     1      -9.548  15.088  68.720  1.00  0.00    -0.220 A  
HETATM   49  C   UNL     1     -12.110  14.383  69.470  1.00  0.00    -0.366 A  
HETATM   50  C   UNL     1      -9.985  15.343  70.028  1.00  0.00    -0.166 A  
ENDBRANCH  35  45
ENDBRANCH  32  35
ENDBRANCH  30  32
ENDBRANCH  29  30
ENDBRANCH  15  29
BRANCH  22  51
HETATM   51  O   UNL     1      -7.117   6.071  66.969  1.00  0.00    -0.067 OA 
BRANCH  51  52
HETATM   52  C   UNL     1      -5.957   5.230  67.049  1.00  0.00    -0.026 C  
HETATM   53  O   UNL     1      -5.156   5.233  66.117  1.00  0.00    -0.005 OA 
BRANCH  52  54
HETATM   54  C   UNL     1      -5.621   4.050  68.212  1.00  0.00    -0.020 A  
HETATM   55  C   UNL     1      -5.200   1.779  69.240  1.00  0.00    -0.012 A  
HETATM   56  C   UNL     1      -5.330   3.626  70.720  1.00  0.00    -0.008 A  
HETATM   57  C   UNL     1      -5.541   4.473  69.578  1.00  0.00    -0.016 A  
HETATM   58  C   UNL     1      -5.420   2.651  68.114  1.00  0.00    -0.017 A  
HETATM   59  C   UNL     1      -5.150   2.248  70.560  1.00  0.00    -0.004 A  
ENDBRANCH  52  54
ENDBRANCH  51  52
ENDBRANCH  22  51
BRANCH  18  60
HETATM   60  O   UNL     1      -8.575   6.035  65.242  1.00  0.00    -0.151 OA 
BRANCH  60  61
HETATM   61  C   UNL     1      -8.248   5.080  64.245  1.00  0.00    -0.128 C  
HETATM   62  C   UNL     1      -8.833   5.265  62.874  1.00  0.00     0.034 C  
HETATM   63  O   UNL     1      -7.604   4.029  64.327  1.00  0.00    -0.076 OA 
ENDBRANCH  60  61
ENDBRANCH  18  60
TORSDOF 12
ENDMDL
MODEL       15
REMARK 921   NORMALIZED FREE ENERGY PREDICTED BY IDOCK:   -5.00 KCAL/MOL
REMARK 922        TOTAL FREE ENERGY PREDICTED BY IDOCK:  -11.17 KCAL/MOL
REMARK 923 INTER-LIGAND FREE ENERGY PREDICTED BY IDOCK:   -9.62 KCAL/MOL
REMARK 924 INTRA-LIGAND FREE ENERGY PREDICTED BY IDOCK:   -1.55 KCAL/MOL
REMARK 927      BINDING AFFINITY PREDICTED BY RF-SCORE:    0.00 PKD
ROOT
HETATM    1  C   UNL     1      -8.320   5.491  69.396  1.00  0.00    -0.101 C  
HETATM    2  C   UNL     1      -6.905   5.334  69.959  1.00  0.00    -0.052 C  
HETATM    3  C   UNL     1      -6.602   6.661  70.704  1.00  0.00    -0.053 C  
HETATM    4  O   UNL     1      -7.542   6.800  71.780  1.00  0.00    -0.093 OA 
HETATM    5  C   UNL     1      -6.614   7.807  69.670  1.00  0.00    -0.035 C  
HETATM    6  H   UNL     1      -7.357   7.612  72.236  1.00  0.00     0.000 HD 
HETATM    7  C   UNL     1      -6.552   9.221  70.481  1.00  0.00    -0.072 C  
HETATM    8  C   UNL     1      -5.166   7.868  69.072  1.00  0.00    -0.023 C  
HETATM    9  C   UNL     1      -6.415  10.620  69.776  1.00  0.00    -0.110 C  
HETATM   10  O   UNL     1      -6.444   9.236  71.719  1.00  0.00    -0.241 OA 
HETATM   11  O   UNL     1      -6.747  11.687  70.678  1.00  0.00    -0.393 OA 
HETATM   12  C   UNL     1      -7.292  10.849  68.597  1.00  0.00    -0.101 C  
HETATM   13  C   UNL     1      -6.968  11.383  67.394  1.00  0.00    -0.106 C  
HETATM   14  H   UNL     1      -6.665  12.532  70.252  1.00  0.00     0.000 HD 
HETATM   15  C   UNL     1      -8.121  11.594  66.138  1.00  0.00     0.128 C  
HETATM   16  C   UNL     1      -5.499  11.580  67.023  1.00  0.00    -0.110 C  
HETATM   17  C   UNL     1      -7.942  10.135  65.878  1.00  0.00    -0.134 C  
HETATM   18  C   UNL     1      -8.932   6.356  68.222  1.00  0.00    -0.116 C  
HETATM   19  C   UNL     1     -10.177   5.440  68.859  1.00  0.00    -0.196 C  
HETATM   20  C   UNL     1      -8.505   9.247  67.107  1.00  0.00    -0.124 C  
HETATM   21  O   UNL     1      -9.164   4.373  69.117  1.00  0.00    -0.116 OA 
HETATM   22  C   UNL     1      -7.296   7.807  67.200  1.00  0.00    -0.091 C  
HETATM   23  C   UNL     1      -9.290   9.745  69.978  1.00  0.00    -0.274 C  
HETATM   24  C   UNL     1      -8.677  10.325  68.616  1.00  0.00    -0.133 C  
HETATM   25  O   UNL     1      -9.868   8.848  66.877  1.00  0.00    -0.183 OA 
HETATM   26  C   UNL     1      -7.812   7.511  68.543  1.00  0.00    -0.122 C  
HETATM   27  H   UNL     1     -10.198   8.326  67.600  1.00  0.00     0.000 HD 
HETATM   28  C   UNL     1      -9.567  11.645  68.755  1.00  0.00    -0.083 C  
ENDROOT
BRANCH  15  29
HETATM   29  O   UNL     1      -9.635  11.532  66.314  1.00  0.00    -0.205 OA 
BRANCH  29  30
HETATM   30  C   UNL     1     -10.522  12.119  65.439  1.00  0.00    -0.270 C  
HETATM   31  O   UNL     1     -10.287  12.237  64.244  1.00  0.00    -0.309 OA 
BRANCH  30  32
HETATM   32  C   UNL     1     -11.835  12.674  66.180  1.00  0.00    -0.418 C  
HETATM   33  O   UNL     1     -12.994  12.813  65.350  1.00  0.00    -0.587 OA 
HETATM   34  H   UNL     1     -13.770  13.141  65.788  1.00  0.00     0.000 HD 
BRANCH  32  35
HETATM   35  C   UNL     1     -11.533  14.033  66.916  1.00  0.00    -0.356 C  
BRANCH  35  36
HETATM   36  N   UNL     1     -12.124  13.989  68.280  1.00  0.00    -0.512 N  
HETATM   37  C   UNL     1     -12.267  15.152  68.936  1.00  0.00    -0.103 C  
HETATM   38  O   UNL     1     -11.794  16.187  68.642  1.00  0.00    -0.321 OA 
HETATM   39  H   UNL     1     -12.411  13.106  68.703  1.00  0.00     0.000 HD 
BRANCH  37  40
HETATM   40  O   UNL     1     -13.147  14.958  70.007  1.00  0.00    -0.084 OA 
HETATM   41  C   UNL     1     -12.635  14.253  71.150  1.00  0.00    -0.362 C  
HETATM   42  C   UNL     1     -11.442  15.008  71.765  1.00  0.00    -0.376 C  
HETATM   43  C   UNL     1     -12.289  12.797  70.801  1.00  0.00    -0.375 C  
HETATM   44  C   UNL     1     -13.780  14.251  72.176  1.00  0.00    -0.569 C  
ENDBRANCH  37  40
ENDBRANCH  35  36
BRANCH  35  45
HETATM   45  C   UNL     1     -10.113  14.620  66.990  1.00  0.00    -0.249 A  
HETATM   46  C   UNL     1      -9.180  14.384  68.008  1.00  0.00    -0.193 A  
HETATM   47  C   UNL     1      -7.552  15.890  66.975  1.00  0.00    -0.264 A  
HETATM   48  C   UNL     1      -9.716  15.524  65.971  1.00  0.00    -0.378 A  
HETATM   49  C   UNL     1      -7.911  15.008  67.995  1.00  0.00    -0.129 A  
HETATM   50  C   UNL     1      -8.461  16.151  65.961  1.00  0.00    -0.155 A  
ENDBRANCH  35  45
ENDBRANCH  32  35
ENDBRANCH  30  32
ENDBRANCH  29  30
ENDBRANCH  15  29
BRANCH  22  51
HETATM   51  O   UNL     1      -7.108   6.064  66.869  1.00  0.00    -0.067 OA 
BRANCH  51  52
HETATM   52  C   UNL     1      -6.268   5.030  66.333  1.00  0.00    -0.035 C  
HETATM   53  O   UNL     1      -5.175   4.824  66.854  1.00  0.00    -0.008 OA 
BRANCH  52  54
HETATM   54  C   UNL     1      -6.506   4.148  64.912  1.00  0.00    -0.039 A  
HETATM   55  C   UNL     1      -7.136   3.616  62.521  1.00  0.00    -0.036 A  
HETATM   56  C   UNL     1      -6.488   1.797  63.897  1.00  0.00    -0.018 A  
HETATM   57  C   UNL     1      -6.283   2.734  64.967  1.00  0.00    -0.019 A  
HETATM   58  C   UNL     1      -6.929   4.532  63.615  1.00  0.00    -0.045 A  
HETATM   59  C   UNL     1      -6.920   2.236  62.640  1.00  0.00    -0.027 A  
ENDBRANCH  52  54
ENDBRANCH  51  52
ENDBRANCH  22  51
BRANCH  18  60
HETATM   60  O   UNL     1      -9.360   6.066  66.683  1.00  0.00    -0.136 OA 
BRANCH  60  61
HETATM   61  C   UNL     1     -10.288   5.180  66.076  1.00  0.00    -0.188 C  
HETATM   62  C   UNL     1      -9.772   3.873  65.547  1.00  0.00    -0.176 C  
HETATM   63  O   UNL     1     -11.487   5.334  65.818  1.00  0.00     0.313 OA 
ENDBRANCH  60  61
ENDBRANCH  18  60
TORSDOF 12
ENDMDL
MODEL       16
REMARK 921   NORMALIZED FREE ENERGY PREDICTED BY IDOCK:   -4.79 KCAL/MOL
REMARK 922        TOTAL FREE ENERGY PREDICTED BY IDOCK:  -10.82 KCAL/MOL
REMARK 923 INTER-LIGAND FREE ENERGY PREDICTED BY IDOCK:   -9.43 KCAL/MOL
REMARK 924 INTRA-LIGAND FREE ENERGY PREDICTED BY IDOCK:   -1.39 KCAL/MOL
REMARK 927      BINDING AFFINITY PREDICTED BY RF-SCORE:    0.00 PKD
ROOT
HETATM    1  C   UNL     1      -7.448   5.434  69.259  1.00  0.00    -0.073 C  
HETATM    2  C   UNL     1      -8.387   4.563  68.419  1.00  0.00    -0.092 C  
HETATM    3  C   UNL     1      -8.078   4.922  66.941  1.00  0.00    -0.107 C  
HETATM    4  O   UNL     1      -6.713   4.572  66.667  1.00  0.00    -0.049 OA 
HETATM    5  C   UNL     1      -8.432   6.408  66.723  1.00  0.00    -0.112 C  
HETATM    6  H   UNL     1      -6.524   4.792  65.762  1.00  0.00     0.000 HD 
HETATM    7  C   UNL     1      -7.873   6.851  65.256  1.00  0.00    -0.118 C  
HETATM    8  C   UNL     1      -9.957   6.444  66.363  1.00  0.00    -0.096 C  
HETATM    9  C   UNL     1      -8.150   8.259  64.611  1.00  0.00    -0.150 C  
HETATM   10  O   UNL     1      -7.334   6.020  64.507  1.00  0.00    -0.060 OA 
HETATM   11  O   UNL     1      -7.259   8.506  63.512  1.00  0.00    -0.091 OA 
HETATM   12  C   UNL     1      -7.972   9.435  65.501  1.00  0.00    -0.111 C  
HETATM   13  C   UNL     1      -8.783  10.510  65.654  1.00  0.00    -0.191 C  
HETATM   14  H   UNL     1      -7.427   9.357  63.122  1.00  0.00     0.000 HD 
HETATM   15  C   UNL     1      -8.412  11.801  66.725  1.00  0.00    -0.177 C  
HETATM   16  C   UNL     1     -10.192  10.486  65.063  1.00  0.00    -0.365 C  
HETATM   17  C   UNL     1      -8.901  10.899  67.808  1.00  0.00    -0.135 C  
HETATM   18  C   UNL     1      -7.402   6.981  69.584  1.00  0.00    -0.086 C  
HETATM   19  C   UNL     1      -6.150   6.264  70.428  1.00  0.00    -0.034 C  
HETATM   20  C   UNL     1      -7.924   9.624  67.996  1.00  0.00    -0.097 C  
HETATM   21  O   UNL     1      -7.030   5.065  70.574  1.00  0.00    -0.042 OA 
HETATM   22  C   UNL     1      -9.108   8.218  68.406  1.00  0.00    -0.136 C  
HETATM   23  C   UNL     1      -5.729   8.305  66.400  1.00  0.00    -0.040 C  
HETATM   24  C   UNL     1      -6.859   9.438  66.479  1.00  0.00    -0.083 C  
HETATM   25  O   UNL     1      -6.939   9.871  69.015  1.00  0.00    -0.056 OA 
HETATM   26  C   UNL     1      -8.028   7.271  68.095  1.00  0.00    -0.123 C  
HETATM   27  H   UNL     1      -6.365   9.121  69.125  1.00  0.00     0.000 HD 
HETATM   28  C   UNL     1      -5.846  10.518  65.880  1.00  0.00    -0.120 C  
ENDROOT
BRANCH  15  29
HETATM   29  O   UNL     1      -7.045  12.060  67.350  1.00  0.00    -0.114 OA 
BRANCH  29  30
HETATM   30  C   UNL     1      -6.790  13.114  68.200  1.00  0.00    -0.111 C  
HETATM   31  O   UNL     1      -6.618  12.963  69.402  1.00  0.00    -0.109 OA 
BRANCH  30  32
HETATM   32  C   UNL     1      -6.816  14.530  67.443  1.00  0.00    -0.038 C  
HETATM   33  O   UNL     1      -5.540  15.018  67.011  1.00  0.00    -0.024 OA 
HETATM   34  H   UNL     1      -5.555  15.856  66.563  1.00  0.00     0.000 HD 
BRANCH  32  35
HETATM   35  C   UNL     1      -7.542  15.621  68.316  1.00  0.00    -0.119 C  
BRANCH  35  36
HETATM   36  N   UNL     1      -7.066  16.969  67.905  1.00  0.00    -0.154 N  
HETATM   37  C   UNL     1      -6.764  17.846  68.876  1.00  0.00    -0.244 C  
HETATM   38  O   UNL     1      -7.021  17.747  70.018  1.00  0.00     0.347 OA 
HETATM   39  H   UNL     1      -6.972  17.218  66.921  1.00  0.00     0.000 HD 
BRANCH  37  40
HETATM   40  O   UNL     1      -6.010  18.887  68.321  1.00  0.00    -0.205 OA 
HETATM   41  C   UNL     1      -6.499  19.465  67.100  1.00  0.00    -0.190 C  
HETATM   42  C   UNL     1      -7.898  20.073  67.309  1.00  0.00    -0.334 C  
HETATM   43  C   UNL     1      -6.469  18.449  65.948  1.00  0.00    -0.290 C  
HETATM   44  C   UNL     1      -5.526  20.608  66.769  1.00  0.00    -0.212 C  
ENDBRANCH  37  40
ENDBRANCH  35  36
BRANCH  35  45
HETATM   45  C   UNL     1      -9.072  15.645  68.481  1.00  0.00    -0.196 A  
HETATM   46  C   UNL     1     -10.007  15.757  67.444  1.00  0.00    -0.237 A  
HETATM   47  C   UNL     1     -11.876  15.759  69.022  1.00  0.00    -0.367 A  
HETATM   48  C   UNL     1      -9.596  15.603  69.799  1.00  0.00    -0.192 A  
HETATM   49  C   UNL     1     -11.394  15.807  67.714  1.00  0.00    -0.240 A  
HETATM   50  C   UNL     1     -10.971  15.660  70.069  1.00  0.00    -0.336 A  
ENDBRANCH  35  45
ENDBRANCH  32  35
ENDBRANCH  30  32
ENDBRANCH  29  30
ENDBRANCH  15  29
BRANCH  22  51
HETATM   51  O   UNL     1      -9.681   7.161  69.723  1.00  0.00    -0.165 OA 
BRANCH  51  52
HETATM   52  C   UNL     1     -10.815   6.593  70.396  1.00  0.00    -0.266 C  
HETATM   53  O   UNL     1     -11.016   5.384  70.303  1.00  0.00    -0.225 OA 
BRANCH  52  54
HETATM   54  C   UNL     1     -12.066   7.419  71.176  1.00  0.00    -0.357 A  
HETATM   55  C   UNL     1     -14.391   7.993  71.989  1.00  0.00    -0.511 A  
HETATM   56  C   UNL     1     -12.671   9.559  72.446  1.00  0.00    -0.313 A  
HETATM   57  C   UNL     1     -11.748   8.672  71.791  1.00  0.00    -0.400 A  
HETATM   58  C   UNL     1     -13.444   7.127  71.331  1.00  0.00    -0.374 A  
HETATM   59  C   UNL     1     -14.024   9.220  72.557  1.00  0.00    -0.398 A  
ENDBRANCH  52  54
ENDBRANCH  51  52
ENDBRANCH  22  51
BRANCH  18  60
HETATM   60  O   UNL     1      -7.861   7.906  70.838  1.00  0.00    -0.084 OA 
BRANCH  60  61
HETATM   61  C   UNL     1      -7.292   8.186  72.107  1.00  0.00    -0.100 C  
HETATM   62  C   UNL     1      -8.217   8.587  73.220  1.00  0.00    -0.072 C  
HETATM   63  O   UNL     1      -6.109   8.241  72.457  1.00  0.00    -0.055 OA 
ENDBRANCH  60  61
ENDBRANCH  18  60
TORSDOF 12
ENDMDL
MODEL       17
REMARK 921   NORMALIZED FREE ENERGY PREDICTED BY IDOCK:   -4.79 KCAL/MOL
REMARK 922        TOTAL FREE ENERGY PREDICTED BY IDOCK:  -10.81 KCAL/MOL
REMARK 923 INTER-LIGAND FREE ENERGY PREDICTED BY IDOCK:  -10.05 KCAL/MOL
REMARK 924 INTRA-LIGAND FREE ENERGY PREDICTED BY IDOCK:   -0.76 KCAL/MOL
REMARK 927      BINDING AFFINITY PREDICTED BY RF-SCORE:    0.00 PKD
ROOT
HETATM    1  C   UNL     1      -9.535   4.473  67.467  1.00  0.00    -0.161 C  
HETATM    2  C   UNL     1      -8.810   3.588  68.485  1.00  0.00    -0.160 C  
HETATM    3  C   UNL     1      -9.115   4.213  69.872  1.00  0.00    -0.113 C  
HETATM    4  O   UNL     1     -10.532   4.151  70.095  1.00  0.00     0.302 OA 
HETATM    5  C   UNL     1      -8.506   5.630  69.906  1.00  0.00    -0.121 C  
HETATM    6  H   UNL     1     -10.719   4.534  70.944  1.00  0.00     0.000 HD 
HETATM    7  C   UNL     1      -9.041   6.378  71.254  1.00  0.00    -0.148 C  
HETATM    8  C   UNL     1      -7.018   5.454  70.367  1.00  0.00    -0.057 C  
HETATM    9  C   UNL     1      -8.541   7.797  71.715  1.00  0.00    -0.116 C  
HETATM   10  O   UNL     1      -9.757   5.776  72.071  1.00  0.00    -0.154 OA 
HETATM   11  O   UNL     1      -9.421   8.358  72.701  1.00  0.00    -0.269 OA 
HETATM   12  C   UNL     1      -8.461   8.840  70.658  1.00  0.00    -0.193 C  
HETATM   13  C   UNL     1      -7.461   9.722  70.416  1.00  0.00    -0.161 C  
HETATM   14  H   UNL     1      -9.119   9.215  72.979  1.00  0.00     0.000 HD 
HETATM   15  C   UNL     1      -7.541  10.883  69.152  1.00  0.00    -0.133 C  
HETATM   16  C   UNL     1      -6.108   9.542  71.104  1.00  0.00    -0.074 C  
HETATM   17  C   UNL     1      -7.176   9.756  68.243  1.00  0.00    -0.078 C  
HETATM   18  C   UNL     1      -9.282   5.938  66.927  1.00  0.00    -0.124 C  
HETATM   19  C   UNL     1     -10.605   5.331  66.103  1.00  0.00    -0.194 C  
HETATM   20  C   UNL     1      -8.360   8.657  68.165  1.00  0.00    -0.127 C  
HETATM   21  O   UNL     1      -9.953   3.990  66.190  1.00  0.00    -0.194 OA 
HETATM   22  C   UNL     1      -7.435   7.022  68.040  1.00  0.00    -0.099 C  
HETATM   23  C   UNL     1     -10.829   7.995  69.767  1.00  0.00    -0.194 C  
HETATM   24  C   UNL     1      -9.509   8.889  69.612  1.00  0.00    -0.168 C  
HETATM   25  O   UNL     1      -9.236   8.916  67.053  1.00  0.00    -0.131 OA 
HETATM   26  C   UNL     1      -8.682   6.335  68.402  1.00  0.00    -0.116 C  
HETATM   27  H   UNL     1      -9.931   8.270  67.008  1.00  0.00     0.000 HD 
HETATM   28  C   UNL     1     -10.333  10.207  69.981  1.00  0.00    -0.301 C  
ENDROOT
BRANCH  15  29
HETATM   29  O   UNL     1      -8.808  11.279  68.400  1.00  0.00    -0.149 OA 
BRANCH  29  30
HETATM   30  C   UNL     1      -8.824  12.207  67.383  1.00  0.00    -0.181 C  
HETATM   31  O   UNL     1      -8.330  11.988  66.284  1.00  0.00    -0.027 OA 
BRANCH  30  32
HETATM   32  C   UNL     1      -9.492  13.596  67.833  1.00  0.00    -0.213 C  
HETATM   33  O   UNL     1     -10.365  13.517  68.966  1.00  0.00    -0.404 OA 
HETATM   34  H   UNL     1     -10.760  14.339  69.232  1.00  0.00     0.000 HD 
BRANCH  32  35
HETATM   35  C   UNL     1     -10.237  14.279  66.625  1.00  0.00    -0.272 C  
BRANCH  35  36
HETATM   36  N   UNL     1      -9.319  15.250  65.973  1.00  0.00    -0.357 N  
HETATM   37  C   UNL     1      -9.597  16.557  66.103  1.00  0.00    -0.315 C  
HETATM   38  O   UNL     1     -10.598  17.026  66.505  1.00  0.00    -0.270 OA 
HETATM   39  H   UNL     1      -8.506  14.933  65.445  1.00  0.00     0.000 HD 
BRANCH  37  40
HETATM   40  O   UNL     1      -8.461  17.295  65.752  1.00  0.00    -0.532 OA 
HETATM   41  C   UNL     1      -8.101  18.385  66.615  1.00  0.00    -0.264 C  
HETATM   42  C   UNL     1      -7.803  17.876  68.038  1.00  0.00    -0.251 C  
HETATM   43  C   UNL     1      -9.170  19.488  66.601  1.00  0.00    -0.417 C  
HETATM   44  C   UNL     1      -6.799  18.958  66.031  1.00  0.00    -0.284 C  
ENDBRANCH  37  40
ENDBRANCH  35  36
BRANCH  35  45
HETATM   45  C   UNL     1     -10.965  13.457  65.548  1.00  0.00    -0.294 A  
HETATM   46  C   UNL     1     -12.314  13.077  65.577  1.00  0.00    -0.527 A  
HETATM   47  C   UNL     1     -12.095  11.846  63.475  1.00  0.00    -0.575 A  
HETATM   48  C   UNL     1     -10.204  12.989  64.445  1.00  0.00    -0.335 A  
HETATM   49  C   UNL     1     -12.872  12.286  64.547  1.00  0.00    -0.228 A  
HETATM   50  C   UNL     1     -10.755  12.197  63.427  1.00  0.00    -0.461 A  
ENDBRANCH  35  45
ENDBRANCH  32  35
ENDBRANCH  30  32
ENDBRANCH  29  30
ENDBRANCH  15  29
BRANCH  22  51
HETATM   51  O   UNL     1      -7.005   5.695  66.928  1.00  0.00    -0.062 OA 
BRANCH  51  52
HETATM   52  C   UNL     1      -6.059   4.668  66.599  1.00  0.00    -0.031 C  
HETATM   53  O   UNL     1      -5.239   4.322  67.446  1.00  0.00    -0.010 OA 
BRANCH  52  54
HETATM   54  C   UNL     1      -5.785   3.970  65.084  1.00  0.00    -0.018 A  
HETATM   55  C   UNL     1      -5.173   3.761  62.639  1.00  0.00    -0.005 A  
HETATM   56  C   UNL     1      -6.040   1.828  63.704  1.00  0.00    -0.013 A  
HETATM   57  C   UNL     1      -6.132   2.591  64.919  1.00  0.00    -0.019 A  
HETATM   58  C   UNL     1      -5.283   4.503  63.870  1.00  0.00    -0.009 A  
HETATM   59  C   UNL     1      -5.547   2.415  62.533  1.00  0.00    -0.008 A  
ENDBRANCH  52  54
ENDBRANCH  51  52
ENDBRANCH  22  51
BRANCH  18  60
HETATM   60  O   UNL     1      -8.606   6.570  65.593  1.00  0.00    -0.150 OA 
BRANCH  60  61
HETATM   61  C   UNL     1      -8.490   6.127  64.250  1.00  0.00     0.112 C  
HETATM   62  C   UNL     1      -8.021   7.114  63.220  1.00  0.00    -0.072 C  
HETATM   63  O   UNL     1      -8.800   5.047  63.737  1.00  0.00    -0.124 OA 
ENDBRANCH  60  61
ENDBRANCH  18  60
TORSDOF 12
ENDMDL
MODEL       18
REMARK 921   NORMALIZED FREE ENERGY PREDICTED BY IDOCK:   -4.60 KCAL/MOL
REMARK 922        TOTAL FREE ENERGY PREDICTED BY IDOCK:  -10.49 KCAL/MOL
REMARK 923 INTER-LIGAND FREE ENERGY PREDICTED BY IDOCK:   -8.43 KCAL/MOL
REMARK 924 INTRA-LIGAND FREE ENERGY PREDICTED BY IDOCK:   -2.06 KCAL/MOL
REMARK 927      BINDING AFFINITY PREDICTED BY RF-SCORE:    0.00 PKD
ROOT
HETATM    1  C   UNL     1      -7.216   4.654  68.534  1.00  0.00    -0.057 C  
HETATM    2  C   UNL     1      -8.276   3.902  67.724  1.00  0.00    -0.094 C  
HETATM    3  C   UNL     1      -8.080   4.361  66.254  1.00  0.00    -0.102 C  
HETATM    4  O   UNL     1      -6.768   3.965  65.828  1.00  0.00    -0.043 OA 
HETATM    5  C   UNL     1      -8.364   5.877  66.181  1.00  0.00    -0.124 C  
HETATM    6  H   UNL     1      -6.647   4.245  64.928  1.00  0.00     0.000 HD 
HETATM    7  C   UNL     1      -7.913   6.405  64.705  1.00  0.00    -0.118 C  
HETATM    8  C   UNL     1      -9.910   6.020  65.968  1.00  0.00     0.049 C  
HETATM    9  C   UNL     1      -8.163   7.872  64.195  1.00  0.00    -0.027 C  
HETATM   10  O   UNL     1      -7.492   5.609  63.849  1.00  0.00    -0.058 OA 
HETATM   11  O   UNL     1      -7.361   8.160  63.039  1.00  0.00    -0.093 OA 
HETATM   12  C   UNL     1      -7.837   8.963  65.150  1.00  0.00    -0.106 C  
HETATM   13  C   UNL     1      -8.567  10.063  65.457  1.00  0.00    -0.162 C  
HETATM   14  H   UNL     1      -7.512   9.046  62.731  1.00  0.00     0.000 HD 
HETATM   15  C   UNL     1      -8.026  11.245  66.581  1.00  0.00    -0.159 C  
HETATM   16  C   UNL     1     -10.022  10.160  65.000  1.00  0.00    -0.375 C  
HETATM   17  C   UNL     1      -8.469  10.285  67.636  1.00  0.00    -0.118 C  
HETATM   18  C   UNL     1      -7.051   6.166  68.968  1.00  0.00    -0.081 C  
HETATM   19  C   UNL     1      -5.772   5.321  69.635  1.00  0.00    -0.016 C  
HETATM   20  C   UNL     1      -7.556   8.951  67.636  1.00  0.00    -0.093 C  
HETATM   21  O   UNL     1      -6.705   4.162  69.773  1.00  0.00    -0.033 OA 
HETATM   22  C   UNL     1      -8.779   7.580  68.049  1.00  0.00    -0.121 C  
HETATM   23  C   UNL     1      -5.593   7.650  65.748  1.00  0.00    -0.033 C  
HETATM   24  C   UNL     1      -6.643   8.830  66.017  1.00  0.00    -0.057 C  
HETATM   25  O   UNL     1      -6.471   9.065  68.574  1.00  0.00    -0.053 OA 
HETATM   26  C   UNL     1      -7.789   6.606  67.570  1.00  0.00    -0.111 C  
HETATM   27  H   UNL     1      -5.934   8.280  68.574  1.00  0.00     0.000 HD 
HETATM   28  C   UNL     1      -5.626   9.902  65.407  1.00  0.00    -0.063 C  
ENDROOT
BRANCH  15  29
HETATM   29  O   UNL     1      -6.596  11.382  67.094  1.00  0.00    -0.095 OA 
BRANCH  29  30
HETATM   30  C   UNL     1      -6.060  12.573  67.529  1.00  0.00    -0.154 C  
HETATM   31  O   UNL     1      -5.213  13.186  66.892  1.00  0.00    -0.137 OA 
BRANCH  30  32
HETATM   32  C   UNL     1      -6.622  13.006  68.970  1.00  0.00    -0.105 C  
HETATM   33  O   UNL     1      -7.309  11.978  69.694  1.00  0.00    -0.327 OA 
HETATM   34  H   UNL     1      -7.641  12.234  70.547  1.00  0.00     0.000 HD 
BRANCH  32  35
HETATM   35  C   UNL     1      -7.534  14.285  68.858  1.00  0.00    -0.123 C  
BRANCH  35  36
HETATM   36  N   UNL     1      -7.056  15.125  67.727  1.00  0.00    -0.148 N  
HETATM   37  C   UNL     1      -6.611  16.359  68.012  1.00  0.00    -0.135 C  
HETATM   38  O   UNL     1      -6.740  16.937  69.028  1.00  0.00    -0.190 OA 
HETATM   39  H   UNL     1      -7.067  14.775  66.769  1.00  0.00     0.000 HD 
BRANCH  37  40
HETATM   40  O   UNL     1      -5.887  16.839  66.914  1.00  0.00    -0.164 OA 
HETATM   41  C   UNL     1      -6.092  18.214  66.550  1.00  0.00    -0.171 C  
HETATM   42  C   UNL     1      -5.697  19.148  67.708  1.00  0.00    -0.196 C  
HETATM   43  C   UNL     1      -7.530  18.456  66.067  1.00  0.00    -0.256 C  
HETATM   44  C   UNL     1      -5.132  18.475  65.377  1.00  0.00    -0.195 C  
ENDBRANCH  37  40
ENDBRANCH  35  36
BRANCH  35  45
HETATM   45  C   UNL     1      -9.069  14.189  68.814  1.00  0.00    -0.071 A  
HETATM   46  C   UNL     1      -9.814  13.325  68.001  1.00  0.00    -0.230 A  
HETATM   47  C   UNL     1     -11.926  14.239  68.828  1.00  0.00    -0.346 A  
HETATM   48  C   UNL     1      -9.812  15.085  69.627  1.00  0.00    -0.095 A  
HETATM   49  C   UNL     1     -11.228  13.347  68.014  1.00  0.00    -0.298 A  
HETATM   50  C   UNL     1     -11.214  15.113  69.635  1.00  0.00    -0.288 A  
ENDBRANCH  35  45
ENDBRANCH  32  35
ENDBRANCH  30  32
ENDBRANCH  29  30
ENDBRANCH  15  29
BRANCH  22  51
HETATM   51  O   UNL     1      -9.294   6.452  69.332  1.00  0.00    -0.141 OA 
BRANCH  51  52
HETATM   52  C   UNL     1     -10.393   5.786  69.971  1.00  0.00    -0.259 C  
HETATM   53  O   UNL     1     -11.539   6.071  69.631  1.00  0.00    -0.321 OA 
BRANCH  52  54
HETATM   54  C   UNL     1     -10.332   4.758  71.311  1.00  0.00    -0.184 A  
HETATM   55  C   UNL     1      -9.882   2.700  72.710  1.00  0.00    -0.193 A  
HETATM   56  C   UNL     1     -11.077   4.467  73.744  1.00  0.00    -0.330 A  
HETATM   57  C   UNL     1     -10.960   5.207  72.517  1.00  0.00    -0.276 A  
HETATM   58  C   UNL     1      -9.785   3.463  71.491  1.00  0.00    -0.233 A  
HETATM   59  C   UNL     1     -10.527   3.186  73.856  1.00  0.00    -0.247 A  
ENDBRANCH  52  54
ENDBRANCH  51  52
ENDBRANCH  22  51
BRANCH  18  60
HETATM   60  O   UNL     1      -7.341   7.012  70.324  1.00  0.00    -0.080 OA 
BRANCH  60  61
HETATM   61  C   UNL     1      -6.966   6.842  71.682  1.00  0.00    -0.070 C  
HETATM   62  C   UNL     1      -5.930   7.770  72.248  1.00  0.00    -0.040 C  
HETATM   63  O   UNL     1      -7.293   5.973  72.497  1.00  0.00    -0.088 OA 
ENDBRANCH  60  61
ENDBRANCH  18  60
TORSDOF 12
ENDMDL
MODEL       19
REMARK 921   NORMALIZED FREE ENERGY PREDICTED BY IDOCK:   -4.55 KCAL/MOL
REMARK 922        TOTAL FREE ENERGY PREDICTED BY IDOCK:  -10.42 KCAL/MOL
REMARK 923 INTER-LIGAND FREE ENERGY PREDICTED BY IDOCK:   -9.88 KCAL/MOL
REMARK 924 INTRA-LIGAND FREE ENERGY PREDICTED BY IDOCK:   -0.54 KCAL/MOL
REMARK 927      BINDING AFFINITY PREDICTED BY RF-SCORE:    0.00 PKD
ROOT
HETATM    1  C   UNL     1      -7.504   6.568  69.235  1.00  0.00    -0.095 C  
HETATM    2  C   UNL     1      -7.123   5.637  68.081  1.00  0.00    -0.071 C  
HETATM    3  C   UNL     1      -6.333   6.519  67.077  1.00  0.00    -0.041 C  
HETATM    4  O   UNL     1      -5.148   6.997  67.731  1.00  0.00    -0.010 OA 
HETATM    5  C   UNL     1      -7.282   7.617  66.553  1.00  0.00    -0.082 C  
HETATM    6  H   UNL     1      -4.664   7.537  67.117  1.00  0.00     0.000 HD 
HETATM    7  C   UNL     1      -6.393   8.689  65.703  1.00  0.00    -0.056 C  
HETATM    8  C   UNL     1      -8.039   6.991  65.331  1.00  0.00    -0.133 C  
HETATM    9  C   UNL     1      -7.016   9.888  64.897  1.00  0.00    -0.131 C  
HETATM   10  O   UNL     1      -5.178   8.502  65.522  1.00  0.00    -0.034 OA 
HETATM   11  O   UNL     1      -6.014  10.858  64.558  1.00  0.00    -0.374 OA 
HETATM   12  C   UNL     1      -8.066  10.673  65.597  1.00  0.00    -0.146 C  
HETATM   13  C   UNL     1      -9.262  11.099  65.121  1.00  0.00    -0.209 C  
HETATM   14  H   UNL     1      -6.391  11.582  64.071  1.00  0.00     0.000 HD 
HETATM   15  C   UNL     1     -10.358  12.021  66.069  1.00  0.00    -0.238 C  
HETATM   16  C   UNL     1      -9.789  10.550  63.795  1.00  0.00    -0.363 C  
HETATM   17  C   UNL     1     -10.731  10.722  66.703  1.00  0.00    -0.268 C  
HETATM   18  C   UNL     1      -8.540   7.755  69.376  1.00  0.00    -0.135 C  
HETATM   19  C   UNL     1      -7.822   7.548  70.872  1.00  0.00    -0.094 C  
HETATM   20  C   UNL     1      -9.506  10.116  67.566  1.00  0.00    -0.152 C  
HETATM   21  O   UNL     1      -7.755   6.089  70.557  1.00  0.00    -0.096 OA 
HETATM   22  C   UNL     1      -9.649   8.259  67.292  1.00  0.00    -0.166 C  
HETATM   23  C   UNL     1      -6.536  10.608  67.781  1.00  0.00    -0.060 C  
HETATM   24  C   UNL     1      -7.920  10.943  67.046  1.00  0.00    -0.132 C  
HETATM   25  O   UNL     1      -9.600  10.509  68.947  1.00  0.00    -0.176 OA 
HETATM   26  C   UNL     1      -8.277   8.118  67.797  1.00  0.00    -0.128 C  
HETATM   27  H   UNL     1      -8.879  10.153  69.454  1.00  0.00     0.000 HD 
HETATM   28  C   UNL     1      -7.592  12.506  67.097  1.00  0.00    -0.087 C  
ENDROOT
BRANCH  15  29
HETATM   29  O   UNL     1     -10.010  12.730  67.374  1.00  0.00    -0.208 OA 
BRANCH  29  30
HETATM   30  C   UNL     1     -10.906  13.509  68.073  1.00  0.00    -0.250 C  
HETATM   31  O   UNL     1     -11.384  13.161  69.145  1.00  0.00    -0.267 OA 
BRANCH  30  32
HETATM   32  C   UNL     1     -11.284  14.859  67.290  1.00  0.00    -0.345 C  
HETATM   33  O   UNL     1     -12.014  14.675  66.071  1.00  0.00    -0.337 OA 
HETATM   34  H   UNL     1     -12.239  15.474  65.607  1.00  0.00     0.000 HD 
BRANCH  32  35
HETATM   35  C   UNL     1     -10.002  15.733  67.022  1.00  0.00    -0.239 C  
BRANCH  35  36
HETATM   36  N   UNL     1     -10.399  17.162  66.924  1.00  0.00    -0.317 N  
HETATM   37  C   UNL     1     -10.633  17.825  68.068  1.00  0.00    -0.365 C  
HETATM   38  O   UNL     1     -10.758  17.357  69.139  1.00  0.00    -0.247 OA 
HETATM   39  H   UNL     1     -10.490  17.623  66.018  1.00  0.00     0.000 HD 
BRANCH  37  40
HETATM   40  O   UNL     1     -10.630  19.199  67.799  1.00  0.00    -0.415 OA 
HETATM   41  C   UNL     1      -9.349  19.819  67.597  1.00  0.00    -0.344 C  
HETATM   42  C   UNL     1      -8.624  19.191  66.392  1.00  0.00    -0.335 C  
HETATM   43  C   UNL     1      -8.500  19.780  68.876  1.00  0.00    -0.144 C  
HETATM   44  C   UNL     1      -9.654  21.288  67.258  1.00  0.00     0.153 C  
ENDBRANCH  37  40
ENDBRANCH  35  36
BRANCH  35  45
HETATM   45  C   UNL     1      -8.738  15.610  67.891  1.00  0.00    -0.166 A  
HETATM   46  C   UNL     1      -8.679  15.065  69.180  1.00  0.00    -0.188 A  
HETATM   47  C   UNL     1      -6.291  15.560  69.367  1.00  0.00    -0.138 A  
HETATM   48  C   UNL     1      -7.526  16.137  67.375  1.00  0.00    -0.199 A  
HETATM   49  C   UNL     1      -7.465  15.036  69.906  1.00  0.00    -0.021 A  
HETATM   50  C   UNL     1      -6.323  16.116  68.097  1.00  0.00    -0.130 A  
ENDBRANCH  35  45
ENDBRANCH  32  35
ENDBRANCH  30  32
ENDBRANCH  29  30
ENDBRANCH  15  29
BRANCH  22  51
HETATM   51  O   UNL     1     -10.113   6.723  68.072  1.00  0.00    -0.146 OA 
BRANCH  51  52
HETATM   52  C   UNL     1     -10.406   5.329  67.892  1.00  0.00    -0.125 C  
HETATM   53  O   UNL     1     -10.762   4.667  68.865  1.00  0.00     0.368 OA 
BRANCH  52  54
HETATM   54  C   UNL     1     -10.139   4.393  66.511  1.00  0.00    -0.217 A  
HETATM   55  C   UNL     1     -10.346   3.545  64.138  1.00  0.00    -0.220 A  
HETATM   56  C   UNL     1      -8.967   2.301  65.611  1.00  0.00    -0.118 A  
HETATM   57  C   UNL     1      -9.274   3.258  66.639  1.00  0.00    -0.178 A  
HETATM   58  C   UNL     1     -10.642   4.485  65.190  1.00  0.00    -0.132 A  
HETATM   59  C   UNL     1      -9.505   2.440  64.327  1.00  0.00    -0.135 A  
ENDBRANCH  52  54
ENDBRANCH  51  52
ENDBRANCH  22  51
BRANCH  18  60
HETATM   60  O   UNL     1     -10.034   7.911  69.993  1.00  0.00    -0.187 OA 
BRANCH  60  61
HETATM   61  C   UNL     1     -10.589   7.686  71.279  1.00  0.00    -0.219 C  
HETATM   62  C   UNL     1     -11.690   8.598  71.740  1.00  0.00    -0.400 C  
HETATM   63  O   UNL     1     -10.259   6.889  72.163  1.00  0.00    -0.192 OA 
ENDBRANCH  60  61
ENDBRANCH  18  60
TORSDOF 12
ENDMDL
MODEL       20
REMARK 921   NORMALIZED FREE ENERGY PREDICTED BY IDOCK:   -4.47 KCAL/MOL
REMARK 922        TOTAL FREE ENERGY PREDICTED BY IDOCK:  -10.27 KCAL/MOL
REMARK 923 INTER-LIGAND FREE ENERGY PREDICTED BY IDOCK:   -9.13 KCAL/MOL
REMARK 924 INTRA-LIGAND FREE ENERGY PREDICTED BY IDOCK:   -1.14 KCAL/MOL
REMARK 927      BINDING AFFINITY PREDICTED BY RF-SCORE:    0.00 PKD
ROOT
HETATM    1  C   UNL     1      -6.826   5.696  69.025  1.00  0.00    -0.062 C  
HETATM    2  C   UNL     1      -7.492   4.713  68.058  1.00  0.00    -0.073 C  
HETATM    3  C   UNL     1      -7.166   5.241  66.636  1.00  0.00    -0.077 C  
HETATM    4  O   UNL     1      -5.742   5.210  66.458  1.00  0.00    -0.017 OA 
HETATM    5  C   UNL     1      -7.816   6.631  66.477  1.00  0.00    -0.104 C  
HETATM    6  H   UNL     1      -5.541   5.533  65.588  1.00  0.00     0.000 HD 
HETATM    7  C   UNL     1      -7.265   7.293  65.092  1.00  0.00    -0.070 C  
HETATM    8  C   UNL     1      -9.284   6.371  65.991  1.00  0.00    -0.087 C  
HETATM    9  C   UNL     1      -7.794   8.655  64.510  1.00  0.00    -0.132 C  
HETATM   10  O   UNL     1      -6.507   6.654  64.343  1.00  0.00    -0.037 OA 
HETATM   11  O   UNL     1      -6.903   9.169  63.508  1.00  0.00    -0.090 OA 
HETATM   12  C   UNL     1      -7.938   9.772  65.481  1.00  0.00    -0.123 C  
HETATM   13  C   UNL     1      -8.971  10.636  65.627  1.00  0.00    -0.203 C  
HETATM   14  H   UNL     1      -7.223   9.992  63.157  1.00  0.00     0.000 HD 
HETATM   15  C   UNL     1      -8.965  11.891  66.801  1.00  0.00    -0.196 C  
HETATM   16  C   UNL     1     -10.297  10.360  64.918  1.00  0.00    -0.238 C  
HETATM   17  C   UNL     1      -9.322  10.825  67.783  1.00  0.00    -0.158 C  
HETATM   18  C   UNL     1      -7.139   7.188  69.444  1.00  0.00    -0.075 C  
HETATM   19  C   UNL     1      -5.824   6.690  70.348  1.00  0.00    -0.023 C  
HETATM   20  C   UNL     1      -8.108   9.775  67.977  1.00  0.00    -0.105 C  
HETATM   21  O   UNL     1      -6.432   5.325  70.347  1.00  0.00    -0.028 OA 
HETATM   22  C   UNL     1      -8.985   8.124  68.201  1.00  0.00    -0.135 C  
HETATM   23  C   UNL     1      -5.572   9.075  66.499  1.00  0.00    -0.049 C  
HETATM   24  C   UNL     1      -6.924   9.934  66.548  1.00  0.00    -0.090 C  
HETATM   25  O   UNL     1      -7.274  10.146  69.089  1.00  0.00    -0.068 OA 
HETATM   26  C   UNL     1      -7.707   7.453  67.927  1.00  0.00    -0.116 C  
HETATM   27  H   UNL     1      -6.560   9.528  69.203  1.00  0.00     0.000 HD 
HETATM   28  C   UNL     1      -6.129  11.247  66.103  1.00  0.00    -0.034 C  
ENDROOT
BRANCH  15  29
HETATM   29  O   UNL     1      -7.734  12.384  67.555  1.00  0.00    -0.140 OA 
BRANCH  29  30
HETATM   30  C   UNL     1      -7.774  13.399  68.485  1.00  0.00    -0.124 C  
HETATM   31  O   UNL     1      -6.858  13.607  69.271  1.00  0.00    -0.108 OA 
BRANCH  30  32
HETATM   32  C   UNL     1      -9.163  14.204  68.453  1.00  0.00    -0.203 C  
HETATM   33  O   UNL     1      -9.368  15.026  67.298  1.00  0.00    -0.194 OA 
HETATM   34  H   UNL     1     -10.190  15.502  67.279  1.00  0.00     0.000 HD 
BRANCH  32  35
HETATM   35  C   UNL     1      -9.347  15.060  69.762  1.00  0.00     0.080 C  
BRANCH  35  36
HETATM   36  N   UNL     1      -8.741  16.402  69.556  1.00  0.00     0.029 N  
HETATM   37  C   UNL     1      -9.496  17.343  68.967  1.00  0.00    -0.119 C  
HETATM   38  O   UNL     1     -10.517  17.178  68.408  1.00  0.00    -0.334 OA 
HETATM   39  H   UNL     1      -7.786  16.600  69.852  1.00  0.00     0.000 HD 
BRANCH  37  40
HETATM   40  O   UNL     1      -8.907  18.593  69.189  1.00  0.00    -0.130 OA 
HETATM   41  C   UNL     1      -7.774  18.933  68.374  1.00  0.00    -0.319 C  
HETATM   42  C   UNL     1      -8.161  18.950  66.883  1.00  0.00    -0.275 C  
HETATM   43  C   UNL     1      -6.582  18.006  68.658  1.00  0.00    -0.228 C  
HETATM   44  C   UNL     1      -7.388  20.364  68.783  1.00  0.00     0.073 C  
ENDBRANCH  37  40
ENDBRANCH  35  36
BRANCH  35  45
HETATM   45  C   UNL     1     -10.717  15.214  70.447  1.00  0.00    -0.211 A  
HETATM   46  C   UNL     1     -10.958  15.874  71.659  1.00  0.00     0.162 A  
HETATM   47  C   UNL     1     -13.336  15.306  71.587  1.00  0.00    -0.553 A  
HETATM   48  C   UNL     1     -11.837  14.595  69.834  1.00  0.00    -0.372 A  
HETATM   49  C   UNL     1     -12.256  15.923  72.218  1.00  0.00    -0.585 A  
HETATM   50  C   UNL     1     -13.124  14.637  70.391  1.00  0.00    -0.161 A  
ENDBRANCH  35  45
ENDBRANCH  32  35
ENDBRANCH  30  32
ENDBRANCH  29  30
ENDBRANCH  15  29
BRANCH  22  51
HETATM   51  O   UNL     1      -9.407   6.872  69.399  1.00  0.00    -0.147 OA 
BRANCH  51  52
HETATM   52  C   UNL     1     -10.446   6.063  69.971  1.00  0.00    -0.250 C  
HETATM   53  O   UNL     1     -11.606   6.242  69.607  1.00  0.00    -0.430 OA 
BRANCH  52  54
HETATM   54  C   UNL     1     -10.312   4.982  71.264  1.00  0.00    -0.255 A  
HETATM   55  C   UNL     1      -9.649   2.935  72.591  1.00  0.00    -0.172 A  
HETATM   56  C   UNL     1     -11.140   4.458  73.630  1.00  0.00    -0.361 A  
HETATM   57  C   UNL     1     -11.062   5.273  72.448  1.00  0.00    -0.260 A  
HETATM   58  C   UNL     1      -9.597   3.769  71.417  1.00  0.00    -0.236 A  
HETATM   59  C   UNL     1     -10.418   3.262  73.716  1.00  0.00    -0.256 A  
ENDBRANCH  52  54
ENDBRANCH  51  52
ENDBRANCH  22  51
BRANCH  18  60
HETATM   60  O   UNL     1      -7.875   7.897  70.707  1.00  0.00    -0.087 OA 
BRANCH  60  61
HETATM   61  C   UNL     1      -7.402   8.554  71.872  1.00  0.00    -0.093 C  
HETATM   62  C   UNL     1      -7.900   8.071  73.204  1.00  0.00    -0.206 C  
HETATM   63  O   UNL     1      -6.683   9.552  71.990  1.00  0.00    -0.282 OA 
ENDBRANCH  60  61
ENDBRANCH  18  60
TORSDOF 12
ENDMDL
MODEL       21
REMARK 921   NORMALIZED FREE ENERGY PREDICTED BY IDOCK:   -4.44 KCAL/MOL
REMARK 922        TOTAL FREE ENERGY PREDICTED BY IDOCK:  -10.22 KCAL/MOL
REMARK 923 INTER-LIGAND FREE ENERGY PREDICTED BY IDOCK:   -7.65 KCAL/MOL
REMARK 924 INTRA-LIGAND FREE ENERGY PREDICTED BY IDOCK:   -2.57 KCAL/MOL
REMARK 927      BINDING AFFINITY PREDICTED BY RF-SCORE:    0.00 PKD
ROOT
HETATM    1  C   UNL     1      -9.992  15.853  68.699  1.00  0.00    -0.214 C  
HETATM    2  C   UNL     1     -10.473  16.774  67.574  1.00  0.00    -0.319 C  
HETATM    3  C   UNL     1     -11.536  15.957  66.792  1.00  0.00     0.287 C  
HETATM    4  O   UNL     1     -12.624  15.663  67.681  1.00  0.00     0.451 OA 
HETATM    5  C   UNL     1     -10.839  14.724  66.178  1.00  0.00    -0.321 C  
HETATM    6  H   UNL     1     -13.275  15.163  67.204  1.00  0.00     0.000 HD 
HETATM    7  C   UNL     1     -11.992  13.738  65.579  1.00  0.00    -0.384 C  
HETATM    8  C   UNL     1     -10.258  15.194  64.800  1.00  0.00    -0.085 C  
HETATM    9  C   UNL     1     -11.677  12.435  64.755  1.00  0.00    -0.368 C  
HETATM   10  O   UNL     1     -13.189  14.070  65.611  1.00  0.00    -0.634 OA 
HETATM   11  O   UNL     1     -12.833  11.587  64.671  1.00  0.00     0.227 OA 
HETATM   12  C   UNL     1     -10.613  11.554  65.303  1.00  0.00    -0.339 C  
HETATM   13  C   UNL     1      -9.588  10.958  64.646  1.00  0.00    -0.305 C  
HETATM   14  H   UNL     1     -12.642  10.800  64.173  1.00  0.00     0.000 HD 
HETATM   15  C   UNL     1      -8.448   9.947  65.439  1.00  0.00    -0.147 C  
HETATM   16  C   UNL     1      -9.261  11.377  63.213  1.00  0.00    -0.200 C  
HETATM   17  C   UNL     1      -7.812  11.214  65.905  1.00  0.00     0.036 C  
HETATM   18  C   UNL     1      -9.095  14.551  68.728  1.00  0.00    -0.158 C  
HETATM   19  C   UNL     1      -9.486  14.914  70.312  1.00  0.00     0.728 C  
HETATM   20  C   UNL     1      -8.772  12.009  66.935  1.00  0.00    -0.193 C  
HETATM   21  O   UNL     1      -9.441  16.354  69.918  1.00  0.00     0.153 OA 
HETATM   22  C   UNL     1      -8.466  13.818  66.515  1.00  0.00     0.331 C  
HETATM   23  C   UNL     1     -11.684  11.910  67.721  1.00  0.00    -0.362 C  
HETATM   24  C   UNL     1     -10.513  11.369  66.770  1.00  0.00    -0.284 C  
HETATM   25  O   UNL     1      -8.465  11.668  68.299  1.00  0.00    -0.149 OA 
HETATM   26  C   UNL     1      -9.692  14.156  67.251  1.00  0.00    -0.236 C  
HETATM   27  H   UNL     1      -9.030  12.136  68.904  1.00  0.00     0.000 HD 
HETATM   28  C   UNL     1     -11.007   9.865  66.985  1.00  0.00    -0.098 C  
ENDROOT
BRANCH  15  29
HETATM   29  O   UNL     1      -8.623   9.346  66.830  1.00  0.00    -0.126 OA 
BRANCH  29  30
HETATM   30  C   UNL     1      -7.822   8.341  67.326  1.00  0.00    -0.105 C  
HETATM   31  O   UNL     1      -6.781   7.999  66.780  1.00  0.00    -0.061 OA 
BRANCH  30  32
HETATM   32  C   UNL     1      -8.448   7.648  68.633  1.00  0.00    -0.129 C  
HETATM   33  O   UNL     1      -7.517   7.377  69.688  1.00  0.00    -0.088 OA 
HETATM   34  H   UNL     1      -7.888   6.968  70.461  1.00  0.00     0.000 HD 
BRANCH  32  35
HETATM   35  C   UNL     1      -9.229   6.334  68.254  1.00  0.00    -0.111 C  
BRANCH  35  36
HETATM   36  N   UNL     1      -8.765   5.858  66.924  1.00  0.00    -0.111 N  
HETATM   37  C   UNL     1      -9.690   5.389  66.072  1.00  0.00    -0.112 C  
HETATM   38  O   UNL     1     -10.806   5.118  66.324  1.00  0.00    -0.296 OA 
HETATM   39  H   UNL     1      -7.778   5.888  66.667  1.00  0.00     0.000 HD 
BRANCH  37  40
HETATM   40  O   UNL     1      -9.134   5.339  64.788  1.00  0.00    -0.083 OA 
HETATM   41  C   UNL     1      -8.976   4.038  64.198  1.00  0.00    -0.135 C  
HETATM   42  C   UNL     1     -10.340   3.338  64.053  1.00  0.00    -0.191 C  
HETATM   43  C   UNL     1      -7.962   3.188  64.978  1.00  0.00    -0.082 C  
HETATM   44  C   UNL     1      -8.418   4.293  62.788  1.00  0.00    -0.091 C  
ENDBRANCH  37  40
ENDBRANCH  35  36
BRANCH  35  45
HETATM   45  C   UNL     1      -9.330   5.140  69.220  1.00  0.00    -0.172 A  
HETATM   46  C   UNL     1     -10.149   5.070  70.354  1.00  0.00    -0.330 A  
HETATM   47  C   UNL     1      -9.295   2.852  70.932  1.00  0.00    -0.220 A  
HETATM   48  C   UNL     1      -8.486   4.024  68.983  1.00  0.00    -0.099 A  
HETATM   49  C   UNL     1     -10.135   3.934  71.196  1.00  0.00    -0.066 A  
HETATM   50  C   UNL     1      -8.465   2.900  69.822  1.00  0.00    -0.098 A  
ENDBRANCH  35  45
ENDBRANCH  32  35
ENDBRANCH  30  32
ENDBRANCH  29  30
ENDBRANCH  15  29
BRANCH  22  51
HETATM   51  O   UNL     1      -7.686  15.316  67.092  1.00  0.00    -0.197 OA 
BRANCH  51  52
HETATM   52  C   UNL     1      -6.607  16.246  66.922  1.00  0.00    -0.088 C  
HETATM   53  O   UNL     1      -5.468  15.812  66.766  1.00  0.00    -0.088 OA 
BRANCH  52  54
HETATM   54  C   UNL     1      -6.660  17.926  67.100  1.00  0.00    -0.196 A  
HETATM   55  C   UNL     1      -6.292  20.224  68.089  1.00  0.00    -0.315 A  
HETATM   56  C   UNL     1      -7.670  20.085  66.165  1.00  0.00    -0.320 A  
HETATM   57  C   UNL     1      -7.441  18.666  66.155  1.00  0.00    -0.287 A  
HETATM   58  C   UNL     1      -6.086  18.798  68.059  1.00  0.00    -0.199 A  
HETATM   59  C   UNL     1      -7.084  20.893  67.146  1.00  0.00    -0.413 A  
ENDBRANCH  52  54
ENDBRANCH  51  52
ENDBRANCH  22  51
BRANCH  18  60
HETATM   60  O   UNL     1      -7.540  14.234  69.071  1.00  0.00    -0.126 OA 
BRANCH  60  61
HETATM   61  C   UNL     1      -6.719  14.473  70.204  1.00  0.00    -0.089 C  
HETATM   62  C   UNL     1      -6.088  15.828  70.343  1.00  0.00     0.015 C  
HETATM   63  O   UNL     1      -6.346  13.703  71.096  1.00  0.00    -0.054 OA 
ENDBRANCH  60  61
ENDBRANCH  18  60
TORSDOF 12
ENDMDL
MODEL       22
REMARK 921   NORMALIZED FREE ENERGY PREDICTED BY IDOCK:   -4.33 KCAL/MOL
REMARK 922        TOTAL FREE ENERGY PREDICTED BY IDOCK:  -10.04 KCAL/MOL
REMARK 923 INTER-LIGAND FREE ENERGY PREDICTED BY IDOCK:  -10.73 KCAL/MOL
REMARK 924 INTRA-LIGAND FREE ENERGY PREDICTED BY IDOCK:    0.70 KCAL/MOL
REMARK 927      BINDING AFFINITY PREDICTED BY RF-SCORE:    0.00 PKD
ROOT
HETATM    1  C   UNL     1      -7.274   7.194  69.986  1.00  0.00    -0.078 C  
HETATM    2  C   UNL     1      -7.320   6.057  68.961  1.00  0.00    -0.085 C  
HETATM    3  C   UNL     1      -6.722   6.648  67.657  1.00  0.00    -0.070 C  
HETATM    4  O   UNL     1      -5.359   7.020  67.912  1.00  0.00    -0.014 OA 
HETATM    5  C   UNL     1      -7.638   7.797  67.184  1.00  0.00    -0.100 C  
HETATM    6  H   UNL     1      -4.993   7.382  67.114  1.00  0.00     0.000 HD 
HETATM    7  C   UNL     1      -6.882   8.579  65.969  1.00  0.00    -0.061 C  
HETATM    8  C   UNL     1      -8.757   7.129  66.312  1.00  0.00    -0.156 C  
HETATM    9  C   UNL     1      -7.549   9.733  65.133  1.00  0.00    -0.125 C  
HETATM   10  O   UNL     1      -5.787   8.177  65.541  1.00  0.00    -0.040 OA 
HETATM   11  O   UNL     1      -6.563  10.472  64.396  1.00  0.00    -0.323 OA 
HETATM   12  C   UNL     1      -8.280  10.769  65.910  1.00  0.00    -0.155 C  
HETATM   13  C   UNL     1      -9.499  11.306  65.663  1.00  0.00    -0.254 C  
HETATM   14  H   UNL     1      -6.966  11.169  63.891  1.00  0.00     0.000 HD 
HETATM   15  C   UNL     1     -10.193  12.518  66.664  1.00  0.00    -0.230 C  
HETATM   16  C   UNL     1     -10.415  10.663  64.622  1.00  0.00    -0.275 C  
HETATM   17  C   UNL     1     -10.538  11.400  67.591  1.00  0.00    -0.240 C  
HETATM   18  C   UNL     1      -8.090   8.539  70.154  1.00  0.00    -0.111 C  
HETATM   19  C   UNL     1      -7.036   8.438  71.448  1.00  0.00    -0.074 C  
HETATM   20  C   UNL     1      -9.210  10.737  68.232  1.00  0.00    -0.157 C  
HETATM   21  O   UNL     1      -7.225   6.957  71.394  1.00  0.00    -0.077 OA 
HETATM   22  C   UNL     1      -9.638   8.907  68.339  1.00  0.00    -0.146 C  
HETATM   23  C   UNL     1      -6.251  10.776  67.642  1.00  0.00    -0.052 C  
HETATM   24  C   UNL     1      -7.729  11.217  67.210  1.00  0.00    -0.138 C  
HETATM   25  O   UNL     1      -8.893  11.335  69.502  1.00  0.00    -0.300 OA 
HETATM   26  C   UNL     1      -8.207   8.624  68.519  1.00  0.00    -0.122 C  
HETATM   27  H   UNL     1      -8.112  10.946  69.878  1.00  0.00     0.000 HD 
HETATM   28  C   UNL     1      -7.217  12.699  66.899  1.00  0.00     0.206 C  
ENDROOT
BRANCH  15  29
HETATM   29  O   UNL     1      -9.436  13.343  67.699  1.00  0.00    -0.203 OA 
BRANCH  29  30
HETATM   30  C   UNL     1     -10.006  14.382  68.402  1.00  0.00    -0.241 C  
HETATM   31  O   UNL     1     -10.627  14.209  69.443  1.00  0.00    -0.165 OA 
BRANCH  30  32
HETATM   32  C   UNL     1      -9.815  15.796  67.665  1.00  0.00    -0.232 C  
HETATM   33  O   UNL     1     -10.719  16.050  66.583  1.00  0.00    -0.311 OA 
HETATM   34  H   UNL     1     -10.607  16.887  66.148  1.00  0.00     0.000 HD 
BRANCH  32  35
HETATM   35  C   UNL     1      -8.329  15.982  67.180  1.00  0.00    -0.199 C  
BRANCH  35  36
HETATM   36  N   UNL     1      -8.284  17.054  66.150  1.00  0.00    -0.284 N  
HETATM   37  C   UNL     1      -8.706  18.278  66.504  1.00  0.00    -0.274 C  
HETATM   38  O   UNL     1      -9.299  18.562  67.478  1.00  0.00    -0.276 OA 
HETATM   39  H   UNL     1      -7.944  16.865  65.207  1.00  0.00     0.000 HD 
BRANCH  37  40
HETATM   40  O   UNL     1      -8.256  19.200  65.552  1.00  0.00    -0.298 OA 
HETATM   41  C   UNL     1      -6.999  19.845  65.815  1.00  0.00    -0.296 C  
HETATM   42  C   UNL     1      -5.865  18.808  65.910  1.00  0.00    -0.205 C  
HETATM   43  C   UNL     1      -7.079  20.741  67.060  1.00  0.00    -0.383 C  
HETATM   44  C   UNL     1      -6.731  20.735  64.590  1.00  0.00    -0.157 C  
ENDBRANCH  37  40
ENDBRANCH  35  36
BRANCH  35  45
HETATM   45  C   UNL     1      -7.167  16.174  68.171  1.00  0.00    -0.140 A  
HETATM   46  C   UNL     1      -6.217  15.204  68.518  1.00  0.00    -0.093 A  
HETATM   47  C   UNL     1      -5.138  16.717  70.109  1.00  0.00    -0.184 A  
HETATM   48  C   UNL     1      -7.066  17.421  68.839  1.00  0.00    -0.251 A  
HETATM   49  C   UNL     1      -5.210  15.478  69.473  1.00  0.00    -0.099 A  
HETATM   50  C   UNL     1      -6.072  17.691  69.792  1.00  0.00    -0.216 A  
ENDBRANCH  35  45
ENDBRANCH  32  35
ENDBRANCH  30  32
ENDBRANCH  29  30
ENDBRANCH  15  29
BRANCH  22  51
HETATM   51  O   UNL     1     -10.060   7.593  69.469  1.00  0.00    -0.183 OA 
BRANCH  51  52
HETATM   52  C   UNL     1     -10.812   6.389  69.679  1.00  0.00    -0.320 C  
HETATM   53  O   UNL     1     -11.978   6.342  69.293  1.00  0.00     0.045 OA 
BRANCH  52  54
HETATM   54  C   UNL     1     -10.356   5.038  70.587  1.00  0.00    -0.278 A  
HETATM   55  C   UNL     1      -9.502   2.723  71.138  1.00  0.00    -0.225 A  
HETATM   56  C   UNL     1     -10.361   4.012  72.933  1.00  0.00    -0.238 A  
HETATM   57  C   UNL     1     -10.610   5.073  71.996  1.00  0.00    -0.243 A  
HETATM   58  C   UNL     1      -9.771   3.801  70.220  1.00  0.00    -0.222 A  
HETATM   59  C   UNL     1      -9.791   2.807  72.507  1.00  0.00    -0.217 A  
ENDBRANCH  52  54
ENDBRANCH  51  52
ENDBRANCH  22  51
BRANCH  18  60
HETATM   60  O   UNL     1      -9.341   9.018  71.071  1.00  0.00    -0.229 OA 
BRANCH  60  61
HETATM   61  C   UNL     1      -9.888   8.559  72.297  1.00  0.00    -0.313 C  
HETATM   62  C   UNL     1      -8.945   8.312  73.440  1.00  0.00    -0.260 C  
HETATM   63  O   UNL     1     -11.044   8.232  72.583  1.00  0.00    -0.367 OA 
ENDBRANCH  60  61
ENDBRANCH  18  60
TORSDOF 12
ENDMDL
MODEL       23
REMARK 921   NORMALIZED FREE ENERGY PREDICTED BY IDOCK:   -4.18 KCAL/MOL
REMARK 922        TOTAL FREE ENERGY PREDICTED BY IDOCK:   -9.77 KCAL/MOL
REMARK 923 INTER-LIGAND FREE ENERGY PREDICTED BY IDOCK:   -7.23 KCAL/MOL
REMARK 924 INTRA-LIGAND FREE ENERGY PREDICTED BY IDOCK:   -2.55 KCAL/MOL
REMARK 927      BINDING AFFINITY PREDICTED BY RF-SCORE:    0.00 PKD
ROOT
HETATM    1  C   UNL     1      -9.804  10.143  69.457  1.00  0.00    -0.232 C  
HETATM    2  C   UNL     1      -9.848  11.573  68.913  1.00  0.00    -0.091 C  
HETATM    3  C   UNL     1     -10.182  11.435  67.403  1.00  0.00    -0.193 C  
HETATM    4  O   UNL     1     -11.476  10.826  67.281  1.00  0.00    -0.436 OA 
HETATM    5  C   UNL     1      -9.029  10.667  66.724  1.00  0.00    -0.149 C  
HETATM    6  H   UNL     1     -11.681  10.741  66.357  1.00  0.00     0.000 HD 
HETATM    7  C   UNL     1      -9.493  10.298  65.204  1.00  0.00    -0.252 C  
HETATM    8  C   UNL     1      -7.957  11.744  66.338  1.00  0.00     0.065 C  
HETATM    9  C   UNL     1      -8.541   9.628  64.145  1.00  0.00    -0.194 C  
HETATM   10  O   UNL     1     -10.587  10.689  64.764  1.00  0.00    -0.291 OA 
HETATM   11  O   UNL     1      -9.292   9.094  63.043  1.00  0.00    -0.476 OA 
HETATM   12  C   UNL     1      -7.729   8.480  64.627  1.00  0.00    -0.116 C  
HETATM   13  C   UNL     1      -6.414   8.230  64.418  1.00  0.00    -0.066 C  
HETATM   14  H   UNL     1      -8.717   8.689  62.404  1.00  0.00     0.000 HD 
HETATM   15  C   UNL     1      -5.631   6.832  65.039  1.00  0.00    -0.031 C  
HETATM   16  C   UNL     1      -5.517   9.321  63.835  1.00  0.00    -0.062 C  
HETATM   17  C   UNL     1      -5.596   7.563  66.340  1.00  0.00    -0.028 C  
HETATM   18  C   UNL     1      -8.786   8.945  69.283  1.00  0.00    -0.138 C  
HETATM   19  C   UNL     1      -9.978   8.428  70.335  1.00  0.00    -0.185 C  
HETATM   20  C   UNL     1      -7.084   7.770  66.937  1.00  0.00    -0.081 C  
HETATM   21  O   UNL     1     -10.051   9.836  70.830  1.00  0.00    -0.243 OA 
HETATM   22  C   UNL     1      -7.004   9.470  67.741  1.00  0.00    -0.080 C  
HETATM   23  C   UNL     1      -9.904   7.579  65.881  1.00  0.00     0.417 C  
HETATM   24  C   UNL     1      -8.332   7.518  65.578  1.00  0.00    -0.137 C  
HETATM   25  O   UNL     1      -7.429   6.711  67.849  1.00  0.00    -0.093 OA 
HETATM   26  C   UNL     1      -8.473   9.485  67.765  1.00  0.00    -0.119 C  
HETATM   27  H   UNL     1      -8.304   6.833  68.200  1.00  0.00     0.000 HD 
HETATM   28  C   UNL     1      -8.534   6.203  64.693  1.00  0.00     0.020 C  
ENDROOT
BRANCH  15  29
HETATM   29  O   UNL     1      -6.340   5.594  65.581  1.00  0.00    -0.036 OA 
BRANCH  29  30
HETATM   30  C   UNL     1      -6.143   4.329  65.075  1.00  0.00    -0.023 C  
HETATM   31  O   UNL     1      -5.848   4.126  63.905  1.00  0.00    -0.014 OA 
BRANCH  30  32
HETATM   32  C   UNL     1      -6.411   3.184  66.170  1.00  0.00    -0.032 C  
HETATM   33  O   UNL     1      -5.530   2.056  66.106  1.00  0.00    -0.012 OA 
HETATM   34  H   UNL     1      -5.688   1.380  66.753  1.00  0.00     0.000 HD 
BRANCH  32  35
HETATM   35  C   UNL     1      -7.909   2.700  66.122  1.00  0.00    -0.081 C  
BRANCH  35  36
HETATM   36  N   UNL     1      -8.719   3.534  67.049  1.00  0.00    -0.112 N  
HETATM   37  C   UNL     1      -9.364   2.909  68.048  1.00  0.00    -0.205 C  
HETATM   38  O   UNL     1      -9.530   1.751  68.161  1.00  0.00    -0.186 OA 
HETATM   39  H   UNL     1      -8.783   4.545  66.931  1.00  0.00     0.000 HD 
BRANCH  37  40
HETATM   40  O   UNL     1      -9.754   3.862  68.996  1.00  0.00    -0.164 OA 
HETATM   41  C   UNL     1      -9.167   3.757  70.303  1.00  0.00    -0.149 C  
HETATM   42  C   UNL     1      -7.635   3.897  70.225  1.00  0.00    -0.045 C  
HETATM   43  C   UNL     1      -9.600   2.463  71.009  1.00  0.00    -0.203 C  
HETATM   44  C   UNL     1      -9.715   4.954  71.097  1.00  0.00    -0.245 C  
ENDBRANCH  37  40
ENDBRANCH  35  36
BRANCH  35  45
HETATM   45  C   UNL     1      -8.666   2.525  64.794  1.00  0.00    -0.110 A  
HETATM   46  C   UNL     1      -8.248   1.744  63.709  1.00  0.00    -0.072 A  
HETATM   47  C   UNL     1     -10.189   2.412  62.378  1.00  0.00    -0.098 A  
HETATM   48  C   UNL     1      -9.870   3.254  64.617  1.00  0.00    -0.121 A  
HETATM   49  C   UNL     1      -9.006   1.685  62.517  1.00  0.00    -0.072 A  
HETATM   50  C   UNL     1     -10.620   3.203  63.433  1.00  0.00    -0.246 A  
ENDBRANCH  35  45
ENDBRANCH  32  35
ENDBRANCH  30  32
ENDBRANCH  29  30
ENDBRANCH  15  29
BRANCH  22  51
HETATM   51  O   UNL     1      -6.952  10.317  69.311  1.00  0.00    -0.058 OA 
BRANCH  51  52
HETATM   52  C   UNL     1      -6.331  11.344  70.098  1.00  0.00    -0.099 C  
HETATM   53  O   UNL     1      -5.891  11.057  71.208  1.00  0.00    -0.353 OA 
BRANCH  52  54
HETATM   54  C   UNL     1      -6.287  13.002  69.772  1.00  0.00    -0.063 A  
HETATM   55  C   UNL     1      -6.558  15.189  68.531  1.00  0.00    -0.099 A  
HETATM   56  C   UNL     1      -5.465  15.269  70.634  1.00  0.00    -0.131 A  
HETATM   57  C   UNL     1      -5.664  13.850  70.744  1.00  0.00    -0.199 A  
HETATM   58  C   UNL     1      -6.737  13.765  68.666  1.00  0.00    -0.099 A  
HETATM   59  C   UNL     1      -5.922  15.965  69.509  1.00  0.00    -0.145 A  
ENDBRANCH  52  54
ENDBRANCH  51  52
ENDBRANCH  22  51
BRANCH  18  60
HETATM   60  O   UNL     1      -7.579   8.324  70.175  1.00  0.00    -0.072 OA 
BRANCH  60  61
HETATM   61  C   UNL     1      -7.400   8.110  71.566  1.00  0.00    -0.080 C  
HETATM   62  C   UNL     1      -6.659   6.877  71.999  1.00  0.00    -0.053 C  
HETATM   63  O   UNL     1      -7.836   8.742  72.533  1.00  0.00    -0.363 OA 
ENDBRANCH  60  61
ENDBRANCH  18  60
TORSDOF 12
ENDMDL
MODEL       24
REMARK 921   NORMALIZED FREE ENERGY PREDICTED BY IDOCK:   -4.15 KCAL/MOL
REMARK 922        TOTAL FREE ENERGY PREDICTED BY IDOCK:   -9.73 KCAL/MOL
REMARK 923 INTER-LIGAND FREE ENERGY PREDICTED BY IDOCK:   -8.30 KCAL/MOL
REMARK 924 INTRA-LIGAND FREE ENERGY PREDICTED BY IDOCK:   -1.43 KCAL/MOL
REMARK 927      BINDING AFFINITY PREDICTED BY RF-SCORE:    0.00 PKD
ROOT
HETATM    1  C   UNL     1     -10.528  12.227  64.875  1.00  0.00    -0.289 C  
HETATM    2  C   UNL     1      -9.420  12.547  63.867  1.00  0.00     0.482 C  
HETATM    3  C   UNL     1      -8.925  11.173  63.342  1.00  0.00    -0.092 C  
HETATM    4  O   UNL     1     -10.018  10.523  62.676  1.00  0.00    -0.681 OA 
HETATM    5  C   UNL     1      -8.323  10.392  64.530  1.00  0.00    -0.146 C  
HETATM    6  H   UNL     1      -9.715   9.682  62.354  1.00  0.00     0.000 HD 
HETATM    7  C   UNL     1      -8.039   8.863  64.037  1.00  0.00    -0.161 C  
HETATM    8  C   UNL     1      -6.824  10.840  64.629  1.00  0.00     0.312 C  
HETATM    9  C   UNL     1      -7.306   7.789  64.923  1.00  0.00    -0.070 C  
HETATM   10  O   UNL     1      -8.249   8.528  62.860  1.00  0.00    -0.178 OA 
HETATM   11  O   UNL     1      -7.513   6.466  64.405  1.00  0.00    -0.076 OA 
HETATM   12  C   UNL     1      -7.742   7.700  66.342  1.00  0.00    -0.089 C  
HETATM   13  C   UNL     1      -6.977   7.615  67.456  1.00  0.00    -0.081 C  
HETATM   14  H   UNL     1      -7.070   5.817  64.940  1.00  0.00     0.000 HD 
HETATM   15  C   UNL     1      -7.651   7.500  69.032  1.00  0.00    -0.108 C  
HETATM   16  C   UNL     1      -5.474   7.878  67.367  1.00  0.00    -0.036 C  
HETATM   17  C   UNL     1      -7.869   8.973  68.928  1.00  0.00    -0.095 C  
HETATM   18  C   UNL     1     -10.528  11.607  66.330  1.00  0.00    -0.246 C  
HETATM   19  C   UNL     1     -12.112  11.990  65.960  1.00  0.00     0.146 C  
HETATM   20  C   UNL     1      -8.968   9.326  67.795  1.00  0.00    -0.126 C  
HETATM   21  O   UNL     1     -11.574  13.149  65.184  1.00  0.00    -0.304 OA 
HETATM   22  C   UNL     1      -8.323  10.923  67.036  1.00  0.00    -0.132 C  
HETATM   23  C   UNL     1     -10.263   7.877  65.487  1.00  0.00     1.950 C  
HETATM   24  C   UNL     1      -9.178   7.860  66.666  1.00  0.00    -0.221 C  
HETATM   25  O   UNL     1     -10.283   9.444  68.368  1.00  0.00    -0.182 OA 
HETATM   26  C   UNL     1      -9.227  10.702  65.900  1.00  0.00    -0.209 C  
HETATM   27  H   UNL     1     -10.929   9.651  67.702  1.00  0.00     0.000 HD 
HETATM   28  C   UNL     1      -9.626   6.384  67.084  1.00  0.00    -0.157 C  
ENDROOT
BRANCH  15  29
HETATM   29  O   UNL     1      -9.104   7.156  69.344  1.00  0.00    -0.145 OA 
BRANCH  29  30
HETATM   30  C   UNL     1      -9.497   5.947  69.875  1.00  0.00    -0.150 C  
HETATM   31  O   UNL     1      -8.698   5.071  70.180  1.00  0.00    -0.105 OA 
BRANCH  30  32
HETATM   32  C   UNL     1     -11.095   5.812  69.973  1.00  0.00    -0.258 C  
HETATM   33  O   UNL     1     -11.829   6.452  68.922  1.00  0.00    -0.404 OA 
HETATM   34  H   UNL     1     -12.774   6.372  68.980  1.00  0.00     0.000 HD 
BRANCH  32  35
HETATM   35  C   UNL     1     -11.616   6.309  71.373  1.00  0.00    -0.278 C  
BRANCH  35  36
HETATM   36  N   UNL     1     -10.555   6.092  72.392  1.00  0.00    -0.203 N  
HETATM   37  C   UNL     1     -10.751   5.124  73.302  1.00  0.00    -0.266 C  
HETATM   38  O   UNL     1     -11.757   4.555  73.516  1.00  0.00    -0.239 OA 
HETATM   39  H   UNL     1      -9.707   6.660  72.400  1.00  0.00     0.000 HD 
BRANCH  37  40
HETATM   40  O   UNL     1      -9.529   4.835  73.919  1.00  0.00    -0.126 OA 
HETATM   41  C   UNL     1      -9.039   3.490  73.793  1.00  0.00    -0.090 C  
HETATM   42  C   UNL     1      -8.815   3.130  72.312  1.00  0.00    -0.116 C  
HETATM   43  C   UNL     1      -9.960   2.488  74.505  1.00  0.00    -0.159 C  
HETATM   44  C   UNL     1      -7.672   3.484  74.497  1.00  0.00    -0.058 C  
ENDBRANCH  37  40
ENDBRANCH  35  36
BRANCH  35  45
HETATM   45  C   UNL     1     -12.234   7.705  71.563  1.00  0.00    -0.351 A  
HETATM   46  C   UNL     1     -11.568   8.926  71.396  1.00  0.00    -0.382 A  
HETATM   47  C   UNL     1     -13.554  10.192  72.056  1.00  0.00    -0.328 A  
HETATM   48  C   UNL     1     -13.583   7.779  71.997  1.00  0.00    -0.253 A  
HETATM   49  C   UNL     1     -12.225  10.155  71.634  1.00  0.00    -0.422 A  
HETATM   50  C   UNL     1     -14.234   8.997  72.241  1.00  0.00    -0.432 A  
ENDBRANCH  35  45
ENDBRANCH  32  35
ENDBRANCH  30  32
ENDBRANCH  29  30
ENDBRANCH  15  29
BRANCH  22  51
HETATM   51  O   UNL     1      -8.600  12.683  66.939  1.00  0.00    -0.200 OA 
BRANCH  51  52
HETATM   52  C   UNL     1      -8.037  13.994  67.090  1.00  0.00    -0.099 C  
HETATM   53  O   UNL     1      -6.815  14.115  67.125  1.00  0.00    -0.165 OA 
BRANCH  52  54
HETATM   54  C   UNL     1      -8.858  15.432  67.428  1.00  0.00    -0.196 A  
HETATM   55  C   UNL     1      -9.327  17.745  68.337  1.00  0.00    -0.294 A  
HETATM   56  C   UNL     1     -11.124  16.617  67.279  1.00  0.00     0.053 A  
HETATM   57  C   UNL     1     -10.232  15.517  67.032  1.00  0.00    -0.271 A  
HETATM   58  C   UNL     1      -8.457  16.624  68.081  1.00  0.00    -0.198 A  
HETATM   59  C   UNL     1     -10.671  17.764  67.941  1.00  0.00    -0.327 A  
ENDBRANCH  52  54
ENDBRANCH  51  52
ENDBRANCH  22  51
BRANCH  18  60
HETATM   60  O   UNL     1     -10.620  12.207  67.836  1.00  0.00    -0.197 OA 
BRANCH  60  61
HETATM   61  C   UNL     1     -11.674  12.332  68.777  1.00  0.00    -0.340 C  
HETATM   62  C   UNL     1     -11.649  13.507  69.711  1.00  0.00    -0.313 C  
HETATM   63  O   UNL     1     -12.610  11.567  69.033  1.00  0.00    -0.203 OA 
ENDBRANCH  60  61
ENDBRANCH  18  60
TORSDOF 12
ENDMDL
MODEL       25
REMARK 921   NORMALIZED FREE ENERGY PREDICTED BY IDOCK:   -4.14 KCAL/MOL
REMARK 922        TOTAL FREE ENERGY PREDICTED BY IDOCK:   -9.72 KCAL/MOL
REMARK 923 INTER-LIGAND FREE ENERGY PREDICTED BY IDOCK:   -9.14 KCAL/MOL
REMARK 924 INTRA-LIGAND FREE ENERGY PREDICTED BY IDOCK:   -0.58 KCAL/MOL
REMARK 927      BINDING AFFINITY PREDICTED BY RF-SCORE:    0.00 PKD
ROOT
HETATM    1  C   UNL     1      -8.949  15.661  66.406  1.00  0.00    -0.326 C  
HETATM    2  C   UNL     1      -8.299  16.324  67.625  1.00  0.00    -0.172 C  
HETATM    3  C   UNL     1      -7.071  15.441  67.973  1.00  0.00    -0.125 C  
HETATM    4  O   UNL     1      -6.163  15.470  66.861  1.00  0.00    -0.203 OA 
HETATM    5  C   UNL     1      -7.581  14.039  68.367  1.00  0.00    -0.129 C  
HETATM    6  H   UNL     1      -5.411  14.930  67.073  1.00  0.00     0.000 HD 
HETATM    7  C   UNL     1      -6.292  13.046  68.483  1.00  0.00    -0.081 C  
HETATM    8  C   UNL     1      -7.904  14.109  69.900  1.00  0.00     0.749 C  
HETATM    9  C   UNL     1      -6.385  11.560  68.992  1.00  0.00    -0.069 C  
HETATM   10  O   UNL     1      -5.140  13.483  68.326  1.00  0.00    -0.086 OA 
HETATM   11  O   UNL     1      -5.199  10.824  68.653  1.00  0.00    -0.041 OA 
HETATM   12  C   UNL     1      -7.496  10.744  68.435  1.00  0.00    -0.095 C  
HETATM   13  C   UNL     1      -8.347   9.918  69.090  1.00  0.00    -0.145 C  
HETATM   14  H   UNL     1      -5.256   9.927  68.960  1.00  0.00     0.000 HD 
HETATM   15  C   UNL     1      -9.574   9.029  68.281  1.00  0.00    -0.145 C  
HETATM   16  C   UNL     1      -8.409   9.948  70.617  1.00  0.00     0.309 C  
HETATM   17  C   UNL     1     -10.343  10.308  68.271  1.00  0.00    -0.209 C  
HETATM   18  C   UNL     1      -9.777  14.329  66.207  1.00  0.00    -0.302 C  
HETATM   19  C   UNL     1      -9.715  15.097  64.723  1.00  0.00     0.687 C  
HETATM   20  C   UNL     1      -9.636  11.411  67.324  1.00  0.00    -0.174 C  
HETATM   21  O   UNL     1      -9.746  16.389  65.471  1.00  0.00    -0.505 OA 
HETATM   22  C   UNL     1      -9.933  13.031  68.236  1.00  0.00    -0.235 C  
HETATM   23  C   UNL     1      -6.930  11.768  66.038  1.00  0.00     0.715 C  
HETATM   24  C   UNL     1      -7.869  10.910  67.012  1.00  0.00    -0.132 C  
HETATM   25  O   UNL     1     -10.186  11.383  65.995  1.00  0.00    -0.228 OA 
HETATM   26  C   UNL     1      -8.888  13.645  67.405  1.00  0.00    -0.221 C  
HETATM   27  H   UNL     1      -9.770  12.031  65.438  1.00  0.00     0.000 HD 
HETATM   28  C   UNL     1      -7.362   9.553  66.338  1.00  0.00    -0.093 C  
ENDROOT
BRANCH  15  29
HETATM   29  O   UNL     1      -9.646   8.799  66.774  1.00  0.00    -0.172 OA 
BRANCH  29  30
HETATM   30  C   UNL     1      -9.522   7.557  66.193  1.00  0.00    -0.028 C  
HETATM   31  O   UNL     1      -8.648   7.297  65.376  1.00  0.00    -0.121 OA 
BRANCH  30  32
HETATM   32  C   UNL     1     -10.680   6.545  66.657  1.00  0.00    -0.173 C  
HETATM   33  O   UNL     1     -11.654   7.097  67.551  1.00  0.00    -0.318 OA 
HETATM   34  H   UNL     1     -12.339   6.499  67.825  1.00  0.00     0.000 HD 
BRANCH  32  35
HETATM   35  C   UNL     1     -10.066   5.233  67.274  1.00  0.00    -0.195 C  
BRANCH  35  36
HETATM   36  N   UNL     1      -9.057   4.678  66.333  1.00  0.00    -0.116 N  
HETATM   37  C   UNL     1      -9.492   4.232  65.144  1.00  0.00    -0.172 C  
HETATM   38  O   UNL     1     -10.608   4.040  64.831  1.00  0.00    -0.223 OA 
HETATM   39  H   UNL     1      -8.069   4.639  66.583  1.00  0.00     0.000 HD 
BRANCH  37  40
HETATM   40  O   UNL     1      -8.394   4.099  64.286  1.00  0.00    -0.094 OA 
HETATM   41  C   UNL     1      -8.026   2.764  63.903  1.00  0.00    -0.081 C  
HETATM   42  C   UNL     1      -9.183   2.075  63.155  1.00  0.00    -0.091 C  
HETATM   43  C   UNL     1      -7.542   1.947  65.111  1.00  0.00    -0.067 C  
HETATM   44  C   UNL     1      -6.854   2.927  62.921  1.00  0.00    -0.028 C  
ENDBRANCH  37  40
ENDBRANCH  35  36
BRANCH  35  45
HETATM   45  C   UNL     1      -9.509   5.191  68.708  1.00  0.00    -0.181 A  
HETATM   46  C   UNL     1      -8.284   5.726  69.128  1.00  0.00    -0.101 A  
HETATM   47  C   UNL     1      -8.626   4.923  71.413  1.00  0.00    -0.132 A  
HETATM   48  C   UNL     1     -10.269   4.509  69.694  1.00  0.00    -0.019 A  
HETATM   49  C   UNL     1      -7.852   5.597  70.468  1.00  0.00    -0.099 A  
HETATM   50  C   UNL     1      -9.838   4.374  71.022  1.00  0.00    -0.260 A  
ENDBRANCH  35  45
ENDBRANCH  32  35
ENDBRANCH  30  32
ENDBRANCH  29  30
ENDBRANCH  15  29
BRANCH  22  51
HETATM   51  O   UNL     1     -10.874  14.546  68.205  1.00  0.00    -0.233 OA 
BRANCH  51  52
HETATM   52  C   UNL     1     -11.648  15.491  68.959  1.00  0.00    -0.365 C  
HETATM   53  O   UNL     1     -11.933  16.570  68.444  1.00  0.00     0.101 OA 
BRANCH  52  54
HETATM   54  C   UNL     1     -12.081  15.396  70.590  1.00  0.00    -0.412 A  
HETATM   55  C   UNL     1     -11.861  15.154  73.097  1.00  0.00    -0.438 A  
HETATM   56  C   UNL     1     -14.058  15.255  72.211  1.00  0.00    -0.651 A  
HETATM   57  C   UNL     1     -13.478  15.392  70.903  1.00  0.00    -0.427 A  
HETATM   58  C   UNL     1     -11.308  15.285  71.772  1.00  0.00    -0.445 A  
HETATM   59  C   UNL     1     -13.241  15.137  73.341  1.00  0.00    -0.488 A  
ENDBRANCH  52  54
ENDBRANCH  51  52
ENDBRANCH  22  51
BRANCH  18  60
HETATM   60  O   UNL     1     -11.354  13.964  66.075  1.00  0.00    -0.314 OA 
BRANCH  60  61
HETATM   61  C   UNL     1     -12.219  13.747  64.971  1.00  0.00    -0.424 C  
HETATM   62  C   UNL     1     -12.373  12.343  64.462  1.00  0.00    -0.519 C  
HETATM   63  O   UNL     1     -12.833  14.556  64.267  1.00  0.00    -0.590 OA 
ENDBRANCH  60  61
ENDBRANCH  18  60
TORSDOF 12
ENDMDL
MODEL       26
REMARK 921   NORMALIZED FREE ENERGY PREDICTED BY IDOCK:   -3.73 KCAL/MOL
REMARK 922        TOTAL FREE ENERGY PREDICTED BY IDOCK:   -9.01 KCAL/MOL
REMARK 923 INTER-LIGAND FREE ENERGY PREDICTED BY IDOCK:   -7.18 KCAL/MOL
REMARK 924 INTRA-LIGAND FREE ENERGY PREDICTED BY IDOCK:   -1.83 KCAL/MOL
REMARK 927      BINDING AFFINITY PREDICTED BY RF-SCORE:    0.00 PKD
ROOT
HETATM    1  C   UNL     1      -6.604   7.464  67.421  1.00  0.00    -0.061 C  
HETATM    2  C   UNL     1      -6.664   6.642  66.130  1.00  0.00    -0.049 C  
HETATM    3  C   UNL     1      -6.602   7.675  64.974  1.00  0.00    -0.044 C  
HETATM    4  O   UNL     1      -5.346   8.367  65.053  1.00  0.00    -0.035 OA 
HETATM    5  C   UNL     1      -7.853   8.574  65.064  1.00  0.00    -0.112 C  
HETATM    6  H   UNL     1      -5.308   9.000  64.346  1.00  0.00     0.000 HD 
HETATM    7  C   UNL     1      -7.663   9.812  64.017  1.00  0.00    -0.134 C  
HETATM    8  C   UNL     1      -8.982   7.829  64.271  1.00  0.00     0.908 C  
HETATM    9  C   UNL     1      -8.783  10.876  63.720  1.00  0.00    -0.012 C  
HETATM   10  O   UNL     1      -6.666   9.868  63.279  1.00  0.00    -0.114 OA 
HETATM   11  O   UNL     1      -8.236  12.029  63.061  1.00  0.00     0.186 OA 
HETATM   12  C   UNL     1      -9.491  11.431  64.904  1.00  0.00    -0.194 C  
HETATM   13  C   UNL     1     -10.822  11.620  65.079  1.00  0.00    -0.346 C  
HETATM   14  H   UNL     1      -8.913  12.671  62.882  1.00  0.00     0.000 HD 
HETATM   15  C   UNL     1     -11.475  12.297  66.517  1.00  0.00    -0.381 C  
HETATM   16  C   UNL     1     -11.813  10.997  64.097  1.00  0.00     0.979 C  
HETATM   17  C   UNL     1     -11.283  10.941  67.111  1.00  0.00    -0.258 C  
HETATM   18  C   UNL     1      -7.630   8.424  68.146  1.00  0.00    -0.098 C  
HETATM   19  C   UNL     1      -6.268   8.340  69.112  1.00  0.00    -0.039 C  
HETATM   20  C   UNL     1      -9.714  10.575  67.244  1.00  0.00    -0.169 C  
HETATM   21  O   UNL     1      -6.116   6.927  68.651  1.00  0.00    -0.024 OA 
HETATM   22  C   UNL     1      -9.659   8.730  66.874  1.00  0.00    -0.190 C  
HETATM   23  C   UNL     1      -7.124  11.635  66.116  1.00  0.00     0.361 C  
HETATM   24  C   UNL     1      -8.724  11.703  66.141  1.00  0.00    -0.094 C  
HETATM   25  O   UNL     1      -9.208  10.922  68.545  1.00  0.00    -0.166 OA 
HETATM   26  C   UNL     1      -8.209   8.853  66.672  1.00  0.00    -0.111 C  
HETATM   27  H   UNL     1      -8.286  10.707  68.623  1.00  0.00     0.000 HD 
HETATM   28  C   UNL     1      -8.676  13.299  66.199  1.00  0.00     0.499 C  
ENDROOT
BRANCH  15  29
HETATM   29  O   UNL     1     -10.675  13.042  67.581  1.00  0.00    -0.223 OA 
BRANCH  29  30
HETATM   30  C   UNL     1     -10.926  14.349  67.938  1.00  0.00    -0.262 C  
HETATM   31  O   UNL     1     -11.814  15.014  67.420  1.00  0.00    -0.309 OA 
BRANCH  30  32
HETATM   32  C   UNL     1      -9.890  14.892  69.037  1.00  0.00    -0.220 C  
HETATM   33  O   UNL     1      -9.191  13.881  69.774  1.00  0.00     0.368 OA 
HETATM   34  H   UNL     1      -8.578  14.202  70.424  1.00  0.00     0.000 HD 
BRANCH  32  35
HETATM   35  C   UNL     1     -10.595  15.890  70.031  1.00  0.00    -0.316 C  
BRANCH  35  36
HETATM   36  N   UNL     1     -11.166  17.024  69.257  1.00  0.00    -0.202 N  
HETATM   37  C   UNL     1     -10.315  17.948  68.784  1.00  0.00    -0.307 C  
HETATM   38  O   UNL     1      -9.184  18.079  69.079  1.00  0.00    -0.188 OA 
HETATM   39  H   UNL     1     -12.170  17.097  69.091  1.00  0.00     0.000 HD 
BRANCH  37  40
HETATM   40  O   UNL     1     -10.971  18.704  67.806  1.00  0.00    -0.333 OA 
HETATM   41  C   UNL     1     -10.154  19.285  66.776  1.00  0.00    -0.389 C  
HETATM   42  C   UNL     1      -9.417  18.189  65.984  1.00  0.00    -0.046 C  
HETATM   43  C   UNL     1      -9.194  20.338  67.350  1.00  0.00    -0.507 C  
HETATM   44  C   UNL     1     -11.135  19.986  65.822  1.00  0.00     0.062 C  
ENDBRANCH  37  40
ENDBRANCH  35  36
BRANCH  35  45
HETATM   45  C   UNL     1     -11.620  15.411  71.073  1.00  0.00    -0.410 A  
HETATM   46  C   UNL     1     -11.675  15.813  72.414  1.00  0.00    -0.577 A  
HETATM   47  C   UNL     1     -13.563  14.325  72.866  1.00  0.00    -0.400 A  
HETATM   48  C   UNL     1     -12.570  14.437  70.669  1.00  0.00    -0.424 A  
HETATM   49  C   UNL     1     -12.641  15.278  73.298  1.00  0.00    -0.617 A  
HETATM   50  C   UNL     1     -13.524  13.900  71.547  1.00  0.00    -0.383 A  
ENDBRANCH  35  45
ENDBRANCH  32  35
ENDBRANCH  30  32
ENDBRANCH  29  30
ENDBRANCH  15  29
BRANCH  22  51
HETATM   51  O   UNL     1      -9.437   7.121  67.614  1.00  0.00    -0.126 OA 
BRANCH  51  52
HETATM   52  C   UNL     1     -10.006   5.826  67.858  1.00  0.00    -0.137 C  
HETATM   53  O   UNL     1     -10.972   5.467  67.189  1.00  0.00    -0.115 OA 
BRANCH  52  54
HETATM   54  C   UNL     1      -9.632   4.761  69.115  1.00  0.00    -0.237 A  
HETATM   55  C   UNL     1      -9.590   3.730  71.424  1.00  0.00    -0.236 A  
HETATM   56  C   UNL     1      -8.175   2.764  69.786  1.00  0.00    -0.064 A  
HETATM   57  C   UNL     1      -8.677   3.729  68.845  1.00  0.00    -0.132 A  
HETATM   58  C   UNL     1     -10.070   4.689  70.461  1.00  0.00    -0.263 A  
HETATM   59  C   UNL     1      -8.637   2.753  71.106  1.00  0.00    -0.105 A  
ENDBRANCH  52  54
ENDBRANCH  51  52
ENDBRANCH  22  51
BRANCH  18  60
HETATM   60  O   UNL     1      -8.658   8.275  69.395  1.00  0.00    -0.131 OA 
BRANCH  60  61
HETATM   61  C   UNL     1      -8.612   8.682  70.754  1.00  0.00    -0.171 C  
HETATM   62  C   UNL     1      -8.225   7.659  71.782  1.00  0.00    -0.118 C  
HETATM   63  O   UNL     1      -8.928   9.756  71.276  1.00  0.00     0.033 OA 
ENDBRANCH  60  61
ENDBRANCH  18  60
TORSDOF 12
ENDMDL
MODEL       27
REMARK 921   NORMALIZED FREE ENERGY PREDICTED BY IDOCK:   -3.55 KCAL/MOL
REMARK 922        TOTAL FREE ENERGY PREDICTED BY IDOCK:   -8.71 KCAL/MOL
REMARK 923 INTER-LIGAND FREE ENERGY PREDICTED BY IDOCK:   -6.87 KCAL/MOL
REMARK 924 INTRA-LIGAND FREE ENERGY PREDICTED BY IDOCK:   -1.84 KCAL/MOL
REMARK 927      BINDING AFFINITY PREDICTED BY RF-SCORE:    0.00 PKD
ROOT
HETATM    1  C   UNL     1      -7.906  15.207  69.544  1.00  0.00    -0.186 C  
HETATM    2  C   UNL     1      -8.575  16.534  69.174  1.00  0.00    -0.147 C  
HETATM    3  C   UNL     1     -10.075  16.198  68.959  1.00  0.00    -0.247 C  
HETATM    4  O   UNL     1     -10.611  15.709  70.198  1.00  0.00    -0.309 OA 
HETATM    5  C   UNL     1     -10.184  15.223  67.767  1.00  0.00    -0.237 C  
HETATM    6  H   UNL     1     -11.529  15.503  70.067  1.00  0.00     0.000 HD 
HETATM    7  C   UNL     1     -11.718  14.673  67.703  1.00  0.00    -0.363 C  
HETATM    8  C   UNL     1     -10.249  16.116  66.480  1.00  0.00    -0.304 C  
HETATM    9  C   UNL     1     -12.263  13.756  66.546  1.00  0.00    -0.430 C  
HETATM   10  O   UNL     1     -12.577  15.098  68.493  1.00  0.00     0.224 OA 
HETATM   11  O   UNL     1     -13.503  13.136  66.920  1.00  0.00     1.842 OA 
HETATM   12  C   UNL     1     -11.391  12.621  66.143  1.00  0.00    -0.375 C  
HETATM   13  C   UNL     1     -11.061  12.212  64.894  1.00  0.00    -0.367 C  
HETATM   14  H   UNL     1     -13.832  12.582  66.221  1.00  0.00     0.000 HD 
HETATM   15  C   UNL     1     -10.046  10.856  64.606  1.00  0.00    -0.328 C  
HETATM   16  C   UNL     1     -11.376  13.106  63.695  1.00  0.00    -0.307 C  
HETATM   17  C   UNL     1      -8.914  11.772  64.932  1.00  0.00     0.372 C  
HETATM   18  C   UNL     1      -7.554  13.902  68.723  1.00  0.00    -0.108 C  
HETATM   19  C   UNL     1      -6.981  13.675  70.277  1.00  0.00     0.658 C  
HETATM   20  C   UNL     1      -8.947  12.215  66.487  1.00  0.00    -0.179 C  
HETATM   21  O   UNL     1      -6.703  15.142  70.311  1.00  0.00    -0.121 OA 
HETATM   22  C   UNL     1      -8.358  14.003  66.448  1.00  0.00     0.657 C  
HETATM   23  C   UNL     1     -10.961  12.146  68.732  1.00  0.00    -0.274 C  
HETATM   24  C   UNL     1     -10.641  11.882  67.185  1.00  0.00    -0.264 C  
HETATM   25  O   UNL     1      -8.126  11.350  67.291  1.00  0.00    -0.135 OA 
HETATM   26  C   UNL     1      -8.891  14.167  67.808  1.00  0.00    -0.185 C  
HETATM   27  H   UNL     1      -8.145  11.610  68.205  1.00  0.00     0.000 HD 
HETATM   28  C   UNL     1     -11.392  10.473  67.248  1.00  0.00    -0.058 C  
ENDROOT
BRANCH  15  29
HETATM   29  O   UNL     1      -9.683   9.794  65.638  1.00  0.00    -0.251 OA 
BRANCH  29  30
HETATM   30  C   UNL     1      -8.794   8.772  65.391  1.00  0.00    -0.178 C  
HETATM   31  O   UNL     1      -8.480   8.432  64.257  1.00  0.00    -0.129 OA 
BRANCH  30  32
HETATM   32  C   UNL     1      -8.291   8.058  66.739  1.00  0.00    -0.116 C  
HETATM   33  O   UNL     1      -6.999   7.445  66.662  1.00  0.00    -0.066 OA 
HETATM   34  H   UNL     1      -6.701   7.023  67.460  1.00  0.00     0.000 HD 
BRANCH  32  35
HETATM   35  C   UNL     1      -9.352   7.014  67.252  1.00  0.00    -0.133 C  
BRANCH  35  36
HETATM   36  N   UNL     1      -8.767   5.649  67.177  1.00  0.00    -0.109 N  
HETATM   37  C   UNL     1      -9.351   4.765  66.352  1.00  0.00    -0.146 C  
HETATM   38  O   UNL     1     -10.397   4.877  65.827  1.00  0.00    -0.222 OA 
HETATM   39  H   UNL     1      -7.951   5.393  67.733  1.00  0.00     0.000 HD 
BRANCH  37  40
HETATM   40  O   UNL     1      -8.471   3.696  66.145  1.00  0.00    -0.107 OA 
HETATM   41  C   UNL     1      -8.304   3.244  64.791  1.00  0.00    -0.090 C  
HETATM   42  C   UNL     1      -7.749   4.375  63.905  1.00  0.00    -0.079 C  
HETATM   43  C   UNL     1      -9.607   2.650  64.234  1.00  0.00    -0.144 C  
HETATM   44  C   UNL     1      -7.248   2.129  64.859  1.00  0.00    -0.054 C  
ENDBRANCH  37  40
ENDBRANCH  35  36
BRANCH  35  45
HETATM   45  C   UNL     1     -10.080   7.188  68.597  1.00  0.00    -0.177 A  
HETATM   46  C   UNL     1     -11.093   6.357  69.095  1.00  0.00    -0.428 A  
HETATM   47  C   UNL     1     -11.362   7.748  71.089  1.00  0.00    -0.290 A  
HETATM   48  C   UNL     1      -9.742   8.314  69.392  1.00  0.00    -0.177 A  
HETATM   49  C   UNL     1     -11.721   6.633  70.331  1.00  0.00    -0.446 A  
HETATM   50  C   UNL     1     -10.371   8.593  70.615  1.00  0.00    -0.241 A  
ENDBRANCH  35  45
ENDBRANCH  32  35
ENDBRANCH  30  32
ENDBRANCH  29  30
ENDBRANCH  15  29
BRANCH  22  51
HETATM   51  O   UNL     1      -6.984  15.072  66.839  1.00  0.00    -0.109 OA 
BRANCH  51  52
HETATM   52  C   UNL     1      -6.356  16.344  66.620  1.00  0.00     0.176 C  
HETATM   53  O   UNL     1      -5.136  16.388  66.480  1.00  0.00    -0.305 OA 
BRANCH  52  54
HETATM   54  C   UNL     1      -7.070  17.873  66.718  1.00  0.00    -0.230 A  
HETATM   55  C   UNL     1      -8.592  19.824  66.194  1.00  0.00    -0.367 A  
HETATM   56  C   UNL     1      -6.918  20.171  67.836  1.00  0.00    -0.316 A  
HETATM   57  C   UNL     1      -6.505  18.808  67.643  1.00  0.00    -0.209 A  
HETATM   58  C   UNL     1      -8.151  18.462  66.017  1.00  0.00    -0.118 A  
HETATM   59  C   UNL     1      -7.986  20.701  67.104  1.00  0.00    -0.323 A  
ENDBRANCH  52  54
ENDBRANCH  51  52
ENDBRANCH  22  51
BRANCH  18  60
HETATM   60  O   UNL     1      -6.213  13.309  68.025  1.00  0.00    -0.098 OA 
BRANCH  60  61
HETATM   61  C   UNL     1      -5.647  12.011  67.940  1.00  0.00    -0.060 C  
HETATM   62  C   UNL     1      -5.132  11.553  66.605  1.00  0.00    -0.112 C  
HETATM   63  O   UNL     1      -5.573  11.115  68.788  1.00  0.00    -0.040 OA 
ENDBRANCH  60  61
ENDBRANCH  18  60
TORSDOF 12
ENDMDL
MODEL       28
REMARK 921   NORMALIZED FREE ENERGY PREDICTED BY IDOCK:   -3.41 KCAL/MOL
REMARK 922        TOTAL FREE ENERGY PREDICTED BY IDOCK:   -8.47 KCAL/MOL
REMARK 923 INTER-LIGAND FREE ENERGY PREDICTED BY IDOCK:   -8.70 KCAL/MOL
REMARK 924 INTRA-LIGAND FREE ENERGY PREDICTED BY IDOCK:    0.23 KCAL/MOL
REMARK 927      BINDING AFFINITY PREDICTED BY RF-SCORE:    0.00 PKD
ROOT
HETATM    1  C   UNL     1      -6.735   5.549  69.713  1.00  0.00    -0.051 C  
HETATM    2  C   UNL     1      -7.366   4.453  68.849  1.00  0.00    -0.056 C  
HETATM    3  C   UNL     1      -6.920   4.761  67.395  1.00  0.00    -0.061 C  
HETATM    4  O   UNL     1      -5.488   4.668  67.332  1.00  0.00    -0.012 OA 
HETATM    5  C   UNL     1      -7.506   6.129  66.990  1.00  0.00    -0.087 C  
HETATM    6  H   UNL     1      -5.215   4.856  66.442  1.00  0.00     0.000 HD 
HETATM    7  C   UNL     1      -6.833   6.568  65.570  1.00  0.00    -0.048 C  
HETATM    8  C   UNL     1      -8.944   5.839  66.436  1.00  0.00    -0.139 C  
HETATM    9  C   UNL     1      -7.270   7.845  64.761  1.00  0.00    -0.074 C  
HETATM   10  O   UNL     1      -6.048   5.808  64.980  1.00  0.00    -0.024 OA 
HETATM   11  O   UNL     1      -6.291   8.185  63.767  1.00  0.00    -0.069 OA 
HETATM   12  C   UNL     1      -7.442   9.094  65.549  1.00  0.00    -0.089 C  
HETATM   13  C   UNL     1      -8.452   9.996  65.492  1.00  0.00    -0.155 C  
HETATM   14  H   UNL     1      -6.556   8.956  63.278  1.00  0.00     0.000 HD 
HETATM   15  C   UNL     1      -8.484  11.408  66.471  1.00  0.00    -0.170 C  
HETATM   16  C   UNL     1      -9.732   9.655  64.731  1.00  0.00    -0.108 C  
HETATM   17  C   UNL     1      -8.948  10.506  67.565  1.00  0.00    -0.137 C  
HETATM   18  C   UNL     1      -7.024   7.094  69.890  1.00  0.00    -0.057 C  
HETATM   19  C   UNL     1      -5.795   6.698  70.953  1.00  0.00    -0.027 C  
HETATM   20  C   UNL     1      -7.790   9.464  67.999  1.00  0.00    -0.091 C  
HETATM   21  O   UNL     1      -6.450   5.364  71.100  1.00  0.00    -0.033 OA 
HETATM   22  C   UNL     1      -8.740   7.886  68.389  1.00  0.00    -0.131 C  
HETATM   23  C   UNL     1      -5.182   8.492  66.833  1.00  0.00    -0.036 C  
HETATM   24  C   UNL     1      -6.502   9.384  66.656  1.00  0.00    -0.067 C  
HETATM   25  O   UNL     1      -7.025   9.971  69.107  1.00  0.00    -0.053 OA 
HETATM   26  C   UNL     1      -7.471   7.150  68.312  1.00  0.00    -0.102 C  
HETATM   27  H   UNL     1      -6.344   9.358  69.361  1.00  0.00     0.000 HD 
HETATM   28  C   UNL     1      -5.631  10.597  66.090  1.00  0.00    -0.101 C  
ENDROOT
BRANCH  15  29
HETATM   29  O   UNL     1      -7.293  11.974  67.238  1.00  0.00    -0.135 OA 
BRANCH  29  30
HETATM   30  C   UNL     1      -7.303  13.209  67.847  1.00  0.00    -0.131 C  
HETATM   31  O   UNL     1      -7.387  13.344  69.061  1.00  0.00    -0.076 OA 
BRANCH  30  32
HETATM   32  C   UNL     1      -7.265  14.414  66.786  1.00  0.00     1.111 C  
HETATM   33  O   UNL     1      -6.229  15.381  66.995  1.00  0.00    -0.256 OA 
HETATM   34  H   UNL     1      -6.206  16.094  66.368  1.00  0.00     0.000 HD 
BRANCH  32  35
HETATM   35  C   UNL     1      -8.663  15.134  66.701  1.00  0.00    -0.272 C  
BRANCH  35  36
HETATM   36  N   UNL     1      -9.559  14.353  65.807  1.00  0.00    -0.512 N  
HETATM   37  C   UNL     1     -10.528  15.020  65.159  1.00  0.00    -0.412 C  
HETATM   38  O   UNL     1     -10.886  16.120  65.368  1.00  0.00    -0.356 OA 
HETATM   39  H   UNL     1      -9.440  13.347  65.689  1.00  0.00     0.000 HD 
BRANCH  37  40
HETATM   40  O   UNL     1     -11.010  14.213  64.122  1.00  0.00    -0.184 OA 
HETATM   41  C   UNL     1     -12.015  13.245  64.464  1.00  0.00    -0.400 C  
HETATM   42  C   UNL     1     -13.270  13.938  65.026  1.00  0.00     0.171 C  
HETATM   43  C   UNL     1     -11.461  12.176  65.418  1.00  0.00    -0.387 C  
HETATM   44  C   UNL     1     -12.398  12.566  63.138  1.00  0.00    -0.303 C  
ENDBRANCH  37  40
ENDBRANCH  35  36
BRANCH  35  45
HETATM   45  C   UNL     1      -9.438  15.558  67.961  1.00  0.00    -0.194 A  
HETATM   46  C   UNL     1      -9.312  16.783  68.629  1.00  0.00    -0.252 A  
HETATM   47  C   UNL     1     -10.916  16.104  70.346  1.00  0.00    -0.320 A  
HETATM   48  C   UNL     1     -10.326  14.615  68.541  1.00  0.00    -0.238 A  
HETATM   49  C   UNL     1     -10.049  17.053  69.805  1.00  0.00     0.188 A  
HETATM   50  C   UNL     1     -11.052  14.879  69.712  1.00  0.00    -0.300 A  
ENDBRANCH  35  45
ENDBRANCH  32  35
ENDBRANCH  30  32
ENDBRANCH  29  30
ENDBRANCH  15  29
BRANCH  22  51
HETATM   51  O   UNL     1      -9.292   6.832  69.718  1.00  0.00    -0.146 OA 
BRANCH  51  52
HETATM   52  C   UNL     1     -10.397   6.406  70.529  1.00  0.00    -0.202 C  
HETATM   53  O   UNL     1     -10.472   5.224  70.857  1.00  0.00    -0.241 OA 
BRANCH  52  54
HETATM   54  C   UNL     1     -11.764   7.304  70.957  1.00  0.00    -0.340 A  
HETATM   55  C   UNL     1     -13.194   9.266  71.664  1.00  0.00    -0.456 A  
HETATM   56  C   UNL     1     -14.261   7.155  71.505  1.00  0.00    -0.486 A  
HETATM   57  C   UNL     1     -13.003   6.597  71.091  1.00  0.00    -0.008 A  
HETATM   58  C   UNL     1     -11.943   8.677  71.253  1.00  0.00    -0.339 A  
HETATM   59  C   UNL     1     -14.372   8.519  71.797  1.00  0.00    -0.522 A  
ENDBRANCH  52  54
ENDBRANCH  51  52
ENDBRANCH  22  51
BRANCH  18  60
HETATM   60  O   UNL     1      -7.821   7.997  70.979  1.00  0.00    -0.083 OA 
BRANCH  60  61
HETATM   61  C   UNL     1      -8.051   7.873  72.373  1.00  0.00    -0.130 C  
HETATM   62  C   UNL     1      -8.237   6.493  72.936  1.00  0.00    -0.108 C  
HETATM   63  O   UNL     1      -8.215   8.742  73.236  1.00  0.00    -0.402 OA 
ENDBRANCH  60  61
ENDBRANCH  18  60
TORSDOF 12
ENDMDL
MODEL       29
REMARK 921   NORMALIZED FREE ENERGY PREDICTED BY IDOCK:   -3.21 KCAL/MOL
REMARK 922        TOTAL FREE ENERGY PREDICTED BY IDOCK:   -8.14 KCAL/MOL
REMARK 923 INTER-LIGAND FREE ENERGY PREDICTED BY IDOCK:   -6.43 KCAL/MOL
REMARK 924 INTRA-LIGAND FREE ENERGY PREDICTED BY IDOCK:   -1.71 KCAL/MOL
REMARK 927      BINDING AFFINITY PREDICTED BY RF-SCORE:    0.00 PKD
ROOT
HETATM    1  C   UNL     1     -11.259  12.858  68.138  1.00  0.00    -0.270 C  
HETATM    2  C   UNL     1     -11.390  14.037  67.169  1.00  0.00    -0.348 C  
HETATM    3  C   UNL     1     -11.522  13.404  65.758  1.00  0.00    -0.320 C  
HETATM    4  O   UNL     1     -12.719  12.612  65.727  1.00  0.00    -0.481 OA 
HETATM    5  C   UNL     1     -10.220  12.635  65.451  1.00  0.00    -0.301 C  
HETATM    6  H   UNL     1     -12.801  12.225  64.864  1.00  0.00     0.000 HD 
HETATM    7  C   UNL     1     -10.454  11.764  64.092  1.00  0.00    -0.346 C  
HETATM    8  C   UNL     1      -9.231  13.684  64.835  1.00  0.00     1.387 C  
HETATM    9  C   UNL     1      -9.316  10.945  63.379  1.00  0.00    -0.290 C  
HETATM   10  O   UNL     1     -11.523  11.847  63.463  1.00  0.00    -0.424 OA 
HETATM   11  O   UNL     1      -9.866  10.005  62.444  1.00  0.00    -0.630 OA 
HETATM   12  C   UNL     1      -8.449  10.121  64.262  1.00  0.00    -0.179 C  
HETATM   13  C   UNL     1      -7.099  10.006  64.252  1.00  0.00    -0.130 C  
HETATM   14  H   UNL     1      -9.178   9.510  62.013  1.00  0.00     0.000 HD 
HETATM   15  C   UNL     1      -6.252   8.984  65.342  1.00  0.00    -0.063 C  
HETATM   16  C   UNL     1      -6.261  10.984  63.430  1.00  0.00     0.524 C  
HETATM   17  C   UNL     1      -6.453  10.071  66.345  1.00  0.00    -0.075 C  
HETATM   18  C   UNL     1     -10.105  11.818  68.433  1.00  0.00    -0.201 C  
HETATM   19  C   UNL     1     -11.354  11.482  69.493  1.00  0.00    -0.274 C  
HETATM   20  C   UNL     1      -8.016  10.239  66.724  1.00  0.00    -0.114 C  
HETATM   21  O   UNL     1     -11.636  12.949  69.512  1.00  0.00    -0.290 OA 
HETATM   22  C   UNL     1      -8.217  12.096  66.955  1.00  0.00    -0.164 C  
HETATM   23  C   UNL     1     -10.651   9.347  65.554  1.00  0.00     1.096 C  
HETATM   24  C   UNL     1      -9.056   9.417  65.415  1.00  0.00    -0.280 C  
HETATM   25  O   UNL     1      -8.353   9.467  67.891  1.00  0.00    -0.114 OA 
HETATM   26  C   UNL     1      -9.671  11.912  66.854  1.00  0.00    -0.212 C  
HETATM   27  H   UNL     1      -9.272   9.566  68.113  1.00  0.00     0.000 HD 
HETATM   28  C   UNL     1      -9.007   7.882  64.975  1.00  0.00     0.296 C  
ENDROOT
BRANCH  15  29
HETATM   29  O   UNL     1      -6.884   7.882  66.186  1.00  0.00    -0.056 OA 
BRANCH  29  30
HETATM   30  C   UNL     1      -6.362   6.611  66.284  1.00  0.00    -0.042 C  
HETATM   31  O   UNL     1      -5.666   6.116  65.407  1.00  0.00    -0.023 OA 
BRANCH  30  32
HETATM   32  C   UNL     1      -6.828   5.859  67.625  1.00  0.00    -0.060 C  
HETATM   33  O   UNL     1      -6.049   4.713  67.987  1.00  0.00    -0.029 OA 
HETATM   34  H   UNL     1      -6.324   4.269  68.780  1.00  0.00     0.000 HD 
BRANCH  32  35
HETATM   35  C   UNL     1      -8.353   5.473  67.552  1.00  0.00    -0.100 C  
BRANCH  35  36
HETATM   36  N   UNL     1      -8.487   4.142  66.902  1.00  0.00    -0.100 N  
HETATM   37  C   UNL     1      -9.453   3.992  65.983  1.00  0.00    -0.183 C  
HETATM   38  O   UNL     1     -10.343   4.730  65.770  1.00  0.00    -0.249 OA 
HETATM   39  H   UNL     1      -7.866   3.371  67.147  1.00  0.00     0.000 HD 
BRANCH  37  40
HETATM   40  O   UNL     1      -9.193   2.831  65.244  1.00  0.00    -0.147 OA 
HETATM   41  C   UNL     1      -9.083   2.978  63.819  1.00  0.00    -0.097 C  
HETATM   42  C   UNL     1      -7.926   3.929  63.458  1.00  0.00    -0.087 C  
HETATM   43  C   UNL     1     -10.416   3.417  63.196  1.00  0.00    -0.219 C  
HETATM   44  C   UNL     1      -8.732   1.578  63.289  1.00  0.00    -0.072 C  
ENDBRANCH  37  40
ENDBRANCH  35  36
BRANCH  35  45
HETATM   45  C   UNL     1      -9.268   5.536  68.788  1.00  0.00    -0.142 A  
HETATM   46  C   UNL     1      -8.997   4.965  70.038  1.00  0.00    -0.143 A  
HETATM   47  C   UNL     1     -11.155   5.698  70.928  1.00  0.00    -0.200 A  
HETATM   48  C   UNL     1     -10.524   6.182  68.649  1.00  0.00    -0.285 A  
HETATM   49  C   UNL     1      -9.930   5.052  71.098  1.00  0.00    -0.276 A  
HETATM   50  C   UNL     1     -11.453   6.262  69.697  1.00  0.00    -0.425 A  
ENDBRANCH  35  45
ENDBRANCH  32  35
ENDBRANCH  30  32
ENDBRANCH  29  30
ENDBRANCH  15  29
BRANCH  22  51
HETATM   51  O   UNL     1      -8.446  13.376  68.178  1.00  0.00    -0.159 OA 
BRANCH  51  52
HETATM   52  C   UNL     1      -8.026  14.660  68.660  1.00  0.00    -0.141 C  
HETATM   53  O   UNL     1      -7.480  14.733  69.759  1.00  0.00    -0.140 OA 
BRANCH  52  54
HETATM   54  C   UNL     1      -8.359  16.172  67.981  1.00  0.00    -0.163 A  
HETATM   55  C   UNL     1      -9.138  17.912  66.320  1.00  0.00    -0.198 A  
HETATM   56  C   UNL     1      -8.040  18.696  68.269  1.00  0.00    -0.339 A  
HETATM   57  C   UNL     1      -7.916  17.330  68.697  1.00  0.00    -0.267 A  
HETATM   58  C   UNL     1      -8.993  16.551  66.772  1.00  0.00    -0.261 A  
HETATM   59  C   UNL     1      -8.667  19.007  67.057  1.00  0.00    -0.309 A  
ENDBRANCH  52  54
ENDBRANCH  51  52
ENDBRANCH  22  51
BRANCH  18  60
HETATM   60  O   UNL     1      -8.955  11.670  69.570  1.00  0.00     0.591 OA 
BRANCH  60  61
HETATM   61  C   UNL     1      -8.257  10.562  70.117  1.00  0.00     0.563 C  
HETATM   62  C   UNL     1      -9.063   9.458  70.737  1.00  0.00    -0.268 C  
HETATM   63  O   UNL     1      -7.044  10.372  70.254  1.00  0.00    -0.201 OA 
ENDBRANCH  60  61
ENDBRANCH  18  60
TORSDOF 12
ENDMDL
MODEL       30
REMARK 921   NORMALIZED FREE ENERGY PREDICTED BY IDOCK:   -3.12 KCAL/MOL
REMARK 922        TOTAL FREE ENERGY PREDICTED BY IDOCK:   -7.97 KCAL/MOL
REMARK 923 INTER-LIGAND FREE ENERGY PREDICTED BY IDOCK:   -6.07 KCAL/MOL
REMARK 924 INTRA-LIGAND FREE ENERGY PREDICTED BY IDOCK:   -1.90 KCAL/MOL
REMARK 927      BINDING AFFINITY PREDICTED BY RF-SCORE:    0.00 PKD
ROOT
HETATM    1  C   UNL     1     -11.351  12.914  65.691  1.00  0.00    -0.311 C  
HETATM    2  C   UNL     1     -10.865  13.182  64.263  1.00  0.00    -0.430 C  
HETATM    3  C   UNL     1     -10.464  11.796  63.692  1.00  0.00    -0.439 C  
HETATM    4  O   UNL     1     -11.634  10.964  63.660  1.00  0.00    -0.149 OA 
HETATM    5  C   UNL     1      -9.292  11.248  64.535  1.00  0.00    -0.149 C  
HETATM    6  H   UNL     1     -11.389  10.116  63.311  1.00  0.00     0.000 HD 
HETATM    7  C   UNL     1      -9.041   9.695  64.103  1.00  0.00    -0.209 C  
HETATM    8  C   UNL     1      -7.986  11.835  63.896  1.00  0.00     2.104 C  
HETATM    9  C   UNL     1      -7.846   8.827  64.645  1.00  0.00    -0.127 C  
HETATM   10  O   UNL     1      -9.703   9.178  63.187  1.00  0.00     1.010 OA 
HETATM   11  O   UNL     1      -8.071   7.430  64.397  1.00  0.00    -0.220 OA 
HETATM   12  C   UNL     1      -7.589   8.904  66.107  1.00  0.00    -0.091 C  
HETATM   13  C   UNL     1      -6.404   9.046  66.749  1.00  0.00    -0.063 C  
HETATM   14  H   UNL     1      -7.349   6.906  64.724  1.00  0.00     0.000 HD 
HETATM   15  C   UNL     1      -6.284   9.099  68.462  1.00  0.00    -0.049 C  
HETATM   16  C   UNL     1      -5.153   9.424  65.958  1.00  0.00    -0.035 C  
HETATM   17  C   UNL     1      -6.734  10.518  68.340  1.00  0.00    -0.060 C  
HETATM   18  C   UNL     1     -10.615  12.510  67.031  1.00  0.00    -0.232 C  
HETATM   19  C   UNL     1     -12.236  12.697  67.397  1.00  0.00     0.110 C  
HETATM   20  C   UNL     1      -8.259  10.607  67.812  1.00  0.00    -0.111 C  
HETATM   21  O   UNL     1     -12.270  13.775  66.363  1.00  0.00    -0.429 OA 
HETATM   22  C   UNL     1      -8.254  12.130  66.705  1.00  0.00    -0.017 C  
HETATM   23  C   UNL     1     -10.223   8.736  66.491  1.00  0.00    -0.314 C  
HETATM   24  C   UNL     1      -8.738   8.982  67.038  1.00  0.00    -0.124 C  
HETATM   25  O   UNL     1      -9.185  10.690  68.911  1.00  0.00    -0.172 OA 
HETATM   26  C   UNL     1      -9.527  11.671  66.134  1.00  0.00    -0.240 C  
HETATM   27  H   UNL     1     -10.081  10.743  68.600  1.00  0.00     0.000 HD 
HETATM   28  C   UNL     1      -8.737   7.548  67.743  1.00  0.00    -0.123 C  
ENDROOT
BRANCH  15  29
HETATM   29  O   UNL     1      -7.382   8.677  69.434  1.00  0.00    -0.069 OA 
BRANCH  29  30
HETATM   30  C   UNL     1      -7.128   8.218  70.707  1.00  0.00    -0.044 C  
HETATM   31  O   UNL     1      -6.004   7.914  71.086  1.00  0.00    -0.034 OA 
BRANCH  30  32
HETATM   32  C   UNL     1      -8.466   8.070  71.583  1.00  0.00    -0.125 C  
HETATM   33  O   UNL     1      -8.563   8.950  72.708  1.00  0.00    -0.367 OA 
HETATM   34  H   UNL     1      -9.355   8.863  73.226  1.00  0.00     0.000 HD 
BRANCH  32  35
HETATM   35  C   UNL     1      -8.673   6.579  72.046  1.00  0.00    -0.132 C  
BRANCH  35  36
HETATM   36  N   UNL     1     -10.106   6.213  71.885  1.00  0.00    -0.188 N  
HETATM   37  C   UNL     1     -10.964   6.626  72.831  1.00  0.00    -0.253 C  
HETATM   38  O   UNL     1     -10.690   7.072  73.883  1.00  0.00    -0.324 OA 
HETATM   39  H   UNL     1     -10.424   5.669  71.084  1.00  0.00     0.000 HD 
BRANCH  37  40
HETATM   40  O   UNL     1     -12.268   6.510  72.334  1.00  0.00    -0.196 OA 
HETATM   41  C   UNL     1     -12.803   7.650  71.642  1.00  0.00    -0.349 C  
HETATM   42  C   UNL     1     -11.949   7.985  70.404  1.00  0.00     0.161 C  
HETATM   43  C   UNL     1     -12.964   8.853  72.583  1.00  0.00    -0.334 C  
HETATM   44  C   UNL     1     -14.197   7.218  71.157  1.00  0.00    -0.220 C  
ENDBRANCH  37  40
ENDBRANCH  35  36
BRANCH  35  45
HETATM   45  C   UNL     1      -7.789   5.434  71.523  1.00  0.00    -0.110 A  
HETATM   46  C   UNL     1      -7.785   4.933  70.214  1.00  0.00    -0.062 A  
HETATM   47  C   UNL     1      -6.121   3.233  70.784  1.00  0.00    -0.018 A  
HETATM   48  C   UNL     1      -6.932   4.783  72.448  1.00  0.00    -0.070 A  
HETATM   49  C   UNL     1      -6.955   3.848  69.850  1.00  0.00    -0.041 A  
HETATM   50  C   UNL     1      -6.113   3.701  72.090  1.00  0.00    -0.013 A  
ENDBRANCH  35  45
ENDBRANCH  32  35
ENDBRANCH  30  32
ENDBRANCH  29  30
ENDBRANCH  15  29
BRANCH  22  51
HETATM   51  O   UNL     1      -8.794  13.827  66.592  1.00  0.00    -0.182 OA 
BRANCH  51  52
HETATM   52  C   UNL     1      -8.447  15.208  66.766  1.00  0.00    -0.237 C  
HETATM   53  O   UNL     1      -8.853  16.030  65.948  1.00  0.00    -0.311 OA 
BRANCH  52  54
HETATM   54  C   UNL     1      -7.357  15.861  67.882  1.00  0.00    -0.148 A  
HETATM   55  C   UNL     1      -5.869  16.054  69.917  1.00  0.00    -0.170 A  
HETATM   56  C   UNL     1      -6.106  17.988  68.566  1.00  0.00    -0.191 A  
HETATM   57  C   UNL     1      -6.966  17.226  67.702  1.00  0.00    -0.169 A  
HETATM   58  C   UNL     1      -6.740  15.317  69.035  1.00  0.00    -0.122 A  
HETATM   59  C   UNL     1      -5.536  17.398  69.699  1.00  0.00    -0.199 A  
ENDBRANCH  52  54
ENDBRANCH  51  52
ENDBRANCH  22  51
BRANCH  18  60
HETATM   60  O   UNL     1     -10.113  13.309  68.352  1.00  0.00    -0.238 OA 
BRANCH  60  61
HETATM   61  C   UNL     1     -10.784  14.030  69.374  1.00  0.00    -0.052 C  
HETATM   62  C   UNL     1     -10.082  15.211  69.981  1.00  0.00    -0.103 C  
HETATM   63  O   UNL     1     -11.859  13.801  69.938  1.00  0.00    -0.297 OA 
ENDBRANCH  60  61
ENDBRANCH  18  60
TORSDOF 12
ENDMDL
MODEL       31
REMARK 921   NORMALIZED FREE ENERGY PREDICTED BY IDOCK:   -3.04 KCAL/MOL
REMARK 922        TOTAL FREE ENERGY PREDICTED BY IDOCK:   -7.84 KCAL/MOL
REMARK 923 INTER-LIGAND FREE ENERGY PREDICTED BY IDOCK:   -7.31 KCAL/MOL
REMARK 924 INTRA-LIGAND FREE ENERGY PREDICTED BY IDOCK:   -0.53 KCAL/MOL
REMARK 927      BINDING AFFINITY PREDICTED BY RF-SCORE:    0.00 PKD
ROOT
HETATM    1  C   UNL     1      -9.100  15.544  66.461  1.00  0.00    -0.302 C  
HETATM    2  C   UNL     1      -8.599  16.250  67.724  1.00  0.00    -0.175 C  
HETATM    3  C   UNL     1      -7.343  15.458  68.174  1.00  0.00    -0.116 C  
HETATM    4  O   UNL     1      -6.354  15.553  67.138  1.00  0.00    -0.311 OA 
HETATM    5  C   UNL     1      -7.781  14.023  68.533  1.00  0.00    -0.139 C  
HETATM    6  H   UNL     1      -5.584  15.068  67.412  1.00  0.00     0.000 HD 
HETATM    7  C   UNL     1      -6.438  13.124  68.757  1.00  0.00    -0.095 C  
HETATM    8  C   UNL     1      -8.230  14.068  70.034  1.00  0.00     1.494 C  
HETATM    9  C   UNL     1      -6.464  11.635  69.263  1.00  0.00    -0.105 C  
HETATM   10  O   UNL     1      -5.311  13.643  68.690  1.00  0.00    -0.077 OA 
HETATM   11  O   UNL     1      -5.206  10.987  69.024  1.00  0.00    -0.042 OA 
HETATM   12  C   UNL     1      -7.466  10.742  68.624  1.00  0.00    -0.102 C  
HETATM   13  C   UNL     1      -8.306   9.857  69.212  1.00  0.00    -0.151 C  
HETATM   14  H   UNL     1      -5.222  10.087  69.330  1.00  0.00     0.000 HD 
HETATM   15  C   UNL     1      -9.397   8.882  68.312  1.00  0.00    -0.143 C  
HETATM   16  C   UNL     1      -8.492   9.880  70.729  1.00  0.00     0.507 C  
HETATM   17  C   UNL     1     -10.253  10.103  68.235  1.00  0.00    -0.192 C  
HETATM   18  C   UNL     1      -9.812  14.156  66.202  1.00  0.00    -0.308 C  
HETATM   19  C   UNL     1      -9.687  14.927  64.724  1.00  0.00     0.611 C  
HETATM   20  C   UNL     1      -9.552  11.255  67.342  1.00  0.00    -0.169 C  
HETATM   21  O   UNL     1      -9.870  16.214  65.462  1.00  0.00    -0.458 OA 
HETATM   22  C   UNL     1     -10.037  12.848  68.219  1.00  0.00    -0.242 C  
HETATM   23  C   UNL     1      -6.785  11.806  66.274  1.00  0.00     0.377 C  
HETATM   24  C   UNL     1      -7.735  10.882  67.174  1.00  0.00    -0.123 C  
HETATM   25  O   UNL     1      -9.991  11.188  65.973  1.00  0.00    -0.218 OA 
HETATM   26  C   UNL     1      -8.976  13.536  67.471  1.00  0.00    -0.210 C  
HETATM   27  H   UNL     1      -9.579  11.865  65.448  1.00  0.00     0.000 HD 
HETATM   28  C   UNL     1      -7.080   9.565  66.550  1.00  0.00    -0.085 C  
ENDROOT
BRANCH  15  29
HETATM   29  O   UNL     1      -9.332   8.649  66.806  1.00  0.00    -0.156 OA 
BRANCH  29  30
HETATM   30  C   UNL     1      -9.017   7.432  66.242  1.00  0.00    -0.162 C  
HETATM   31  O   UNL     1      -8.019   7.263  65.554  1.00  0.00    -0.108 OA 
BRANCH  30  32
HETATM   32  C   UNL     1     -10.133   6.315  66.538  1.00  0.00    -0.108 C  
HETATM   33  O   UNL     1     -11.122   6.678  67.508  1.00  0.00    -0.452 OA 
HETATM   34  H   UNL     1     -11.782   6.018  67.683  1.00  0.00     0.000 HD 
BRANCH  32  35
HETATM   35  C   UNL     1      -9.465   4.945  66.937  1.00  0.00    -0.148 C  
BRANCH  35  36
HETATM   36  N   UNL     1     -10.007   4.504  68.250  1.00  0.00    -0.079 N  
HETATM   37  C   UNL     1      -9.336   4.866  69.354  1.00  0.00    -0.127 C  
HETATM   38  O   UNL     1      -8.254   5.323  69.402  1.00  0.00    -0.093 OA 
HETATM   39  H   UNL     1     -10.859   3.946  68.308  1.00  0.00     0.000 HD 
BRANCH  37  40
HETATM   40  O   UNL     1     -10.168   4.683  70.465  1.00  0.00    -0.223 OA 
HETATM   41  C   UNL     1     -10.461   5.846  71.256  1.00  0.00    -0.233 C  
HETATM   42  C   UNL     1     -11.180   6.913  70.410  1.00  0.00    -0.359 C  
HETATM   43  C   UNL     1      -9.198   6.394  71.937  1.00  0.00    -0.149 C  
HETATM   44  C   UNL     1     -11.434   5.366  72.346  1.00  0.00    -0.212 C  
ENDBRANCH  37  40
ENDBRANCH  35  36
BRANCH  35  45
HETATM   45  C   UNL     1      -9.423   3.749  65.970  1.00  0.00    -0.178 A  
HETATM   46  C   UNL     1      -8.768   2.532  66.200  1.00  0.00    -0.126 A  
HETATM   47  C   UNL     1      -9.398   1.685  63.993  1.00  0.00    -0.122 A  
HETATM   48  C   UNL     1     -10.057   3.894  64.709  1.00  0.00    -0.203 A  
HETATM   49  C   UNL     1      -8.762   1.510  65.222  1.00  0.00    -0.115 A  
HETATM   50  C   UNL     1     -10.045   2.884  63.735  1.00  0.00    -0.169 A  
ENDBRANCH  35  45
ENDBRANCH  32  35
ENDBRANCH  30  32
ENDBRANCH  29  30
ENDBRANCH  15  29
BRANCH  22  51
HETATM   51  O   UNL     1     -11.078  14.292  68.106  1.00  0.00    -0.244 OA 
BRANCH  51  52
HETATM   52  C   UNL     1     -11.925  15.216  68.805  1.00  0.00    -0.250 C  
HETATM   53  O   UNL     1     -12.380  16.182  68.196  1.00  0.00     0.504 OA 
BRANCH  52  54
HETATM   54  C   UNL     1     -12.243  15.265  70.464  1.00  0.00    -0.415 A  
HETATM   55  C   UNL     1     -11.930  15.719  72.932  1.00  0.00    -0.599 A  
HETATM   56  C   UNL     1     -13.846  14.474  72.298  1.00  0.00    -0.587 A  
HETATM   57  C   UNL     1     -13.426  14.605  70.930  1.00  0.00    -0.293 A  
HETATM   58  C   UNL     1     -11.530  15.828  71.551  1.00  0.00    -0.504 A  
HETATM   59  C   UNL     1     -13.091  15.042  73.330  1.00  0.00    -0.548 A  
ENDBRANCH  52  54
ENDBRANCH  51  52
ENDBRANCH  22  51
BRANCH  18  60
HETATM   60  O   UNL     1     -11.343  13.679  65.946  1.00  0.00    -0.304 OA 
BRANCH  60  61
HETATM   61  C   UNL     1     -12.003  13.051  64.858  1.00  0.00    -0.396 C  
HETATM   62  C   UNL     1     -13.502  13.133  64.802  1.00  0.00     0.984 C  
HETATM   63  O   UNL     1     -11.552  12.345  63.951  1.00  0.00    -0.365 OA 
ENDBRANCH  60  61
ENDBRANCH  18  60
TORSDOF 12
ENDMDL
MODEL       32
REMARK 921   NORMALIZED FREE ENERGY PREDICTED BY IDOCK:   -2.81 KCAL/MOL
REMARK 922        TOTAL FREE ENERGY PREDICTED BY IDOCK:   -7.45 KCAL/MOL
REMARK 923 INTER-LIGAND FREE ENERGY PREDICTED BY IDOCK:   -9.53 KCAL/MOL
REMARK 924 INTRA-LIGAND FREE ENERGY PREDICTED BY IDOCK:    2.09 KCAL/MOL
REMARK 927      BINDING AFFINITY PREDICTED BY RF-SCORE:    0.00 PKD
ROOT
HETATM    1  C   UNL     1      -7.114   6.861  70.785  1.00  0.00    -0.068 C  
HETATM    2  C   UNL     1      -6.727   5.987  69.589  1.00  0.00    -0.052 C  
HETATM    3  C   UNL     1      -6.279   6.975  68.478  1.00  0.00    -0.034 C  
HETATM    4  O   UNL     1      -5.129   7.693  68.950  1.00  0.00    -0.017 OA 
HETATM    5  C   UNL     1      -7.490   7.852  68.097  1.00  0.00    -0.107 C  
HETATM    6  H   UNL     1      -4.855   8.298  68.270  1.00  0.00     0.000 HD 
HETATM    7  C   UNL     1      -6.961   9.050  67.124  1.00  0.00    -0.078 C  
HETATM    8  C   UNL     1      -8.278   7.053  67.001  1.00  0.00    -0.117 C  
HETATM    9  C   UNL     1      -7.918  10.079  66.417  1.00  0.00    -0.116 C  
HETATM   10  O   UNL     1      -5.772   9.097  66.767  1.00  0.00    -0.046 OA 
HETATM   11  O   UNL     1      -7.185  11.215  65.933  1.00  0.00    -0.348 OA 
HETATM   12  C   UNL     1      -8.990  10.667  67.263  1.00  0.00    -0.141 C  
HETATM   13  C   UNL     1     -10.301  10.837  66.967  1.00  0.00    -0.275 C  
HETATM   14  H   UNL     1      -7.763  11.837  65.506  1.00  0.00     0.000 HD 
HETATM   15  C   UNL     1     -11.409  11.558  68.065  1.00  0.00    -0.298 C  
HETATM   16  C   UNL     1     -10.895  10.157  65.734  1.00  0.00     0.288 C  
HETATM   17  C   UNL     1     -11.425  10.231  68.748  1.00  0.00    -0.176 C  
HETATM   18  C   UNL     1      -8.332   7.828  71.075  1.00  0.00    -0.114 C  
HETATM   19  C   UNL     1      -7.380   7.810  72.449  1.00  0.00    -0.084 C  
HETATM   20  C   UNL     1      -9.993   9.900  69.423  1.00  0.00    -0.212 C  
HETATM   21  O   UNL     1      -7.073   6.383  72.130  1.00  0.00    -0.076 OA 
HETATM   22  C   UNL     1      -9.807   8.044  69.176  1.00  0.00    -0.178 C  
HETATM   23  C   UNL     1      -7.179  10.966  69.199  1.00  0.00    -0.118 C  
HETATM   24  C   UNL     1      -8.692  11.003  68.674  1.00  0.00    -0.161 C  
HETATM   25  O   UNL     1      -9.963  10.309  70.802  1.00  0.00    -0.202 OA 
HETATM   26  C   UNL     1      -8.375   8.187  69.474  1.00  0.00    -0.122 C  
HETATM   27  H   UNL     1      -9.121  10.115  71.199  1.00  0.00     0.000 HD 
HETATM   28  C   UNL     1      -8.674  12.601  68.675  1.00  0.00     0.049 C  
ENDROOT
BRANCH  15  29
HETATM   29  O   UNL     1     -11.023  12.360  69.304  1.00  0.00    -0.191 OA 
BRANCH  29  30
HETATM   30  C   UNL     1     -11.832  13.326  69.861  1.00  0.00    -0.310 C  
HETATM   31  O   UNL     1     -12.970  13.089  70.247  1.00  0.00     0.153 OA 
BRANCH  30  32
HETATM   32  C   UNL     1     -11.137  14.774  69.873  1.00  0.00    -0.233 C  
HETATM   33  O   UNL     1     -11.483  15.610  70.983  1.00  0.00    -0.328 OA 
HETATM   34  H   UNL     1     -11.072  16.466  70.991  1.00  0.00     0.000 HD 
BRANCH  32  35
HETATM   35  C   UNL     1     -11.402  15.537  68.521  1.00  0.00    -0.351 C  
BRANCH  35  36
HETATM   36  N   UNL     1     -10.586  16.779  68.495  1.00  0.00    -0.333 N  
HETATM   37  C   UNL     1      -9.285  16.677  68.812  1.00  0.00    -0.253 C  
HETATM   38  O   UNL     1      -8.752  15.754  69.305  1.00  0.00    -0.240 OA 
HETATM   39  H   UNL     1     -11.000  17.677  68.246  1.00  0.00     0.000 HD 
BRANCH  37  40
HETATM   40  O   UNL     1      -8.628  17.838  68.386  1.00  0.00    -0.278 OA 
HETATM   41  C   UNL     1      -7.507  17.663  67.503  1.00  0.00    -0.194 C  
HETATM   42  C   UNL     1      -7.944  16.970  66.200  1.00  0.00    -0.299 C  
HETATM   43  C   UNL     1      -6.355  16.925  68.200  1.00  0.00    -0.143 C  
HETATM   44  C   UNL     1      -7.037  19.085  67.153  1.00  0.00    -0.213 C  
ENDBRANCH  37  40
ENDBRANCH  35  36
BRANCH  35  45
HETATM   45  C   UNL     1     -11.308  14.832  67.157  1.00  0.00    -0.363 A  
HETATM   46  C   UNL     1     -10.124  14.489  66.491  1.00  0.00    -0.280 A  
HETATM   47  C   UNL     1     -11.363  13.600  64.578  1.00  0.00    -0.393 A  
HETATM   48  C   UNL     1     -12.519  14.542  66.476  1.00  0.00    -0.036 A  
HETATM   49  C   UNL     1     -10.154  13.874  65.218  1.00  0.00    -0.328 A  
HETATM   50  C   UNL     1     -12.550  13.939  65.209  1.00  0.00    -0.508 A  
ENDBRANCH  35  45
ENDBRANCH  32  35
ENDBRANCH  30  32
ENDBRANCH  29  30
ENDBRANCH  15  29
BRANCH  22  51
HETATM   51  O   UNL     1      -9.843   6.471  70.017  1.00  0.00    -0.164 OA 
BRANCH  51  52
HETATM   52  C   UNL     1      -9.898   5.043  69.885  1.00  0.00    -0.226 C  
HETATM   53  O   UNL     1     -10.541   4.557  68.957  1.00  0.00     0.297 OA 
BRANCH  52  54
HETATM   54  C   UNL     1      -9.335   3.887  70.982  1.00  0.00    -0.222 A  
HETATM   55  C   UNL     1      -9.232   2.401  73.026  1.00  0.00    -0.101 A  
HETATM   56  C   UNL     1      -7.355   2.376  71.577  1.00  0.00    -0.036 A  
HETATM   57  C   UNL     1      -8.042   3.321  70.740  1.00  0.00    -0.063 A  
HETATM   58  C   UNL     1      -9.894   3.354  72.170  1.00  0.00    -0.236 A  
HETATM   59  C   UNL     1      -7.955   1.896  72.747  1.00  0.00    -0.052 A  
ENDBRANCH  52  54
ENDBRANCH  51  52
ENDBRANCH  22  51
BRANCH  18  60
HETATM   60  O   UNL     1      -9.722   7.709  71.904  1.00  0.00    -0.160 OA 
BRANCH  60  61
HETATM   61  C   UNL     1     -10.285   6.703  72.731  1.00  0.00    -0.187 C  
HETATM   62  C   UNL     1     -10.237   6.905  74.219  1.00  0.00    -0.242 C  
HETATM   63  O   UNL     1     -10.756   5.599  72.437  1.00  0.00    -0.216 OA 
ENDBRANCH  60  61
ENDBRANCH  18  60
TORSDOF 12
ENDMDL
MODEL       33
REMARK 921   NORMALIZED FREE ENERGY PREDICTED BY IDOCK:   -2.64 KCAL/MOL
REMARK 922        TOTAL FREE ENERGY PREDICTED BY IDOCK:   -7.16 KCAL/MOL
REMARK 923 INTER-LIGAND FREE ENERGY PREDICTED BY IDOCK:   -5.79 KCAL/MOL
REMARK 924 INTRA-LIGAND FREE ENERGY PREDICTED BY IDOCK:   -1.37 KCAL/MOL
REMARK 927      BINDING AFFINITY PREDICTED BY RF-SCORE:    0.00 PKD
ROOT
HETATM    1  C   UNL     1      -9.460  16.213  69.039  1.00  0.00    -0.246 C  
HETATM    2  C   UNL     1      -9.782  17.200  67.914  1.00  0.00    -0.270 C  
HETATM    3  C   UNL     1     -10.956  16.563  67.124  1.00  0.00    -0.049 C  
HETATM    4  O   UNL     1     -12.083  16.445  68.006  1.00  0.00     0.185 OA 
HETATM    5  C   UNL     1     -10.461  15.237  66.511  1.00  0.00    -0.299 C  
HETATM    6  H   UNL     1     -12.802  16.056  67.523  1.00  0.00     0.000 HD 
HETATM    7  C   UNL     1     -11.753  14.447  65.902  1.00  0.00    -0.369 C  
HETATM    8  C   UNL     1      -9.804  15.610  65.137  1.00  0.00    -0.018 C  
HETATM    9  C   UNL     1     -11.644  13.112  65.077  1.00  0.00    -0.325 C  
HETATM   10  O   UNL     1     -12.881  14.966  65.928  1.00  0.00     0.192 OA 
HETATM   11  O   UNL     1     -12.919  12.458  64.984  1.00  0.00    -0.705 OA 
HETATM   12  C   UNL     1     -10.737  12.072  65.629  1.00  0.00    -0.313 C  
HETATM   13  C   UNL     1      -9.815  11.322  64.977  1.00  0.00    -0.307 C  
HETATM   14  H   UNL     1     -12.853  11.652  64.486  1.00  0.00     0.000 HD 
HETATM   15  C   UNL     1      -8.856  10.141  65.774  1.00  0.00    -0.158 C  
HETATM   16  C   UNL     1      -9.417  11.685  63.547  1.00  0.00    -0.190 C  
HETATM   17  C   UNL     1      -8.029  11.290  66.247  1.00  0.00    -0.086 C  
HETATM   18  C   UNL     1      -8.782  14.784  69.070  1.00  0.00    -0.139 C  
HETATM   19  C   UNL     1      -9.121  15.202  70.653  1.00  0.00     1.580 C  
HETATM   20  C   UNL     1      -8.857  12.226  67.273  1.00  0.00    -0.190 C  
HETATM   21  O   UNL     1      -8.844  16.618  70.262  1.00  0.00     1.528 OA 
HETATM   22  C   UNL     1      -8.265  13.964  66.859  1.00  0.00     0.066 C  
HETATM   23  C   UNL     1     -11.752  12.591  68.041  1.00  0.00    -0.410 C  
HETATM   24  C   UNL     1     -10.677  11.872  67.096  1.00  0.00    -0.280 C  
HETATM   25  O   UNL     1      -8.616  11.839  68.638  1.00  0.00    -0.263 OA 
HETATM   26  C   UNL     1      -9.426  14.491  67.589  1.00  0.00    -0.209 C  
HETATM   27  H   UNL     1      -9.103  12.389  69.240  1.00  0.00     0.000 HD 
HETATM   28  C   UNL     1     -11.404  10.464  67.304  1.00  0.00     0.021 C  
ENDROOT
BRANCH  15  29
HETATM   29  O   UNL     1      -9.133   9.573  67.162  1.00  0.00    -0.133 OA 
BRANCH  29  30
HETATM   30  C   UNL     1      -8.691   8.335  67.575  1.00  0.00    -0.129 C  
HETATM   31  O   UNL     1      -9.120   7.292  67.101  1.00  0.00    -0.125 OA 
BRANCH  30  32
HETATM   32  C   UNL     1      -7.624   8.434  68.771  1.00  0.00    -0.101 C  
HETATM   33  O   UNL     1      -6.432   7.659  68.594  1.00  0.00    -0.045 OA 
HETATM   34  H   UNL     1      -5.801   7.718  69.302  1.00  0.00     0.000 HD 
BRANCH  32  35
HETATM   35  C   UNL     1      -8.294   8.084  70.153  1.00  0.00    -0.126 C  
BRANCH  35  36
HETATM   36  N   UNL     1      -8.779   6.678  70.116  1.00  0.00    -0.140 N  
HETATM   37  C   UNL     1      -7.907   5.709  70.437  1.00  0.00    -0.102 C  
HETATM   38  O   UNL     1      -6.743   5.820  70.551  1.00  0.00    -0.045 OA 
HETATM   39  H   UNL     1      -9.741   6.459  69.856  1.00  0.00     0.000 HD 
BRANCH  37  40
HETATM   40  O   UNL     1      -8.621   4.533  70.697  1.00  0.00    -0.090 OA 
HETATM   41  C   UNL     1      -8.493   3.470  69.738  1.00  0.00    -0.053 C  
HETATM   42  C   UNL     1      -7.026   3.013  69.625  1.00  0.00    -0.041 C  
HETATM   43  C   UNL     1      -9.088   3.867  68.379  1.00  0.00    -0.189 C  
HETATM   44  C   UNL     1      -9.314   2.302  70.309  1.00  0.00    -0.184 C  
ENDBRANCH  37  40
ENDBRANCH  35  36
BRANCH  35  45
HETATM   45  C   UNL     1      -7.582   8.346  71.492  1.00  0.00    -0.118 A  
HETATM   46  C   UNL     1      -6.290   8.866  71.646  1.00  0.00    -0.074 A  
HETATM   47  C   UNL     1      -6.417   8.672  74.081  1.00  0.00    -0.123 A  
HETATM   48  C   UNL     1      -8.262   7.987  72.684  1.00  0.00    -0.203 A  
HETATM   49  C   UNL     1      -5.718   9.032  72.929  1.00  0.00    -0.055 A  
HETATM   50  C   UNL     1      -7.693   8.144  73.957  1.00  0.00    -0.258 A  
ENDBRANCH  35  45
ENDBRANCH  32  35
ENDBRANCH  30  32
ENDBRANCH  29  30
ENDBRANCH  15  29
BRANCH  22  51
HETATM   51  O   UNL     1      -7.260  15.318  67.444  1.00  0.00    -0.185 OA 
BRANCH  51  52
HETATM   52  C   UNL     1      -6.249  16.285  67.124  1.00  0.00    -0.141 C  
HETATM   53  O   UNL     1      -5.136  16.171  67.633  1.00  0.00    -0.121 OA 
BRANCH  52  54
HETATM   54  C   UNL     1      -6.440  17.722  66.255  1.00  0.00    -0.285 A  
HETATM   55  C   UNL     1      -6.225  19.421  64.395  1.00  0.00    -0.139 A  
HETATM   56  C   UNL     1      -7.329  20.120  66.374  1.00  0.00    -0.313 A  
HETATM   57  C   UNL     1      -7.118  18.802  66.906  1.00  0.00    -0.218 A  
HETATM   58  C   UNL     1      -6.022  18.110  64.959  1.00  0.00    -0.025 A  
HETATM   59  C   UNL     1      -6.881  20.448  65.089  1.00  0.00    -0.275 A  
ENDBRANCH  52  54
ENDBRANCH  51  52
ENDBRANCH  22  51
BRANCH  18  60
HETATM   60  O   UNL     1      -7.299  14.223  69.422  1.00  0.00    -0.102 OA 
BRANCH  60  61
HETATM   61  C   UNL     1      -6.312  14.595  70.371  1.00  0.00    -0.153 C  
HETATM   62  C   UNL     1      -5.702  13.512  71.213  1.00  0.00    -0.148 C  
HETATM   63  O   UNL     1      -5.904  15.713  70.701  1.00  0.00    -0.096 OA 
ENDBRANCH  60  61
ENDBRANCH  18  60
TORSDOF 12
ENDMDL
MODEL       34
REMARK 921   NORMALIZED FREE ENERGY PREDICTED BY IDOCK:   -2.58 KCAL/MOL
REMARK 922        TOTAL FREE ENERGY PREDICTED BY IDOCK:   -7.06 KCAL/MOL
REMARK 923 INTER-LIGAND FREE ENERGY PREDICTED BY IDOCK:   -7.62 KCAL/MOL
REMARK 924 INTRA-LIGAND FREE ENERGY PREDICTED BY IDOCK:    0.55 KCAL/MOL
REMARK 927      BINDING AFFINITY PREDICTED BY RF-SCORE:    0.00 PKD
ROOT
HETATM    1  C   UNL     1      -8.909  14.916  66.348  1.00  0.00    -0.161 C  
HETATM    2  C   UNL     1      -8.077  15.666  67.392  1.00  0.00    -0.195 C  
HETATM    3  C   UNL     1      -6.912  14.711  67.761  1.00  0.00    -0.177 C  
HETATM    4  O   UNL     1      -6.124  14.482  66.583  1.00  0.00     0.714 OA 
HETATM    5  C   UNL     1      -7.513  13.444  68.405  1.00  0.00    -0.117 C  
HETATM    6  H   UNL     1      -5.410  13.897  66.808  1.00  0.00     0.000 HD 
HETATM    7  C   UNL     1      -6.322  12.340  68.557  1.00  0.00    -0.057 C  
HETATM    8  C   UNL     1      -7.670  13.764  69.931  1.00  0.00     1.028 C  
HETATM    9  C   UNL     1      -6.506  10.960  69.290  1.00  0.00    -0.071 C  
HETATM   10  O   UNL     1      -5.154  12.620  68.237  1.00  0.00    -0.056 OA 
HETATM   11  O   UNL     1      -5.439  10.056  68.964  1.00  0.00    -0.036 OA 
HETATM   12  C   UNL     1      -7.742  10.202  68.960  1.00  0.00    -0.100 C  
HETATM   13  C   UNL     1      -8.599   9.576  69.803  1.00  0.00    -0.201 C  
HETATM   14  H   UNL     1      -5.550   9.223  69.407  1.00  0.00     0.000 HD 
HETATM   15  C   UNL     1      -9.983   8.723  69.247  1.00  0.00    -0.194 C  
HETATM   16  C   UNL     1      -8.502   9.827  71.308  1.00  0.00     1.036 C  
HETATM   17  C   UNL     1     -10.620  10.066  69.111  1.00  0.00    -0.240 C  
HETATM   18  C   UNL     1      -9.879  13.669  66.423  1.00  0.00    -0.296 C  
HETATM   19  C   UNL     1      -9.895  14.208  64.841  1.00  0.00     0.057 C  
HETATM   20  C   UNL     1      -9.909  10.940  67.951  1.00  0.00    -0.172 C  
HETATM   21  O   UNL     1      -9.723  15.589  65.386  1.00  0.00    -0.300 OA 
HETATM   22  C   UNL     1      -9.953  12.694  68.631  1.00  0.00    -0.097 C  
HETATM   23  C   UNL     1      -7.326  10.809  66.396  1.00  0.00    -0.142 C  
HETATM   24  C   UNL     1      -8.241  10.207  67.566  1.00  0.00    -0.114 C  
HETATM   25  O   UNL     1     -10.592  10.786  66.694  1.00  0.00    -0.245 OA 
HETATM   26  C   UNL     1      -8.944  13.066  67.630  1.00  0.00    -0.192 C  
HETATM   27  H   UNL     1     -10.174  11.299  66.012  1.00  0.00     0.000 HD 
HETATM   28  C   UNL     1      -7.939   8.720  67.063  1.00  0.00    -0.095 C  
ENDROOT
BRANCH  15  29
HETATM   29  O   UNL     1     -10.229   8.293  67.804  1.00  0.00    -0.197 OA 
BRANCH  29  30
HETATM   30  C   UNL     1     -10.553   7.004  67.444  1.00  0.00    -0.302 C  
HETATM   31  O   UNL     1     -11.535   6.737  66.763  1.00  0.00    -0.089 OA 
BRANCH  30  32
HETATM   32  C   UNL     1      -9.546   5.922  68.073  1.00  0.00    -0.116 C  
HETATM   33  O   UNL     1      -9.038   4.950  67.152  1.00  0.00    -0.116 OA 
HETATM   34  H   UNL     1      -8.442   4.310  67.524  1.00  0.00     0.000 HD 
BRANCH  32  35
HETATM   35  C   UNL     1     -10.198   5.201  69.312  1.00  0.00    -0.206 C  
BRANCH  35  36
HETATM   36  N   UNL     1      -9.340   4.054  69.714  1.00  0.00    -0.154 N  
HETATM   37  C   UNL     1      -8.033   4.290  69.905  1.00  0.00    -0.056 C  
HETATM   38  O   UNL     1      -7.440   5.258  69.597  1.00  0.00    -0.063 OA 
HETATM   39  H   UNL     1      -9.732   3.121  69.840  1.00  0.00     0.000 HD 
BRANCH  37  40
HETATM   40  O   UNL     1      -7.482   3.215  70.612  1.00  0.00    -0.040 OA 
HETATM   41  C   UNL     1      -6.049   3.108  70.621  1.00  0.00    -0.019 C  
HETATM   42  C   UNL     1      -5.414   4.356  71.264  1.00  0.00    -0.011 C  
HETATM   43  C   UNL     1      -5.499   2.833  69.213  1.00  0.00    -0.017 C  
HETATM   44  C   UNL     1      -5.733   1.898  71.515  1.00  0.00    -0.009 C  
ENDBRANCH  37  40
ENDBRANCH  35  36
BRANCH  35  45
HETATM   45  C   UNL     1     -10.639   5.976  70.566  1.00  0.00    -0.329 A  
HETATM   46  C   UNL     1      -9.936   6.046  71.776  1.00  0.00    -0.199 A  
HETATM   47  C   UNL     1     -11.689   7.407  72.806  1.00  0.00    -0.184 A  
HETATM   48  C   UNL     1     -11.891   6.643  70.526  1.00  0.00    -0.430 A  
HETATM   49  C   UNL     1     -10.455   6.760  72.881  1.00  0.00    -0.260 A  
HETATM   50  C   UNL     1     -12.410   7.345  71.624  1.00  0.00    -0.373 A  
ENDBRANCH  35  45
ENDBRANCH  32  35
ENDBRANCH  30  32
ENDBRANCH  29  30
ENDBRANCH  15  29
BRANCH  22  51
HETATM   51  O   UNL     1     -10.740  14.286  68.454  1.00  0.00    -0.238 OA 
BRANCH  51  52
HETATM   52  C   UNL     1     -11.070  15.535  69.078  1.00  0.00    -0.267 C  
HETATM   53  O   UNL     1     -11.802  15.531  70.065  1.00  0.00    -0.311 OA 
BRANCH  52  54
HETATM   54  C   UNL     1     -10.727  17.089  68.510  1.00  0.00    -0.352 A  
HETATM   55  C   UNL     1     -10.764  19.142  67.033  1.00  0.00    -0.542 A  
HETATM   56  C   UNL     1      -9.252  19.153  68.859  1.00  0.00    -0.365 A  
HETATM   57  C   UNL     1      -9.735  17.846  69.212  1.00  0.00     0.004 A  
HETATM   58  C   UNL     1     -11.223  17.828  67.407  1.00  0.00     0.328 A  
HETATM   59  C   UNL     1      -9.773  19.828  67.750  1.00  0.00    -0.495 A  
ENDBRANCH  52  54
ENDBRANCH  51  52
ENDBRANCH  22  51
BRANCH  18  60
HETATM   60  O   UNL     1     -11.489  13.466  66.484  1.00  0.00    -0.317 OA 
BRANCH  60  61
HETATM   61  C   UNL     1     -12.486  13.248  65.498  1.00  0.00    -0.474 C  
HETATM   62  C   UNL     1     -12.156  12.334  64.354  1.00  0.00    -0.481 C  
HETATM   63  O   UNL     1     -13.600  13.764  65.362  1.00  0.00    -0.517 OA 
ENDBRANCH  60  61
ENDBRANCH  18  60
TORSDOF 12
ENDMDL
MODEL       35
REMARK 921   NORMALIZED FREE ENERGY PREDICTED BY IDOCK:   -2.51 KCAL/MOL
REMARK 922        TOTAL FREE ENERGY PREDICTED BY IDOCK:   -6.94 KCAL/MOL
REMARK 923 INTER-LIGAND FREE ENERGY PREDICTED BY IDOCK:   -8.51 KCAL/MOL
REMARK 924 INTRA-LIGAND FREE ENERGY PREDICTED BY IDOCK:    1.57 KCAL/MOL
REMARK 927      BINDING AFFINITY PREDICTED BY RF-SCORE:    0.00 PKD
ROOT
HETATM    1  C   UNL     1      -6.318   5.156  68.245  1.00  0.00    -0.036 C  
HETATM    2  C   UNL     1      -6.923   4.130  67.283  1.00  0.00    -0.059 C  
HETATM    3  C   UNL     1      -6.609   4.660  65.858  1.00  0.00    -0.045 C  
HETATM    4  O   UNL     1      -5.184   4.700  65.695  1.00  0.00    -0.008 OA 
HETATM    5  C   UNL     1      -7.329   6.013  65.678  1.00  0.00    -0.076 C  
HETATM    6  H   UNL     1      -4.991   5.024  64.823  1.00  0.00     0.000 HD 
HETATM    7  C   UNL     1      -6.797   6.688  64.291  1.00  0.00    -0.049 C  
HETATM    8  C   UNL     1      -8.776   5.673  65.180  1.00  0.00    -0.096 C  
HETATM    9  C   UNL     1      -7.390   8.016  63.690  1.00  0.00    -0.106 C  
HETATM   10  O   UNL     1      -6.000   6.081  63.557  1.00  0.00    -0.021 OA 
HETATM   11  O   UNL     1      -6.516   8.564  62.691  1.00  0.00    -0.091 OA 
HETATM   12  C   UNL     1      -7.601   9.133  64.648  1.00  0.00    -0.106 C  
HETATM   13  C   UNL     1      -8.679   9.944  64.775  1.00  0.00    -0.210 C  
HETATM   14  H   UNL     1      -6.874   9.366  62.328  1.00  0.00     0.000 HD 
HETATM   15  C   UNL     1      -8.749  11.210  65.935  1.00  0.00    -0.164 C  
HETATM   16  C   UNL     1      -9.981   9.594  64.056  1.00  0.00     0.860 C  
HETATM   17  C   UNL     1      -9.061  10.137  66.925  1.00  0.00    -0.160 C  
HETATM   18  C   UNL     1      -6.712   6.634  68.646  1.00  0.00    -0.064 C  
HETATM   19  C   UNL     1      -5.382   6.213  69.567  1.00  0.00    -0.012 C  
HETATM   20  C   UNL     1      -7.797   9.153  67.142  1.00  0.00    -0.102 C  
HETATM   21  O   UNL     1      -5.919   4.819  69.575  1.00  0.00    -0.016 OA 
HETATM   22  C   UNL     1      -8.590   7.461  67.374  1.00  0.00    -0.118 C  
HETATM   23  C   UNL     1      -5.213   8.569  65.696  1.00  0.00    -0.034 C  
HETATM   24  C   UNL     1      -6.608   9.358  65.723  1.00  0.00    -0.073 C  
HETATM   25  O   UNL     1      -6.994   9.577  68.258  1.00  0.00    -0.069 OA 
HETATM   26  C   UNL     1      -7.277   6.854  67.121  1.00  0.00    -0.085 C  
HETATM   27  H   UNL     1      -6.251   8.998  68.385  1.00  0.00     0.000 HD 
HETATM   28  C   UNL     1      -5.877  10.706  65.272  1.00  0.00    -0.107 C  
ENDROOT
BRANCH  15  29
HETATM   29  O   UNL     1      -7.553  11.773  66.695  1.00  0.00    -0.108 OA 
BRANCH  29  30
HETATM   30  C   UNL     1      -7.556  13.011  67.299  1.00  0.00    -0.089 C  
HETATM   31  O   UNL     1      -6.922  13.961  66.856  1.00  0.00     0.163 OA 
BRANCH  30  32
HETATM   32  C   UNL     1      -8.416  13.029  68.655  1.00  0.00     0.041 C  
HETATM   33  O   UNL     1      -8.526  11.769  69.327  1.00  0.00    -0.332 OA 
HETATM   34  H   UNL     1      -9.035  11.779  70.129  1.00  0.00     0.000 HD 
BRANCH  32  35
HETATM   35  C   UNL     1      -9.849  13.632  68.404  1.00  0.00    -0.223 C  
BRANCH  35  36
HETATM   36  N   UNL     1     -10.554  12.806  67.389  1.00  0.00    -0.228 N  
HETATM   37  C   UNL     1     -11.773  13.208  66.996  1.00  0.00    -0.377 C  
HETATM   38  O   UNL     1     -12.442  14.029  67.507  1.00  0.00    -0.181 OA 
HETATM   39  H   UNL     1     -10.126  11.964  67.004  1.00  0.00     0.000 HD 
BRANCH  37  40
HETATM   40  O   UNL     1     -12.106  12.539  65.812  1.00  0.00    -0.511 OA 
HETATM   41  C   UNL     1     -11.750  13.185  64.578  1.00  0.00    -0.371 C  
HETATM   42  C   UNL     1     -10.226  13.387  64.490  1.00  0.00    -0.321 C  
HETATM   43  C   UNL     1     -12.526  14.497  64.389  1.00  0.00    -0.335 C  
HETATM   44  C   UNL     1     -12.167  12.207  63.468  1.00  0.00    -0.670 C  
ENDBRANCH  37  40
ENDBRANCH  35  36
BRANCH  35  45
HETATM   45  C   UNL     1     -10.810  13.954  69.562  1.00  0.00    -0.045 A  
HETATM   46  C   UNL     1     -11.854  13.135  70.013  1.00  0.00    -0.360 A  
HETATM   47  C   UNL     1     -12.537  14.789  71.681  1.00  0.00    -0.394 A  
HETATM   48  C   UNL     1     -10.672  15.210  70.208  1.00  0.00    -0.232 A  
HETATM   49  C   UNL     1     -12.703  13.548  71.066  1.00  0.00    -0.399 A  
HETATM   50  C   UNL     1     -11.519  15.624  71.247  1.00  0.00    -0.469 A  
ENDBRANCH  35  45
ENDBRANCH  32  35
ENDBRANCH  30  32
ENDBRANCH  29  30
ENDBRANCH  15  29
BRANCH  22  51
HETATM   51  O   UNL     1      -8.960   6.201  68.582  1.00  0.00    -0.126 OA 
BRANCH  51  52
HETATM   52  C   UNL     1      -9.769   5.817  69.703  1.00  0.00    -0.161 C  
HETATM   53  O   UNL     1      -9.843   4.627  70.002  1.00  0.00    -0.193 OA 
BRANCH  52  54
HETATM   54  C   UNL     1     -10.826   6.794  70.590  1.00  0.00    -0.292 A  
HETATM   55  C   UNL     1     -11.718   8.246  72.458  1.00  0.00    -0.451 A  
HETATM   56  C   UNL     1     -13.222   7.688  70.713  1.00  0.00     0.194 A  
HETATM   57  C   UNL     1     -12.156   6.957  70.084  1.00  0.00    -0.111 A  
HETATM   58  C   UNL     1     -10.670   7.499  71.809  1.00  0.00    -0.243 A  
HETATM   59  C   UNL     1     -13.009   8.355  71.924  1.00  0.00    -0.381 A  
ENDBRANCH  52  54
ENDBRANCH  51  52
ENDBRANCH  22  51
BRANCH  18  60
HETATM   60  O   UNL     1      -7.496   7.317  69.894  1.00  0.00    -0.082 OA 
BRANCH  60  61
HETATM   61  C   UNL     1      -7.084   8.128  70.982  1.00  0.00    -0.056 C  
HETATM   62  C   UNL     1      -8.130   8.934  71.696  1.00  0.00    -0.088 C  
HETATM   63  O   UNL     1      -5.952   8.365  71.417  1.00  0.00    -0.035 OA 
ENDBRANCH  60  61
ENDBRANCH  18  60
TORSDOF 12
ENDMDL
MODEL       36
REMARK 921   NORMALIZED FREE ENERGY PREDICTED BY IDOCK:   -2.42 KCAL/MOL
REMARK 922        TOTAL FREE ENERGY PREDICTED BY IDOCK:   -6.79 KCAL/MOL
REMARK 923 INTER-LIGAND FREE ENERGY PREDICTED BY IDOCK:   -6.40 KCAL/MOL
REMARK 924 INTRA-LIGAND FREE ENERGY PREDICTED BY IDOCK:   -0.39 KCAL/MOL
REMARK 927      BINDING AFFINITY PREDICTED BY RF-SCORE:    0.00 PKD
ROOT
HETATM    1  C   UNL     1      -9.350   4.034  68.171  1.00  0.00    -0.164 C  
HETATM    2  C   UNL     1      -8.369   3.360  69.135  1.00  0.00    -0.084 C  
HETATM    3  C   UNL     1      -8.622   4.022  70.516  1.00  0.00    -0.070 C  
HETATM    4  O   UNL     1      -9.971   3.737  70.914  1.00  0.00    -0.168 OA 
HETATM    5  C   UNL     1      -8.275   5.522  70.402  1.00  0.00    -0.104 C  
HETATM    6  H   UNL     1     -10.126   4.142  71.759  1.00  0.00     0.000 HD 
HETATM    7  C   UNL     1      -8.778   6.263  71.765  1.00  0.00    -0.133 C  
HETATM    8  C   UNL     1      -6.736   5.635  70.683  1.00  0.00    -0.048 C  
HETATM    9  C   UNL     1      -8.490   7.775  72.088  1.00  0.00    -0.125 C  
HETATM   10  O   UNL     1      -9.279   5.607  72.694  1.00  0.00    -0.138 OA 
HETATM   11  O   UNL     1      -9.338   8.247  73.146  1.00  0.00    -0.261 OA 
HETATM   12  C   UNL     1      -8.716   8.738  70.978  1.00  0.00    -0.248 C  
HETATM   13  C   UNL     1      -7.922   9.757  70.569  1.00  0.00    -0.059 C  
HETATM   14  H   UNL     1      -9.163   9.161  73.341  1.00  0.00     0.000 HD 
HETATM   15  C   UNL     1      -8.349  10.794  69.267  1.00  0.00    -0.062 C  
HETATM   16  C   UNL     1      -6.490   9.860  71.093  1.00  0.00     0.089 C  
HETATM   17  C   UNL     1      -7.895   9.684  68.379  1.00  0.00    -0.085 C  
HETATM   18  C   UNL     1      -9.424   5.478  67.529  1.00  0.00    -0.117 C  
HETATM   19  C   UNL     1     -10.703   4.598  66.908  1.00  0.00     0.407 C  
HETATM   20  C   UNL     1      -8.865   8.397  68.504  1.00  0.00    -0.136 C  
HETATM   21  O   UNL     1      -9.817   3.397  66.981  1.00  0.00    -0.060 OA 
HETATM   22  C   UNL     1      -7.685   6.938  68.349  1.00  0.00    -0.116 C  
HETATM   23  C   UNL     1     -10.981   7.440  70.430  1.00  0.00    -0.269 C  
HETATM   24  C   UNL     1      -9.867   8.533  70.068  1.00  0.00    -0.181 C  
HETATM   25  O   UNL     1      -9.893   8.422  67.497  1.00  0.00    -0.159 OA 
HETATM   26  C   UNL     1      -8.742   6.076  68.897  1.00  0.00    -0.122 C  
HETATM   27  H   UNL     1     -10.464   7.666  67.571  1.00  0.00     0.000 HD 
HETATM   28  C   UNL     1     -10.865   9.714  70.468  1.00  0.00    -0.371 C  
ENDROOT
BRANCH  15  29
HETATM   29  O   UNL     1      -9.742  10.913  68.659  1.00  0.00    -0.172 OA 
BRANCH  29  30
HETATM   30  C   UNL     1     -10.469  12.083  68.658  1.00  0.00    -0.218 C  
HETATM   31  O   UNL     1     -10.670  12.734  69.676  1.00  0.00     0.187 OA 
BRANCH  30  32
HETATM   32  C   UNL     1     -11.060  12.436  67.207  1.00  0.00    -0.281 C  
HETATM   33  O   UNL     1     -11.879  11.420  66.615  1.00  0.00    -0.399 OA 
HETATM   34  H   UNL     1     -12.229  11.629  65.757  1.00  0.00     0.000 HD 
BRANCH  32  35
HETATM   35  C   UNL     1      -9.907  12.844  66.214  1.00  0.00    -0.273 C  
BRANCH  35  36
HETATM   36  N   UNL     1      -8.794  13.457  66.986  1.00  0.00    -0.268 N  
HETATM   37  C   UNL     1      -8.842  14.782  67.202  1.00  0.00    -0.216 C  
HETATM   38  O   UNL     1      -9.557  15.554  66.681  1.00  0.00    -0.229 OA 
HETATM   39  H   UNL     1      -8.023  12.892  67.340  1.00  0.00     0.000 HD 
BRANCH  37  40
HETATM   40  O   UNL     1      -7.939  15.102  68.223  1.00  0.00    -0.123 OA 
HETATM   41  C   UNL     1      -6.560  15.253  67.848  1.00  0.00    -0.157 C  
HETATM   42  C   UNL     1      -6.397  16.389  66.821  1.00  0.00    -0.007 C  
HETATM   43  C   UNL     1      -5.966  13.926  67.351  1.00  0.00     0.218 C  
HETATM   44  C   UNL     1      -5.827  15.665  69.136  1.00  0.00    -0.108 C  
ENDBRANCH  37  40
ENDBRANCH  35  36
BRANCH  35  45
HETATM   45  C   UNL     1      -9.334  11.855  65.184  1.00  0.00     0.029 A  
HETATM   46  C   UNL     1      -8.445  10.808  65.458  1.00  0.00    -0.153 A  
HETATM   47  C   UNL     1      -8.321  10.187  63.095  1.00  0.00    -0.171 A  
HETATM   48  C   UNL     1      -9.687  12.040  63.822  1.00  0.00    -0.197 A  
HETATM   49  C   UNL     1      -7.950   9.980  64.424  1.00  0.00    -0.152 A  
HETATM   50  C   UNL     1      -9.190  11.224  62.794  1.00  0.00    -0.354 A  
ENDBRANCH  35  45
ENDBRANCH  32  35
ENDBRANCH  30  32
ENDBRANCH  29  30
ENDBRANCH  15  29
BRANCH  22  51
HETATM   51  O   UNL     1      -7.155   5.627  67.261  1.00  0.00    -0.071 OA 
BRANCH  51  52
HETATM   52  C   UNL     1      -6.148   4.648  66.969  1.00  0.00    -0.031 C  
HETATM   53  O   UNL     1      -5.323   4.367  67.836  1.00  0.00    -0.010 OA 
BRANCH  52  54
HETATM   54  C   UNL     1      -5.811   3.935  65.474  1.00  0.00    -0.022 A  
HETATM   55  C   UNL     1      -5.167   3.710  63.039  1.00  0.00    -0.005 A  
HETATM   56  C   UNL     1      -5.897   1.745  64.148  1.00  0.00    -0.009 A  
HETATM   57  C   UNL     1      -6.054   2.530  65.342  1.00  0.00    -0.023 A  
HETATM   58  C   UNL     1      -5.341   4.472  64.250  1.00  0.00    -0.013 A  
HETATM   59  C   UNL     1      -5.440   2.337  62.965  1.00  0.00    -0.008 A  
ENDBRANCH  52  54
ENDBRANCH  51  52
ENDBRANCH  22  51
BRANCH  18  60
HETATM   60  O   UNL     1      -9.025   6.119  66.092  1.00  0.00    -0.152 OA 
BRANCH  60  61
HETATM   61  C   UNL     1      -8.836   5.573  64.796  1.00  0.00     0.024 C  
HETATM   62  C   UNL     1      -9.270   4.156  64.558  1.00  0.00    -0.151 C  
HETATM   63  O   UNL     1      -8.277   6.050  63.803  1.00  0.00    -0.107 OA 
ENDBRANCH  60  61
ENDBRANCH  18  60
TORSDOF 12
ENDMDL
MODEL       37
REMARK 921   NORMALIZED FREE ENERGY PREDICTED BY IDOCK:   -2.36 KCAL/MOL
REMARK 922        TOTAL FREE ENERGY PREDICTED BY IDOCK:   -6.68 KCAL/MOL
REMARK 923 INTER-LIGAND FREE ENERGY PREDICTED BY IDOCK:   -5.26 KCAL/MOL
REMARK 924 INTRA-LIGAND FREE ENERGY PREDICTED BY IDOCK:   -1.42 KCAL/MOL
REMARK 927      BINDING AFFINITY PREDICTED BY RF-SCORE:    0.00 PKD
ROOT
HETATM    1  C   UNL     1     -10.784  12.039  68.164  1.00  0.00    -0.216 C  
HETATM    2  C   UNL     1     -11.038  13.194  67.191  1.00  0.00    -0.305 C  
HETATM    3  C   UNL     1     -11.247  12.531  65.803  1.00  0.00    -0.320 C  
HETATM    4  O   UNL     1     -12.408  11.689  65.875  1.00  0.00     0.073 OA 
HETATM    5  C   UNL     1      -9.939  11.814  65.410  1.00  0.00    -0.284 C  
HETATM    6  H   UNL     1     -12.536  11.283  65.026  1.00  0.00     0.000 HD 
HETATM    7  C   UNL     1     -10.236  10.910  64.085  1.00  0.00    -0.359 C  
HETATM    8  C   UNL     1      -9.046  12.893  64.706  1.00  0.00     1.252 C  
HETATM    9  C   UNL     1      -9.119  10.128  63.300  1.00  0.00    -0.271 C  
HETATM   10  O   UNL     1     -11.351  10.936  63.538  1.00  0.00     0.184 OA 
HETATM   11  O   UNL     1      -9.696   9.148  62.423  1.00  0.00    -0.385 OA 
HETATM   12  C   UNL     1      -8.154   9.357  64.127  1.00  0.00    -0.145 C  
HETATM   13  C   UNL     1      -6.804   9.299  64.016  1.00  0.00    -0.092 C  
HETATM   14  H   UNL     1      -9.021   8.676  61.949  1.00  0.00     0.000 HD 
HETATM   15  C   UNL     1      -5.834   8.334  65.054  1.00  0.00    -0.045 C  
HETATM   16  C   UNL     1      -6.074  10.298  63.119  1.00  0.00    -0.145 C  
HETATM   17  C   UNL     1      -6.007   9.429  66.054  1.00  0.00    -0.062 C  
HETATM   18  C   UNL     1      -9.566  11.055  68.386  1.00  0.00    -0.181 C  
HETATM   19  C   UNL     1     -10.715  10.684  69.543  1.00  0.00    -0.251 C  
HETATM   20  C   UNL     1      -7.543   9.537  66.547  1.00  0.00    -0.094 C  
HETATM   21  O   UNL     1     -11.060  12.138  69.561  1.00  0.00    -0.170 OA 
HETATM   22  C   UNL     1      -7.807  11.387  66.766  1.00  0.00    -0.157 C  
HETATM   23  C   UNL     1     -10.217   8.513  65.593  1.00  0.00     1.064 C  
HETATM   24  C   UNL     1      -8.641   8.648  65.333  1.00  0.00    -0.206 C  
HETATM   25  O   UNL     1      -7.758   8.772  67.747  1.00  0.00    -0.099 OA 
HETATM   26  C   UNL     1      -9.256  11.140  66.777  1.00  0.00    -0.183 C  
HETATM   27  H   UNL     1      -8.661   8.835  68.036  1.00  0.00     0.000 HD 
HETATM   28  C   UNL     1      -8.558   7.109  64.912  1.00  0.00     0.160 C  
ENDROOT
BRANCH  15  29
HETATM   29  O   UNL     1      -6.352   7.221  65.959  1.00  0.00    -0.039 OA 
BRANCH  29  30
HETATM   30  C   UNL     1      -5.957   5.907  65.843  1.00  0.00    -0.028 C  
HETATM   31  O   UNL     1      -5.584   5.423  64.782  1.00  0.00    -0.016 OA 
BRANCH  30  32
HETATM   32  C   UNL     1      -6.110   5.098  67.222  1.00  0.00    -0.030 C  
HETATM   33  O   UNL     1      -5.197   4.008  67.398  1.00  0.00    -0.010 OA 
HETATM   34  H   UNL     1      -5.287   3.530  68.213  1.00  0.00     0.000 HD 
BRANCH  32  35
HETATM   35  C   UNL     1      -7.590   4.596  67.419  1.00  0.00    -0.085 C  
BRANCH  35  36
HETATM   36  N   UNL     1      -8.324   5.568  68.272  1.00  0.00    -0.099 N  
HETATM   37  C   UNL     1      -8.825   5.122  69.435  1.00  0.00    -0.099 C  
HETATM   38  O   UNL     1      -8.931   4.001  69.772  1.00  0.00    -0.083 OA 
HETATM   39  H   UNL     1      -8.441   6.540  67.985  1.00  0.00     0.000 HD 
BRANCH  37  40
HETATM   40  O   UNL     1      -9.143   6.224  70.238  1.00  0.00    -0.151 OA 
HETATM   41  C   UNL     1     -10.489   6.297  70.738  1.00  0.00    -0.222 C  
HETATM   42  C   UNL     1     -10.810   5.075  71.618  1.00  0.00    -0.058 C  
HETATM   43  C   UNL     1     -11.501   6.478  69.597  1.00  0.00    -0.417 C  
HETATM   44  C   UNL     1     -10.527   7.550  71.629  1.00  0.00    -0.226 C  
ENDBRANCH  37  40
ENDBRANCH  35  36
BRANCH  35  45
HETATM   45  C   UNL     1      -8.475   4.188  66.229  1.00  0.00    -0.109 A  
HETATM   46  C   UNL     1      -8.088   3.365  65.163  1.00  0.00    -0.093 A  
HETATM   47  C   UNL     1     -10.260   3.626  64.068  1.00  0.00    -0.232 A  
HETATM   48  C   UNL     1      -9.787   4.725  66.164  1.00  0.00    -0.234 A  
HETATM   49  C   UNL     1      -8.975   3.083  64.098  1.00  0.00    -0.104 A  
HETATM   50  C   UNL     1     -10.665   4.453  65.104  1.00  0.00    -0.144 A  
ENDBRANCH  35  45
ENDBRANCH  32  35
ENDBRANCH  30  32
ENDBRANCH  29  30
ENDBRANCH  15  29
BRANCH  22  51
HETATM   51  O   UNL     1      -8.000  12.677  67.984  1.00  0.00    -0.132 OA 
BRANCH  51  52
HETATM   52  C   UNL     1      -7.410  13.818  68.624  1.00  0.00    -0.117 C  
HETATM   53  O   UNL     1      -6.652  13.640  69.574  1.00  0.00    -0.112 OA 
BRANCH  52  54
HETATM   54  C   UNL     1      -7.775  15.448  68.359  1.00  0.00    -0.120 A  
HETATM   55  C   UNL     1      -7.949  17.939  68.756  1.00  0.00    -0.246 A  
HETATM   56  C   UNL     1      -8.992  17.081  66.807  1.00  0.00    -0.267 A  
HETATM   57  C   UNL     1      -8.526  15.774  67.185  1.00  0.00    -0.235 A  
HETATM   58  C   UNL     1      -7.501  16.616  69.113  1.00  0.00    -0.207 A  
HETATM   59  C   UNL     1      -8.700  18.196  67.600  1.00  0.00    -0.249 A  
ENDBRANCH  52  54
ENDBRANCH  51  52
ENDBRANCH  22  51
BRANCH  18  60
HETATM   60  O   UNL     1      -8.328  10.976  69.435  1.00  0.00    -0.026 OA 
BRANCH  60  61
HETATM   61  C   UNL     1      -7.802   9.941  70.251  1.00  0.00    -0.129 C  
HETATM   62  C   UNL     1      -6.614  10.259  71.112  1.00  0.00     0.399 C  
HETATM   63  O   UNL     1      -8.108   8.746  70.321  1.00  0.00    -0.098 OA 
ENDBRANCH  60  61
ENDBRANCH  18  60
TORSDOF 12
ENDMDL
MODEL       38
REMARK 921   NORMALIZED FREE ENERGY PREDICTED BY IDOCK:   -2.33 KCAL/MOL
REMARK 922        TOTAL FREE ENERGY PREDICTED BY IDOCK:   -6.63 KCAL/MOL
REMARK 923 INTER-LIGAND FREE ENERGY PREDICTED BY IDOCK:   -5.98 KCAL/MOL
REMARK 924 INTRA-LIGAND FREE ENERGY PREDICTED BY IDOCK:   -0.65 KCAL/MOL
REMARK 927      BINDING AFFINITY PREDICTED BY RF-SCORE:    0.00 PKD
ROOT
HETATM    1  C   UNL     1      -9.900  15.525  68.736  1.00  0.00    -0.217 C  
HETATM    2  C   UNL     1     -10.557  16.405  67.669  1.00  0.00    -0.313 C  
HETATM    3  C   UNL     1     -11.575  15.487  66.940  1.00  0.00     0.099 C  
HETATM    4  O   UNL     1     -12.559  15.058  67.893  1.00  0.00    -0.213 OA 
HETATM    5  C   UNL     1     -10.790  14.351  66.251  1.00  0.00    -0.313 C  
HETATM    6  H   UNL     1     -13.182  14.496  67.448  1.00  0.00     0.000 HD 
HETATM    7  C   UNL     1     -11.866  13.252  65.706  1.00  0.00    -0.387 C  
HETATM    8  C   UNL     1     -10.362  14.907  64.849  1.00  0.00    -0.347 C  
HETATM    9  C   UNL     1     -11.467  12.007  64.831  1.00  0.00    -0.294 C  
HETATM   10  O   UNL     1     -13.087  13.448  65.826  1.00  0.00    -0.338 OA 
HETATM   11  O   UNL     1     -12.524  11.036  64.803  1.00  0.00     1.125 OA 
HETATM   12  C   UNL     1     -10.276  11.241  65.284  1.00  0.00    -0.328 C  
HETATM   13  C   UNL     1      -9.239  10.776  64.545  1.00  0.00    -0.250 C  
HETATM   14  H   UNL     1     -12.282  10.284  64.275  1.00  0.00     0.000 HD 
HETATM   15  C   UNL     1      -7.942   9.885  65.234  1.00  0.00    -0.137 C  
HETATM   16  C   UNL     1      -9.061  11.253  63.104  1.00  0.00    -0.209 C  
HETATM   17  C   UNL     1      -7.419  11.208  65.687  1.00  0.00     0.240 C  
HETATM   18  C   UNL     1      -8.864  14.331  68.672  1.00  0.00    -0.150 C  
HETATM   19  C   UNL     1      -9.182  14.620  70.288  1.00  0.00     1.235 C  
HETATM   20  C   UNL     1      -8.387  11.872  66.799  1.00  0.00    -0.153 C  
HETATM   21  O   UNL     1      -9.324  16.063  69.927  1.00  0.00    -0.035 OA 
HETATM   22  C   UNL     1      -8.314  13.712  66.405  1.00  0.00     0.680 C  
HETATM   23  C   UNL     1     -11.208  11.434  67.776  1.00  0.00    -0.346 C  
HETATM   24  C   UNL     1     -10.054  11.044  66.735  1.00  0.00    -0.260 C  
HETATM   25  O   UNL     1      -7.950  11.545  68.130  1.00  0.00    -0.121 OA 
HETATM   26  C   UNL     1      -9.515  13.897  67.230  1.00  0.00    -0.239 C  
HETATM   27  H   UNL     1      -8.520  11.936  68.783  1.00  0.00     0.000 HD 
HETATM   28  C   UNL     1     -10.362   9.490  66.946  1.00  0.00    -0.307 C  
ENDROOT
BRANCH  15  29
HETATM   29  O   UNL     1      -7.952   9.245  66.618  1.00  0.00    -0.106 OA 
BRANCH  29  30
HETATM   30  C   UNL     1      -6.866   8.589  67.156  1.00  0.00    -0.067 C  
HETATM   31  O   UNL     1      -5.878   8.300  66.494  1.00  0.00    -0.042 OA 
BRANCH  30  32
HETATM   32  C   UNL     1      -7.088   8.202  68.699  1.00  0.00    -0.072 C  
HETATM   33  O   UNL     1      -6.150   8.778  69.615  1.00  0.00    -0.032 OA 
HETATM   34  H   UNL     1      -6.281   8.549  70.528  1.00  0.00     0.000 HD 
BRANCH  32  35
HETATM   35  C   UNL     1      -7.133   6.639  68.886  1.00  0.00    -0.085 C  
BRANCH  35  36
HETATM   36  N   UNL     1      -8.183   6.298  69.882  1.00  0.00    -0.119 N  
HETATM   37  C   UNL     1      -7.810   6.187  71.167  1.00  0.00    -0.111 C  
HETATM   38  O   UNL     1      -6.710   6.129  71.578  1.00  0.00    -0.053 OA 
HETATM   39  H   UNL     1      -9.152   6.154  69.599  1.00  0.00     0.000 HD 
BRANCH  37  40
HETATM   40  O   UNL     1      -8.955   6.229  71.972  1.00  0.00    -0.142 OA 
HETATM   41  C   UNL     1     -10.197   5.855  71.354  1.00  0.00    -0.211 C  
HETATM   42  C   UNL     1     -10.137   4.403  70.846  1.00  0.00    -0.199 C  
HETATM   43  C   UNL     1     -10.593   6.846  70.248  1.00  0.00    -0.246 C  
HETATM   44  C   UNL     1     -11.249   5.927  72.473  1.00  0.00    -0.341 C  
ENDBRANCH  37  40
ENDBRANCH  35  36
BRANCH  35  45
HETATM   45  C   UNL     1      -7.231   5.679  67.688  1.00  0.00    -0.076 A  
HETATM   46  C   UNL     1      -8.396   5.383  66.967  1.00  0.00    -0.107 A  
HETATM   47  C   UNL     1      -7.205   3.789  65.543  1.00  0.00    -0.071 A  
HETATM   48  C   UNL     1      -6.057   4.984  67.298  1.00  0.00    -0.031 A  
HETATM   49  C   UNL     1      -8.379   4.452  65.902  1.00  0.00    -0.113 A  
HETATM   50  C   UNL     1      -6.040   4.055  66.247  1.00  0.00    -0.031 A  
ENDBRANCH  35  45
ENDBRANCH  32  35
ENDBRANCH  30  32
ENDBRANCH  29  30
ENDBRANCH  15  29
BRANCH  22  51
HETATM   51  O   UNL     1      -7.666  15.277  66.964  1.00  0.00    -0.208 OA 
BRANCH  51  52
HETATM   52  C   UNL     1      -6.701  16.318  66.755  1.00  0.00    -0.031 C  
HETATM   53  O   UNL     1      -5.505  16.044  66.838  1.00  0.00    -0.321 OA 
BRANCH  52  54
HETATM   54  C   UNL     1      -6.994  17.974  66.587  1.00  0.00    -0.245 A  
HETATM   55  C   UNL     1      -6.562  20.460  66.428  1.00  0.00    -0.272 A  
HETATM   56  C   UNL     1      -8.827  19.758  66.463  1.00  0.00    -0.420 A  
HETATM   57  C   UNL     1      -8.360  18.401  66.538  1.00  0.00    -0.290 A  
HETATM   58  C   UNL     1      -6.124  19.089  66.511  1.00  0.00    -0.182 A  
HETATM   59  C   UNL     1      -7.917  20.819  66.402  1.00  0.00     0.132 A  
ENDBRANCH  52  54
ENDBRANCH  51  52
ENDBRANCH  22  51
BRANCH  18  60
HETATM   60  O   UNL     1      -7.263  14.184  68.902  1.00  0.00    -0.112 OA 
BRANCH  60  61
HETATM   61  C   UNL     1      -6.390  14.544  69.961  1.00  0.00    -0.165 C  
HETATM   62  C   UNL     1      -6.287  15.996  70.327  1.00  0.00     0.095 C  
HETATM   63  O   UNL     1      -5.599  13.853  70.612  1.00  0.00    -0.129 OA 
ENDBRANCH  60  61
ENDBRANCH  18  60
TORSDOF 12
ENDMDL
MODEL       39
REMARK 921   NORMALIZED FREE ENERGY PREDICTED BY IDOCK:   -2.18 KCAL/MOL
REMARK 922        TOTAL FREE ENERGY PREDICTED BY IDOCK:   -6.37 KCAL/MOL
REMARK 923 INTER-LIGAND FREE ENERGY PREDICTED BY IDOCK:   -7.18 KCAL/MOL
REMARK 924 INTRA-LIGAND FREE ENERGY PREDICTED BY IDOCK:    0.81 KCAL/MOL
REMARK 927      BINDING AFFINITY PREDICTED BY RF-SCORE:    0.00 PKD
ROOT
HETATM    1  C   UNL     1      -7.467  14.696  69.754  1.00  0.00     0.032 C  
HETATM    2  C   UNL     1      -8.146  16.068  69.721  1.00  0.00     0.315 C  
HETATM    3  C   UNL     1      -9.667  15.778  69.620  1.00  0.00    -0.248 C  
HETATM    4  O   UNL     1     -10.071  15.062  70.797  1.00  0.00    -0.345 OA 
HETATM    5  C   UNL     1      -9.930  15.048  68.286  1.00  0.00    -0.225 C  
HETATM    6  H   UNL     1     -11.002  14.885  70.735  1.00  0.00     0.000 HD 
HETATM    7  C   UNL     1     -11.474  14.519  68.294  1.00  0.00    -0.311 C  
HETATM    8  C   UNL     1     -10.121  16.170  67.207  1.00  0.00    -0.265 C  
HETATM    9  C   UNL     1     -12.164  13.839  67.055  1.00  0.00    -0.340 C  
HETATM   10  O   UNL     1     -12.229  14.785  69.244  1.00  0.00    -0.277 OA 
HETATM   11  O   UNL     1     -13.367  13.158  67.445  1.00  0.00     1.886 OA 
HETATM   12  C   UNL     1     -11.368  12.802  66.347  1.00  0.00    -0.369 C  
HETATM   13  C   UNL     1     -11.189  12.639  65.014  1.00  0.00    -0.331 C  
HETATM   14  H   UNL     1     -13.784  12.747  66.696  1.00  0.00     0.000 HD 
HETATM   15  C   UNL     1     -10.242  11.363  64.360  1.00  0.00    -0.308 C  
HETATM   16  C   UNL     1     -11.618  13.744  64.050  1.00  0.00    -0.307 C  
HETATM   17  C   UNL     1      -9.061  12.201  64.722  1.00  0.00     0.589 C  
HETATM   18  C   UNL     1      -7.238  13.571  68.666  1.00  0.00    -0.107 C  
HETATM   19  C   UNL     1      -6.498  13.052  70.072  1.00  0.00     0.092 C  
HETATM   20  C   UNL     1      -8.909  12.340  66.326  1.00  0.00    -0.007 C  
HETATM   21  O   UNL     1      -6.187  14.487  70.352  1.00  0.00    -0.165 OA 
HETATM   22  C   UNL     1      -8.290  14.102  66.559  1.00  0.00     0.422 C  
HETATM   23  C   UNL     1     -10.659  11.843  68.734  1.00  0.00    -0.234 C  
HETATM   24  C   UNL     1     -10.521  11.879  67.138  1.00  0.00    -0.249 C  
HETATM   25  O   UNL     1      -8.021  11.337  66.852  1.00  0.00    -0.142 OA 
HETATM   26  C   UNL     1      -8.663  14.004  67.977  1.00  0.00    -0.180 C  
HETATM   27  H   UNL     1      -7.932  11.420  67.795  1.00  0.00     0.000 HD 
HETATM   28  C   UNL     1     -11.290  10.483  67.019  1.00  0.00     0.102 C  
ENDROOT
BRANCH  15  29
HETATM   29  O   UNL     1      -9.788  10.124  65.125  1.00  0.00    -0.290 OA 
BRANCH  29  30
HETATM   30  C   UNL     1      -8.855   9.235  64.638  1.00  0.00    -0.178 C  
HETATM   31  O   UNL     1      -8.872   8.830  63.482  1.00  0.00    -0.047 OA 
BRANCH  30  32
HETATM   32  C   UNL     1      -7.817   8.758  65.766  1.00  0.00    -0.099 C  
HETATM   33  O   UNL     1      -6.469   8.568  65.318  1.00  0.00    -0.058 OA 
HETATM   34  H   UNL     1      -5.855   8.286  65.986  1.00  0.00     0.000 HD 
BRANCH  32  35
HETATM   35  C   UNL     1      -8.331   7.458  66.491  1.00  0.00    -0.124 C  
BRANCH  35  36
HETATM   36  N   UNL     1      -9.427   7.824  67.427  1.00  0.00    -0.139 N  
HETATM   37  C   UNL     1      -9.422   7.258  68.645  1.00  0.00    -0.137 C  
HETATM   38  O   UNL     1      -8.765   6.348  68.994  1.00  0.00    -0.123 OA 
HETATM   39  H   UNL     1     -10.156   8.482  67.154  1.00  0.00     0.000 HD 
BRANCH  37  40
HETATM   40  O   UNL     1     -10.283   7.980  69.479  1.00  0.00    -0.199 OA 
HETATM   41  C   UNL     1      -9.674   8.830  70.464  1.00  0.00    -0.190 C  
HETATM   42  C   UNL     1      -8.802   9.906  69.789  1.00  0.00    -0.229 C  
HETATM   43  C   UNL     1      -8.893   8.013  71.504  1.00  0.00    -0.178 C  
HETATM   44  C   UNL     1     -10.840   9.537  71.173  1.00  0.00    -0.425 C  
ENDBRANCH  37  40
ENDBRANCH  35  36
BRANCH  35  45
HETATM   45  C   UNL     1      -8.725   6.192  65.709  1.00  0.00    -0.151 A  
HETATM   46  C   UNL     1      -8.224   5.813  64.457  1.00  0.00    -0.122 A  
HETATM   47  C   UNL     1      -9.664   3.837  64.391  1.00  0.00    -0.180 A  
HETATM   48  C   UNL     1      -9.721   5.351  66.269  1.00  0.00    -0.181 A  
HETATM   49  C   UNL     1      -8.686   4.643  63.810  1.00  0.00    -0.140 A  
HETATM   50  C   UNL     1     -10.186   4.195  65.625  1.00  0.00    -0.157 A  
ENDBRANCH  35  45
ENDBRANCH  32  35
ENDBRANCH  30  32
ENDBRANCH  29  30
ENDBRANCH  15  29
BRANCH  22  51
HETATM   51  O   UNL     1      -6.859  15.079  66.984  1.00  0.00    -0.213 OA 
BRANCH  51  52
HETATM   52  C   UNL     1      -6.319  16.396  67.167  1.00  0.00    -0.180 C  
HETATM   53  O   UNL     1      -5.160  16.513  67.560  1.00  0.00    -0.115 OA 
BRANCH  52  54
HETATM   54  C   UNL     1      -7.149  17.866  67.093  1.00  0.00    -0.206 A  
HETATM   55  C   UNL     1      -8.100  20.014  66.157  1.00  0.00    -0.307 A  
HETATM   56  C   UNL     1      -8.361  19.642  68.484  1.00  0.00    -0.329 A  
HETATM   57  C   UNL     1      -7.682  18.386  68.316  1.00  0.00    -0.308 A  
HETATM   58  C   UNL     1      -7.416  18.753  66.020  1.00  0.00    -0.271 A  
HETATM   59  C   UNL     1      -8.584  20.481  67.387  1.00  0.00    -0.361 A  
ENDBRANCH  52  54
ENDBRANCH  51  52
ENDBRANCH  22  51
BRANCH  18  60
HETATM   60  O   UNL     1      -5.997  13.122  67.719  1.00  0.00    -0.126 OA 
BRANCH  60  61
HETATM   61  C   UNL     1      -5.542  11.870  67.231  1.00  0.00    -0.125 C  
HETATM   62  C   UNL     1      -5.127  10.832  68.233  1.00  0.00    -0.033 C  
HETATM   63  O   UNL     1      -5.338  11.492  66.073  1.00  0.00    -0.288 OA 
ENDBRANCH  60  61
ENDBRANCH  18  60
TORSDOF 12
ENDMDL
MODEL       40
REMARK 921   NORMALIZED FREE ENERGY PREDICTED BY IDOCK:   -1.35 KCAL/MOL
REMARK 922        TOTAL FREE ENERGY PREDICTED BY IDOCK:   -4.96 KCAL/MOL
REMARK 923 INTER-LIGAND FREE ENERGY PREDICTED BY IDOCK:   -4.28 KCAL/MOL
REMARK 924 INTRA-LIGAND FREE ENERGY PREDICTED BY IDOCK:   -0.68 KCAL/MOL
REMARK 927      BINDING AFFINITY PREDICTED BY RF-SCORE:    0.00 PKD
ROOT
HETATM    1  C   UNL     1     -11.978  14.675  67.747  1.00  0.00    -0.268 C  
HETATM    2  C   UNL     1     -12.224  15.557  68.975  1.00  0.00    -0.147 C  
HETATM    3  C   UNL     1     -10.954  16.438  69.117  1.00  0.00    -0.324 C  
HETATM    4  O   UNL     1     -10.839  17.257  67.943  1.00  0.00    -0.369 OA 
HETATM    5  C   UNL     1      -9.752  15.510  69.390  1.00  0.00    -0.283 C  
HETATM    6  H   UNL     1     -10.062  17.796  68.029  1.00  0.00     0.000 HD 
HETATM    7  C   UNL     1      -8.390  16.402  69.284  1.00  0.00    -0.101 C  
HETATM    8  C   UNL     1      -9.715  15.292  70.942  1.00  0.00     1.296 C  
HETATM    9  C   UNL     1      -6.959  15.844  69.626  1.00  0.00    -0.147 C  
HETATM   10  O   UNL     1      -8.450  17.626  69.082  1.00  0.00    -0.078 OA 
HETATM   11  O   UNL     1      -5.934  16.705  69.108  1.00  0.00    -0.145 OA 
HETATM   12  C   UNL     1      -6.628  14.504  69.074  1.00  0.00    -0.100 C  
HETATM   13  C   UNL     1      -6.041  13.455  69.700  1.00  0.00    -0.123 C  
HETATM   14  H   UNL     1      -5.069  16.368  69.314  1.00  0.00     0.000 HD 
HETATM   15  C   UNL     1      -5.712  11.971  68.899  1.00  0.00    -0.051 C  
HETATM   16  C   UNL     1      -5.882  13.470  71.219  1.00  0.00    -0.055 C  
HETATM   17  C   UNL     1      -7.160  11.668  69.100  1.00  0.00    -0.090 C  
HETATM   18  C   UNL     1     -11.023  13.445  67.467  1.00  0.00    -0.267 C  
HETATM   19  C   UNL     1     -11.923  13.696  66.080  1.00  0.00    -0.413 C  
HETATM   20  C   UNL     1      -8.093  12.661  68.229  1.00  0.00    -0.161 C  
HETATM   21  O   UNL     1     -13.043  14.125  66.971  1.00  0.00     0.651 OA 
HETATM   22  C   UNL     1      -9.583  12.954  69.341  1.00  0.00     1.091 C  
HETATM   23  C   UNL     1      -7.729  15.277  66.770  1.00  0.00     0.024 C  
HETATM   24  C   UNL     1      -7.096  14.148  67.715  1.00  0.00    -0.185 C  
HETATM   25  O   UNL     1      -8.423  12.078  66.955  1.00  0.00    -0.172 OA 
HETATM   26  C   UNL     1      -9.934  14.107  68.501  1.00  0.00    -0.235 C  
HETATM   27  H   UNL     1      -8.972  12.661  66.444  1.00  0.00     0.000 HD 
HETATM   28  C   UNL     1      -5.752  14.150  66.852  1.00  0.00     1.703 C  
ENDROOT
BRANCH  15  29
HETATM   29  O   UNL     1      -5.723  11.765  67.388  1.00  0.00    -0.074 OA 
BRANCH  29  30
HETATM   30  C   UNL     1      -5.575  10.532  66.792  1.00  0.00    -0.051 C  
HETATM   31  O   UNL     1      -5.130  10.398  65.659  1.00  0.00    -0.053 OA 
BRANCH  30  32
HETATM   32  C   UNL     1      -6.112   9.336  67.720  1.00  0.00    -0.053 C  
HETATM   33  O   UNL     1      -5.328   9.069  68.889  1.00  0.00    -0.036 OA 
HETATM   34  H   UNL     1      -5.645   8.361  69.438  1.00  0.00     0.000 HD 
BRANCH  32  35
HETATM   35  C   UNL     1      -6.297   8.015  66.883  1.00  0.00    -0.055 C  
BRANCH  35  36
HETATM   36  N   UNL     1      -7.362   7.187  67.510  1.00  0.00    -0.090 N  
HETATM   37  C   UNL     1      -6.980   6.225  68.366  1.00  0.00    -0.080 C  
HETATM   38  O   UNL     1      -5.889   5.821  68.529  1.00  0.00    -0.017 OA 
HETATM   39  H   UNL     1      -8.347   7.345  67.298  1.00  0.00     0.000 HD 
BRANCH  37  40
HETATM   40  O   UNL     1      -8.095   5.818  69.108  1.00  0.00    -0.099 OA 
HETATM   41  C   UNL     1      -8.773   4.631  68.664  1.00  0.00    -0.097 C  
HETATM   42  C   UNL     1      -7.825   3.418  68.697  1.00  0.00    -0.056 C  
HETATM   43  C   UNL     1      -9.413   4.835  67.282  1.00  0.00    -0.163 C  
HETATM   44  C   UNL     1      -9.893   4.390  69.690  1.00  0.00    -0.272 C  
ENDBRANCH  37  40
ENDBRANCH  35  36
BRANCH  35  45
HETATM   45  C   UNL     1      -6.498   8.040  65.358  1.00  0.00    -0.048 A  
HETATM   46  C   UNL     1      -5.532   7.710  64.398  1.00  0.00    -0.033 A  
HETATM   47  C   UNL     1      -7.059   8.241  62.562  1.00  0.00    -0.091 A  
HETATM   48  C   UNL     1      -7.752   8.483  64.861  1.00  0.00    -0.105 A  
HETATM   49  C   UNL     1      -5.814   7.804  63.015  1.00  0.00    -0.055 A  
HETATM   50  C   UNL     1      -8.030   8.584  63.490  1.00  0.00    -0.161 A  
ENDBRANCH  35  45
ENDBRANCH  32  35
ENDBRANCH  30  32
ENDBRANCH  29  30
ENDBRANCH  15  29
BRANCH  22  51
HETATM   51  O   UNL     1     -11.311  12.566  69.562  1.00  0.00    -0.241 OA 
BRANCH  51  52
HETATM   52  C   UNL     1     -12.296  11.902  70.367  1.00  0.00    -0.251 C  
HETATM   53  O   UNL     1     -13.254  12.548  70.785  1.00  0.00     0.142 OA 
BRANCH  52  54
HETATM   54  C   UNL     1     -12.220  10.336  71.000  1.00  0.00    -0.487 A  
HETATM   55  C   UNL     1     -12.922   8.215  72.184  1.00  0.00    -0.287 A  
HETATM   56  C   UNL     1     -10.668   8.352  71.460  1.00  0.00    -0.313 A  
HETATM   57  C   UNL     1     -10.963   9.655  70.928  1.00  0.00    -0.412 A  
HETATM   58  C   UNL     1     -13.186   9.526  71.647  1.00  0.00    -0.486 A  
HETATM   59  C   UNL     1     -11.663   7.605  72.100  1.00  0.00    -0.355 A  
ENDBRANCH  52  54
ENDBRANCH  51  52
ENDBRANCH  22  51
BRANCH  18  60
HETATM   60  O   UNL     1     -11.208  11.833  67.426  1.00  0.00    -0.258 OA 
BRANCH  60  61
HETATM   61  C   UNL     1     -10.809  10.825  66.510  1.00  0.00    -0.130 C  
HETATM   62  C   UNL     1     -10.446   9.476  67.060  1.00  0.00    -0.302 C  
HETATM   63  O   UNL     1     -10.617  10.885  65.291  1.00  0.00    -0.261 OA 
ENDBRANCH  60  61
ENDBRANCH  18  60
TORSDOF 12
ENDMDL
MODEL       41
REMARK 921   NORMALIZED FREE ENERGY PREDICTED BY IDOCK:   -1.13 KCAL/MOL
REMARK 922        TOTAL FREE ENERGY PREDICTED BY IDOCK:   -4.58 KCAL/MOL
REMARK 923 INTER-LIGAND FREE ENERGY PREDICTED BY IDOCK:   -3.00 KCAL/MOL
REMARK 924 INTRA-LIGAND FREE ENERGY PREDICTED BY IDOCK:   -1.58 KCAL/MOL
REMARK 927      BINDING AFFINITY PREDICTED BY RF-SCORE:    0.00 PKD
ROOT
HETATM    1  C   UNL     1     -10.814  11.571  65.070  1.00  0.00    -0.274 C  
HETATM    2  C   UNL     1      -9.813  12.145  64.063  1.00  0.00    -0.217 C  
HETATM    3  C   UNL     1      -9.181  10.917  63.356  1.00  0.00    -0.265 C  
HETATM    4  O   UNL     1     -10.220  10.211  62.662  1.00  0.00    -0.557 OA 
HETATM    5  C   UNL     1      -8.421  10.090  64.415  1.00  0.00    -0.178 C  
HETATM    6  H   UNL     1      -9.833   9.459  62.229  1.00  0.00     0.000 HD 
HETATM    7  C   UNL     1      -7.976   8.678  63.731  1.00  0.00    -0.160 C  
HETATM    8  C   UNL     1      -6.985  10.715  64.506  1.00  0.00     0.211 C  
HETATM    9  C   UNL     1      -7.067   7.614  64.450  1.00  0.00    -0.066 C  
HETATM   10  O   UNL     1      -8.209   8.455  62.531  1.00  0.00    -0.171 OA 
HETATM   11  O   UNL     1      -7.137   6.343  63.784  1.00  0.00    -0.044 OA 
HETATM   12  C   UNL     1      -7.408   7.307  65.864  1.00  0.00    -0.075 C  
HETATM   13  C   UNL     1      -6.576   7.196  66.928  1.00  0.00    -0.055 C  
HETATM   14  H   UNL     1      -6.587   5.701  64.218  1.00  0.00     0.000 HD 
HETATM   15  C   UNL     1      -7.142   6.815  68.505  1.00  0.00    -0.083 C  
HETATM   16  C   UNL     1      -5.125   7.661  66.809  1.00  0.00    -0.023 C  
HETATM   17  C   UNL     1      -7.547   8.249  68.587  1.00  0.00    -0.099 C  
HETATM   18  C   UNL     1     -10.654  10.793  66.438  1.00  0.00    -0.203 C  
HETATM   19  C   UNL     1     -12.292  11.008  66.182  1.00  0.00     3.294 C  
HETATM   20  C   UNL     1      -8.743   8.583  67.552  1.00  0.00    -0.135 C  
HETATM   21  O   UNL     1     -11.947  12.307  65.531  1.00  0.00    -0.449 OA 
HETATM   22  C   UNL     1      -8.345  10.327  66.965  1.00  0.00    -0.126 C  
HETATM   23  C   UNL     1      -9.975   7.251  65.141  1.00  0.00     2.436 C  
HETATM   24  C   UNL     1      -8.832   7.240  66.264  1.00  0.00    -0.179 C  
HETATM   25  O   UNL     1     -10.028   8.462  68.188  1.00  0.00    -0.177 OA 
HETATM   26  C   UNL     1      -9.278  10.122  65.849  1.00  0.00    -0.203 C  
HETATM   27  H   UNL     1     -10.731   8.658  67.579  1.00  0.00     0.000 HD 
HETATM   28  C   UNL     1      -9.069   5.681  66.519  1.00  0.00    -0.140 C  
ENDROOT
BRANCH  15  29
HETATM   29  O   UNL     1      -8.521   6.251  68.832  1.00  0.00    -0.118 OA 
BRANCH  29  30
HETATM   30  C   UNL     1      -8.712   5.082  69.535  1.00  0.00    -0.091 C  
HETATM   31  O   UNL     1      -7.819   4.261  69.704  1.00  0.00    -0.056 OA 
BRANCH  30  32
HETATM   32  C   UNL     1     -10.230   4.907  70.030  1.00  0.00    -0.243 C  
HETATM   33  O   UNL     1     -11.232   5.244  69.064  1.00  0.00     0.365 OA 
HETATM   34  H   UNL     1     -12.130   5.140  69.356  1.00  0.00     0.000 HD 
BRANCH  32  35
HETATM   35  C   UNL     1     -10.481   5.702  71.366  1.00  0.00    -0.239 C  
BRANCH  35  36
HETATM   36  N   UNL     1      -9.177   5.962  72.030  1.00  0.00    -0.147 N  
HETATM   37  C   UNL     1      -9.189   6.223  73.347  1.00  0.00    -0.131 C  
HETATM   38  O   UNL     1     -10.130   6.471  74.007  1.00  0.00    -0.260 OA 
HETATM   39  H   UNL     1      -8.303   5.943  71.504  1.00  0.00     0.000 HD 
BRANCH  37  40
HETATM   40  O   UNL     1      -7.889   6.078  73.845  1.00  0.00    -0.098 OA 
HETATM   41  C   UNL     1      -7.017   7.214  73.729  1.00  0.00    -0.076 C  
HETATM   42  C   UNL     1      -7.590   8.420  74.498  1.00  0.00    -0.275 C  
HETATM   43  C   UNL     1      -6.721   7.545  72.259  1.00  0.00    -0.055 C  
HETATM   44  C   UNL     1      -5.704   6.795  74.410  1.00  0.00    -0.056 C  
ENDBRANCH  37  40
ENDBRANCH  35  36
BRANCH  35  45
HETATM   45  C   UNL     1     -11.340   6.978  71.403  1.00  0.00    -0.298 A  
HETATM   46  C   UNL     1     -10.857   8.293  71.386  1.00  0.00    -0.293 A  
HETATM   47  C   UNL     1     -13.117   9.211  71.570  1.00  0.00    -0.409 A  
HETATM   48  C   UNL     1     -12.747   6.826  71.516  1.00  0.00    -0.341 A  
HETATM   49  C   UNL     1     -11.739   9.396  71.463  1.00  0.00    -0.465 A  
HETATM   50  C   UNL     1     -13.622   7.920  71.600  1.00  0.00    -0.397 A  
ENDBRANCH  35  45
ENDBRANCH  32  35
ENDBRANCH  30  32
ENDBRANCH  29  30
ENDBRANCH  15  29
BRANCH  22  51
HETATM   51  O   UNL     1      -8.844  12.035  67.092  1.00  0.00    -0.174 OA 
BRANCH  51  52
HETATM   52  C   UNL     1      -8.553  13.330  67.636  1.00  0.00    -0.196 C  
HETATM   53  O   UNL     1      -9.051  14.322  67.108  1.00  0.00    -0.207 OA 
BRANCH  52  54
HETATM   54  C   UNL     1      -7.425  13.711  68.836  1.00  0.00    -0.033 A  
HETATM   55  C   UNL     1      -5.414  13.515  70.356  1.00  0.00    -0.136 A  
HETATM   56  C   UNL     1      -6.887  15.331  70.745  1.00  0.00     0.646 A  
HETATM   57  C   UNL     1      -7.680  14.870  69.638  1.00  0.00    -0.072 A  
HETATM   58  C   UNL     1      -6.232  13.072  69.255  1.00  0.00    -0.103 A  
HETATM   59  C   UNL     1      -5.724  14.649  71.119  1.00  0.00    -0.105 A  
ENDBRANCH  52  54
ENDBRANCH  51  52
ENDBRANCH  22  51
BRANCH  18  60
HETATM   60  O   UNL     1     -10.735  11.201  68.008  1.00  0.00    -0.187 OA 
BRANCH  60  61
HETATM   61  C   UNL     1     -11.809  11.492  68.889  1.00  0.00    -0.341 C  
HETATM   62  C   UNL     1     -11.733  12.755  69.698  1.00  0.00    -0.372 C  
HETATM   63  O   UNL     1     -12.803  10.821  69.185  1.00  0.00    -0.103 OA 
ENDBRANCH  60  61
ENDBRANCH  18  60
TORSDOF 12
ENDMDL
MODEL       42
REMARK 921   NORMALIZED FREE ENERGY PREDICTED BY IDOCK:   -0.40 KCAL/MOL
REMARK 922        TOTAL FREE ENERGY PREDICTED BY IDOCK:   -3.34 KCAL/MOL
REMARK 923 INTER-LIGAND FREE ENERGY PREDICTED BY IDOCK:   -4.97 KCAL/MOL
REMARK 924 INTRA-LIGAND FREE ENERGY PREDICTED BY IDOCK:    1.62 KCAL/MOL
REMARK 927      BINDING AFFINITY PREDICTED BY RF-SCORE:    0.00 PKD
ROOT
HETATM    1  C   UNL     1      -9.653   4.695  67.827  1.00  0.00    -0.159 C  
HETATM    2  C   UNL     1      -8.813   4.340  69.057  1.00  0.00    -0.136 C  
HETATM    3  C   UNL     1      -9.277   5.313  70.174  1.00  0.00    -0.139 C  
HETATM    4  O   UNL     1     -10.664   5.063  70.443  1.00  0.00    -0.168 OA 
HETATM    5  C   UNL     1      -8.943   6.752  69.727  1.00  0.00    -0.144 C  
HETATM    6  H   UNL     1     -10.949   5.658  71.126  1.00  0.00     0.000 HD 
HETATM    7  C   UNL     1      -9.655   7.783  70.772  1.00  0.00    -0.165 C  
HETATM    8  C   UNL     1      -7.465   7.016  70.179  1.00  0.00    -0.086 C  
HETATM    9  C   UNL     1      -9.444   9.341  70.733  1.00  0.00    -0.271 C  
HETATM   10  O   UNL     1     -10.274   7.355  71.761  1.00  0.00    -0.190 OA 
HETATM   11  O   UNL     1     -10.447  10.017  71.507  1.00  0.00     0.071 OA 
HETATM   12  C   UNL     1      -9.522   9.980  69.393  1.00  0.00    -0.237 C  
HETATM   13  C   UNL     1      -8.695  10.906  68.849  1.00  0.00    -0.144 C  
HETATM   14  H   UNL     1     -10.319  10.959  71.483  1.00  0.00     0.000 HD 
HETATM   15  C   UNL     1      -8.945  11.557  67.279  1.00  0.00    -0.162 C  
HETATM   16  C   UNL     1      -7.358  11.216  69.520  1.00  0.00    -0.023 C  
HETATM   17  C   UNL     1      -8.346  10.286  66.776  1.00  0.00    -0.124 C  
HETATM   18  C   UNL     1      -9.658   5.925  66.833  1.00  0.00    -0.142 C  
HETATM   19  C   UNL     1     -10.816   4.848  66.289  1.00  0.00    -0.001 C  
HETATM   20  C   UNL     1      -9.301   9.021  67.093  1.00  0.00    -0.147 C  
HETATM   21  O   UNL     1      -9.929   3.754  66.788  1.00  0.00    -0.116 OA 
HETATM   22  C   UNL     1      -8.085   7.637  67.481  1.00  0.00    -0.120 C  
HETATM   23  C   UNL     1     -11.659   8.465  68.891  1.00  0.00     1.140 C  
HETATM   24  C   UNL     1     -10.523   9.490  68.417  1.00  0.00    -0.261 C  
HETATM   25  O   UNL     1     -10.170   8.736  65.982  1.00  0.00    -0.412 OA 
HETATM   26  C   UNL     1      -9.195   6.884  68.081  1.00  0.00    -0.126 C  
HETATM   27  H   UNL     1     -10.732   7.992  66.169  1.00  0.00     0.000 HD 
HETATM   28  C   UNL     1     -11.591  10.678  68.360  1.00  0.00    -0.269 C  
ENDROOT
BRANCH  15  29
HETATM   29  O   UNL     1     -10.236  11.444  66.475  1.00  0.00    -0.209 OA 
BRANCH  29  30
HETATM   30  C   UNL     1     -11.259  12.362  66.553  1.00  0.00    -0.319 C  
HETATM   31  O   UNL     1     -11.626  12.851  67.615  1.00  0.00    -0.312 OA 
BRANCH  30  32
HETATM   32  C   UNL     1     -11.935  12.649  65.125  1.00  0.00    -0.428 C  
HETATM   33  O   UNL     1     -12.801  11.616  64.639  1.00  0.00    -0.004 OA 
HETATM   34  H   UNL     1     -13.201  11.786  63.794  1.00  0.00     0.000 HD 
BRANCH  32  35
HETATM   35  C   UNL     1     -10.842  12.988  64.043  1.00  0.00    -0.377 C  
BRANCH  35  36
HETATM   36  N   UNL     1     -10.154  14.249  64.425  1.00  0.00    -0.401 N  
HETATM   37  C   UNL     1     -10.907  15.351  64.571  1.00  0.00    -0.116 C  
HETATM   38  O   UNL     1     -12.025  15.488  64.235  1.00  0.00    -0.465 OA 
HETATM   39  H   UNL     1      -9.145  14.276  64.572  1.00  0.00     0.000 HD 
BRANCH  37  40
HETATM   40  O   UNL     1     -10.166  16.312  65.268  1.00  0.00    -0.548 OA 
HETATM   41  C   UNL     1      -9.853  16.023  66.641  1.00  0.00    -0.260 C  
HETATM   42  C   UNL     1      -9.012  14.737  66.748  1.00  0.00    -0.292 C  
HETATM   43  C   UNL     1     -11.123  15.965  67.504  1.00  0.00    -0.235 C  
HETATM   44  C   UNL     1      -8.989  17.200  67.121  1.00  0.00    -0.238 C  
ENDBRANCH  37  40
ENDBRANCH  35  36
BRANCH  35  45
HETATM   45  C   UNL     1      -9.800  11.952  63.587  1.00  0.00    -0.339 A  
HETATM   46  C   UNL     1      -8.434  12.195  63.390  1.00  0.00     2.018 A  
HETATM   47  C   UNL     1      -8.052   9.895  62.647  1.00  0.00    -0.137 A  
HETATM   48  C   UNL     1     -10.256  10.642  63.285  1.00  0.00    -0.139 A  
HETATM   49  C   UNL     1      -7.570  11.173  62.931  1.00  0.00     0.386 A  
HETATM   50  C   UNL     1      -9.402   9.631  62.823  1.00  0.00    -0.052 A  
ENDBRANCH  35  45
ENDBRANCH  32  35
ENDBRANCH  30  32
ENDBRANCH  29  30
ENDBRANCH  15  29
BRANCH  22  51
HETATM   51  O   UNL     1      -7.377   6.126  66.849  1.00  0.00    -0.079 OA 
BRANCH  51  52
HETATM   52  C   UNL     1      -6.196   5.323  66.712  1.00  0.00    -0.035 C  
HETATM   53  O   UNL     1      -5.167   5.678  67.283  1.00  0.00    -0.004 OA 
BRANCH  52  54
HETATM   54  C   UNL     1      -5.964   4.005  65.680  1.00  0.00    -0.023 A  
HETATM   55  C   UNL     1      -5.262   2.670  63.650  1.00  0.00    -0.008 A  
HETATM   56  C   UNL     1      -6.514   1.531  65.311  1.00  0.00    -0.023 A  
HETATM   57  C   UNL     1      -6.538   2.752  66.069  1.00  0.00    -0.032 A  
HETATM   58  C   UNL     1      -5.309   3.882  64.429  1.00  0.00    -0.009 A  
HETATM   59  C   UNL     1      -5.861   1.475  64.075  1.00  0.00    -0.009 A  
ENDBRANCH  52  54
ENDBRANCH  51  52
ENDBRANCH  22  51
BRANCH  18  60
HETATM   60  O   UNL     1      -9.065   6.205  65.348  1.00  0.00    -0.024 OA 
BRANCH  60  61
HETATM   61  C   UNL     1      -9.062   5.462  64.139  1.00  0.00     0.322 C  
HETATM   62  C   UNL     1      -8.527   6.128  62.904  1.00  0.00     0.114 C  
HETATM   63  O   UNL     1      -9.520   4.342  63.889  1.00  0.00    -0.158 OA 
ENDBRANCH  60  61
ENDBRANCH  18  60
TORSDOF 12
ENDMDL
MODEL       43
REMARK 921   NORMALIZED FREE ENERGY PREDICTED BY IDOCK:   -0.08 KCAL/MOL
REMARK 922        TOTAL FREE ENERGY PREDICTED BY IDOCK:   -2.80 KCAL/MOL
REMARK 923 INTER-LIGAND FREE ENERGY PREDICTED BY IDOCK:   -1.80 KCAL/MOL
REMARK 924 INTRA-LIGAND FREE ENERGY PREDICTED BY IDOCK:   -1.01 KCAL/MOL
REMARK 927      BINDING AFFINITY PREDICTED BY RF-SCORE:    0.00 PKD
ROOT
HETATM    1  C   UNL     1      -9.497   6.961  68.440  1.00  0.00    -0.128 C  
HETATM    2  C   UNL     1      -9.584   6.714  69.949  1.00  0.00    -0.161 C  
HETATM    3  C   UNL     1     -10.758   7.597  70.449  1.00  0.00    -0.236 C  
HETATM    4  O   UNL     1     -11.964   7.149  69.811  1.00  0.00    -0.514 OA 
HETATM    5  C   UNL     1     -10.391   9.074  70.195  1.00  0.00    -0.237 C  
HETATM    6  H   UNL     1     -12.683   7.690  70.117  1.00  0.00     0.000 HD 
HETATM    7  C   UNL     1     -11.717   9.981  70.481  1.00  0.00    -0.318 C  
HETATM    8  C   UNL     1      -9.571   9.540  71.448  1.00  0.00     0.147 C  
HETATM    9  C   UNL     1     -11.714  11.554  70.457  1.00  0.00    -0.150 C  
HETATM   10  O   UNL     1     -12.765   9.457  70.896  1.00  0.00    -0.236 OA 
HETATM   11  O   UNL     1     -13.051  12.071  70.379  1.00  0.00     0.265 OA 
HETATM   12  C   UNL     1     -11.006  12.192  69.317  1.00  0.00    -0.168 C  
HETATM   13  C   UNL     1     -10.138  13.233  69.337  1.00  0.00     0.590 C  
HETATM   14  H   UNL     1     -13.049  13.021  70.365  1.00  0.00     0.000 HD 
HETATM   15  C   UNL     1      -9.418  13.861  67.909  1.00  0.00    -0.212 C  
HETATM   16  C   UNL     1      -9.570  13.721  70.669  1.00  0.00     4.273 C  
HETATM   17  C   UNL     1      -8.491  12.694  67.994  1.00  0.00    -0.177 C  
HETATM   18  C   UNL     1      -9.020   8.190  67.566  1.00  0.00    -0.137 C  
HETATM   19  C   UNL     1      -9.439   6.967  66.506  1.00  0.00    -0.153 C  
HETATM   20  C   UNL     1      -9.275  11.302  67.744  1.00  0.00    -0.156 C  
HETATM   21  O   UNL     1      -8.944   6.004  67.536  1.00  0.00    -0.114 OA 
HETATM   22  C   UNL     1      -8.422  10.100  68.916  1.00  0.00    -0.139 C  
HETATM   23  C   UNL     1     -12.152  10.395  67.713  1.00  0.00     1.711 C  
HETATM   24  C   UNL     1     -11.103  11.577  67.972  1.00  0.00    -0.313 C  
HETATM   25  O   UNL     1      -9.210  10.911  66.361  1.00  0.00    -0.166 OA 
HETATM   26  C   UNL     1      -9.563   9.190  68.749  1.00  0.00    -0.161 C  
HETATM   27  H   UNL     1      -9.671  10.093  66.215  1.00  0.00     0.000 HD 
HETATM   28  C   UNL     1     -12.026  12.602  67.166  1.00  0.00    -0.326 C  
ENDROOT
BRANCH  15  29
HETATM   29  O   UNL     1      -9.890  13.575  66.487  1.00  0.00    -0.276 OA 
BRANCH  29  30
HETATM   30  C   UNL     1      -9.956  14.538  65.504  1.00  0.00    -0.342 C  
HETATM   31  O   UNL     1     -10.154  14.266  64.327  1.00  0.00    -0.001 OA 
BRANCH  30  32
HETATM   32  C   UNL     1      -9.680  16.014  66.075  1.00  0.00    -0.344 C  
HETATM   33  O   UNL     1     -10.292  17.080  65.339  1.00  0.00    -0.617 OA 
HETATM   34  H   UNL     1     -10.128  17.953  65.676  1.00  0.00     0.000 HD 
BRANCH  32  35
HETATM   35  C   UNL     1      -8.134  16.280  66.222  1.00  0.00    -0.232 C  
BRANCH  35  36
HETATM   36  N   UNL     1      -7.822  17.637  65.701  1.00  0.00     0.133 N  
HETATM   37  C   UNL     1      -8.263  18.692  66.405  1.00  0.00    -0.277 C  
HETATM   38  O   UNL     1      -9.044  18.675  67.283  1.00  0.00    -0.272 OA 
HETATM   39  H   UNL     1      -7.291  17.762  64.839  1.00  0.00     0.000 HD 
BRANCH  37  40
HETATM   40  O   UNL     1      -7.579  19.835  65.975  1.00  0.00    -0.307 OA 
HETATM   41  C   UNL     1      -6.330  20.127  66.622  1.00  0.00    -0.189 C  
HETATM   42  C   UNL     1      -5.326  18.978  66.410  1.00  0.00    -0.171 C  
HETATM   43  C   UNL     1      -6.532  20.461  68.107  1.00  0.00    -0.339 C  
HETATM   44  C   UNL     1      -5.782  21.375  65.911  1.00  0.00    -0.210 C  
ENDBRANCH  37  40
ENDBRANCH  35  36
BRANCH  35  45
HETATM   45  C   UNL     1      -7.394  16.057  67.553  1.00  0.00    -0.190 A  
HETATM   46  C   UNL     1      -7.851  16.443  68.820  1.00  0.00    -0.220 A  
HETATM   47  C   UNL     1      -5.810  15.624  69.892  1.00  0.00    -0.151 A  
HETATM   48  C   UNL     1      -6.110  15.456  67.503  1.00  0.00    -0.095 A  
HETATM   49  C   UNL     1      -7.068  16.221  69.977  1.00  0.00     0.475 A  
HETATM   50  C   UNL     1      -5.329  15.243  68.649  1.00  0.00    -0.092 A  
ENDBRANCH  35  45
ENDBRANCH  32  35
ENDBRANCH  30  32
ENDBRANCH  29  30
ENDBRANCH  15  29
BRANCH  22  51
HETATM   51  O   UNL     1      -7.303   8.713  68.988  1.00  0.00    -0.074 OA 
BRANCH  51  52
HETATM   52  C   UNL     1      -6.348   7.984  69.773  1.00  0.00    -0.036 C  
HETATM   53  O   UNL     1      -5.373   7.489  69.213  1.00  0.00    -0.015 OA 
BRANCH  52  54
HETATM   54  C   UNL     1      -6.482   7.535  71.397  1.00  0.00    -0.035 A  
HETATM   55  C   UNL     1      -6.824   7.726  73.895  1.00  0.00    -0.112 A  
HETATM   56  C   UNL     1      -6.175   5.606  73.053  1.00  0.00    -0.059 A  
HETATM   57  C   UNL     1      -6.185   6.175  71.733  1.00  0.00    -0.041 A  
HETATM   58  C   UNL     1      -6.818   8.271  72.561  1.00  0.00    -0.102 A  
HETATM   59  C   UNL     1      -6.504   6.388  74.166  1.00  0.00    -0.070 A  
ENDBRANCH  52  54
ENDBRANCH  51  52
ENDBRANCH  22  51
BRANCH  18  60
HETATM   60  O   UNL     1      -7.662   8.570  66.761  1.00  0.00    -0.089 OA 
BRANCH  60  61
HETATM   61  C   UNL     1      -7.283   8.502  65.395  1.00  0.00    -0.083 C  
HETATM   62  C   UNL     1      -6.165   7.573  65.020  1.00  0.00    -0.038 C  
HETATM   63  O   UNL     1      -7.670   9.162  64.426  1.00  0.00    -0.110 OA 
ENDBRANCH  60  61
ENDBRANCH  18  60
TORSDOF 12
ENDMDL
MODEL       44
REMARK 921   NORMALIZED FREE ENERGY PREDICTED BY IDOCK:    1.03 KCAL/MOL
REMARK 922        TOTAL FREE ENERGY PREDICTED BY IDOCK:   -0.91 KCAL/MOL
REMARK 923 INTER-LIGAND FREE ENERGY PREDICTED BY IDOCK:   -2.13 KCAL/MOL
REMARK 924 INTRA-LIGAND FREE ENERGY PREDICTED BY IDOCK:    1.22 KCAL/MOL
REMARK 927      BINDING AFFINITY PREDICTED BY RF-SCORE:    0.00 PKD
ROOT
HETATM    1  C   UNL     1      -8.395   7.068  71.059  1.00  0.00    -0.125 C  
HETATM    2  C   UNL     1      -6.935   6.958  71.507  1.00  0.00    -0.066 C  
HETATM    3  C   UNL     1      -6.434   8.419  71.657  1.00  0.00    -0.061 C  
HETATM    4  O   UNL     1      -7.211   9.061  72.680  1.00  0.00    -0.331 OA 
HETATM    5  C   UNL     1      -6.492   9.093  70.270  1.00  0.00    -0.050 C  
HETATM    6  H   UNL     1      -6.905   9.955  72.772  1.00  0.00     0.000 HD 
HETATM    7  C   UNL     1      -6.213  10.688  70.470  1.00  0.00    -0.096 C  
HETATM    8  C   UNL     1      -5.134   8.751  69.564  1.00  0.00    -0.031 C  
HETATM    9  C   UNL     1      -6.061  11.699  69.274  1.00  0.00    -0.078 C  
HETATM   10  O   UNL     1      -5.943  11.147  71.592  1.00  0.00    -0.087 OA 
HETATM   11  O   UNL     1      -6.187  13.055  69.727  1.00  0.00    -0.124 OA 
HETATM   12  C   UNL     1      -7.064  11.580  68.183  1.00  0.00    -0.076 C  
HETATM   13  C   UNL     1      -6.860  11.586  66.843  1.00  0.00    -0.138 C  
HETATM   14  H   UNL     1      -6.095  13.666  69.004  1.00  0.00     0.000 HD 
HETATM   15  C   UNL     1      -8.148  11.456  65.713  1.00  0.00     0.205 C  
HETATM   16  C   UNL     1      -5.441  11.451  66.292  1.00  0.00    -0.093 C  
HETATM   17  C   UNL     1      -8.120   9.995  66.016  1.00  0.00    -0.124 C  
HETATM   18  C   UNL     1      -9.086   7.504  69.705  1.00  0.00    -0.140 C  
HETATM   19  C   UNL     1     -10.305   7.049  70.755  1.00  0.00    -0.206 C  
HETATM   20  C   UNL     1      -8.584   9.701  67.537  1.00  0.00    -0.126 C  
HETATM   21  O   UNL     1      -9.353   6.038  71.307  1.00  0.00    -0.155 OA 
HETATM   22  C   UNL     1      -7.490   8.262  68.061  1.00  0.00    -0.097 C  
HETATM   23  C   UNL     1      -8.944  11.318  70.058  1.00  0.00     1.818 C  
HETATM   24  C   UNL     1      -8.472  11.274  68.528  1.00  0.00    -0.156 C  
HETATM   25  O   UNL     1      -9.993   9.415  67.603  1.00  0.00    -0.169 OA 
HETATM   26  C   UNL     1      -7.846   8.550  69.457  1.00  0.00    -0.097 C  
HETATM   27  H   UNL     1     -10.265   9.242  68.497  1.00  0.00     0.000 HD 
HETATM   28  C   UNL     1      -9.230  12.649  68.233  1.00  0.00    -0.184 C  
ENDROOT
BRANCH  15  29
HETATM   29  O   UNL     1      -9.626  11.649  66.038  1.00  0.00    -0.217 OA 
BRANCH  29  30
HETATM   30  C   UNL     1     -10.414  12.604  65.435  1.00  0.00    -0.283 C  
HETATM   31  O   UNL     1      -9.995  13.341  64.551  1.00  0.00    -0.260 OA 
BRANCH  30  32
HETATM   32  C   UNL     1     -11.888  12.671  66.070  1.00  0.00    -0.436 C  
HETATM   33  O   UNL     1     -12.958  12.362  65.169  1.00  0.00    -0.607 OA 
HETATM   34  H   UNL     1     -13.829  12.402  65.545  1.00  0.00     0.000 HD 
BRANCH  32  35
HETATM   35  C   UNL     1     -12.144  14.069  66.750  1.00  0.00    -0.447 C  
BRANCH  35  36
HETATM   36  N   UNL     1     -12.594  13.853  68.151  1.00  0.00    -0.198 N  
HETATM   37  C   UNL     1     -12.669  14.926  68.954  1.00  0.00     0.518 C  
HETATM   38  O   UNL     1     -12.227  15.994  68.743  1.00  0.00    -0.136 OA 
HETATM   39  H   UNL     1     -12.838  12.922  68.489  1.00  0.00     0.000 HD 
BRANCH  37  40
HETATM   40  O   UNL     1     -13.437  14.594  70.076  1.00  0.00     0.321 OA 
HETATM   41  C   UNL     1     -12.765  13.905  71.143  1.00  0.00    -0.367 C  
HETATM   42  C   UNL     1     -11.616  14.762  71.705  1.00  0.00    -0.244 C  
HETATM   43  C   UNL     1     -12.293  12.511  70.701  1.00  0.00    -0.369 C  
HETATM   44  C   UNL     1     -13.820  13.736  72.249  1.00  0.00    -0.679 C  
ENDBRANCH  37  40
ENDBRANCH  35  36
BRANCH  35  45
HETATM   45  C   UNL     1     -11.096  15.195  66.715  1.00  0.00    -0.307 A  
HETATM   46  C   UNL     1     -10.036  15.357  67.617  1.00  0.00    -0.236 A  
HETATM   47  C   UNL     1      -9.310  17.418  66.517  1.00  0.00    -0.288 A  
HETATM   48  C   UNL     1     -11.231  16.194  65.717  1.00  0.00     0.144 A  
HETATM   49  C   UNL     1      -9.150  16.455  67.513  1.00  0.00    -0.196 A  
HETATM   50  C   UNL     1     -10.358  17.288  65.618  1.00  0.00    -0.185 A  
ENDBRANCH  35  45
ENDBRANCH  32  35
ENDBRANCH  30  32
ENDBRANCH  29  30
ENDBRANCH  15  29
BRANCH  22  51
HETATM   51  O   UNL     1      -7.484   6.511  68.405  1.00  0.00    -0.085 OA 
BRANCH  51  52
HETATM   52  C   UNL     1      -6.856   5.244  68.160  1.00  0.00    -0.060 C  
HETATM   53  O   UNL     1      -6.599   4.923  67.002  1.00  0.00    -0.047 OA 
BRANCH  52  54
HETATM   54  C   UNL     1      -6.578   4.003  69.273  1.00  0.00    -0.040 A  
HETATM   55  C   UNL     1      -5.359   2.228  70.598  1.00  0.00    -0.004 A  
HETATM   56  C   UNL     1      -7.705   2.381  70.903  1.00  0.00    -0.035 A  
HETATM   57  C   UNL     1      -7.712   3.474  69.969  1.00  0.00    -0.047 A  
HETATM   58  C   UNL     1      -5.398   3.321  69.660  1.00  0.00    -0.012 A  
HETATM   59  C   UNL     1      -6.507   1.739  71.236  1.00  0.00    -0.019 A  
ENDBRANCH  52  54
ENDBRANCH  51  52
ENDBRANCH  22  51
BRANCH  18  60
HETATM   60  O   UNL     1      -9.735   6.719  68.440  1.00  0.00    -0.128 OA 
BRANCH  60  61
HETATM   61  C   UNL     1     -11.035   6.683  67.873  1.00  0.00    -0.257 C  
HETATM   62  C   UNL     1     -11.552   5.362  67.382  1.00  0.00     2.351 C  
HETATM   63  O   UNL     1     -11.823   7.601  67.624  1.00  0.00     1.510 OA 
ENDBRANCH  60  61
ENDBRANCH  18  60
TORSDOF 12
ENDMDL
MODEL       45
REMARK 921   NORMALIZED FREE ENERGY PREDICTED BY IDOCK:    1.43 KCAL/MOL
REMARK 922        TOTAL FREE ENERGY PREDICTED BY IDOCK:   -0.23 KCAL/MOL
REMARK 923 INTER-LIGAND FREE ENERGY PREDICTED BY IDOCK:   -1.49 KCAL/MOL
REMARK 924 INTRA-LIGAND FREE ENERGY PREDICTED BY IDOCK:    1.26 KCAL/MOL
REMARK 927      BINDING AFFINITY PREDICTED BY RF-SCORE:    0.00 PKD
ROOT
HETATM    1  C   UNL     1      -8.258   7.344  71.754  1.00  0.00    -0.103 C  
HETATM    2  C   UNL     1      -6.761   7.127  71.993  1.00  0.00    -0.056 C  
HETATM    3  C   UNL     1      -6.129   8.544  71.993  1.00  0.00    -0.066 C  
HETATM    4  O   UNL     1      -6.693   9.290  73.082  1.00  0.00    -0.228 OA 
HETATM    5  C   UNL     1      -6.336   9.165  70.596  1.00  0.00    -0.058 C  
HETATM    6  H   UNL     1      -6.307  10.158  73.083  1.00  0.00     0.000 HD 
HETATM    7  C   UNL     1      -5.906  10.736  70.671  1.00  0.00    -0.111 C  
HETATM    8  C   UNL     1      -5.129   8.680  69.721  1.00  0.00    -0.030 C  
HETATM    9  C   UNL     1      -5.851  11.682  69.414  1.00  0.00    -0.071 C  
HETATM   10  O   UNL     1      -5.438  11.215  71.717  1.00  0.00    -0.340 OA 
HETATM   11  O   UNL     1      -5.801  13.061  69.810  1.00  0.00    -0.104 OA 
HETATM   12  C   UNL     1      -7.010  11.607  68.486  1.00  0.00    -0.085 C  
HETATM   13  C   UNL     1      -7.006  11.542  67.133  1.00  0.00    -0.138 C  
HETATM   14  H   UNL     1      -5.768  13.632  69.050  1.00  0.00     0.000 HD 
HETATM   15  C   UNL     1      -8.452  11.479  66.207  1.00  0.00    -0.108 C  
HETATM   16  C   UNL     1      -5.699  11.263  66.391  1.00  0.00    -0.145 C  
HETATM   17  C   UNL     1      -8.496  10.034  66.578  1.00  0.00    -0.128 C  
HETATM   18  C   UNL     1      -9.104   7.784  70.492  1.00  0.00    -0.154 C  
HETATM   19  C   UNL     1     -10.187   7.478  71.728  1.00  0.00    -0.187 C  
HETATM   20  C   UNL     1      -8.753   9.841  68.163  1.00  0.00    -0.119 C  
HETATM   21  O   UNL     1      -9.248   6.411  72.190  1.00  0.00    -0.142 OA 
HETATM   22  C   UNL     1      -7.711   8.335  68.599  1.00  0.00    -0.114 C  
HETATM   23  C   UNL     1      -8.608  11.583  70.623  1.00  0.00     5.323 C  
HETATM   24  C   UNL     1      -8.372  11.437  69.045  1.00  0.00     0.036 C  
HETATM   25  O   UNL     1     -10.155   9.680  68.445  1.00  0.00    -0.163 OA 
HETATM   26  C   UNL     1      -7.835   8.709  70.014  1.00  0.00    -0.103 C  
HETATM   27  H   UNL     1     -10.305   9.568  69.377  1.00  0.00     0.000 HD 
HETATM   28  C   UNL     1      -9.053  12.860  68.791  1.00  0.00     0.171 C  
ENDROOT
BRANCH  15  29
HETATM   29  O   UNL     1      -9.846  11.811  66.730  1.00  0.00    -0.194 OA 
BRANCH  29  30
HETATM   30  C   UNL     1     -10.639  12.800  66.191  1.00  0.00    -0.266 C  
HETATM   31  O   UNL     1     -10.396  13.324  65.112  1.00  0.00    -0.308 OA 
BRANCH  30  32
HETATM   32  C   UNL     1     -11.848  13.212  67.165  1.00  0.00    -0.369 C  
HETATM   33  O   UNL     1     -13.157  12.869  66.695  1.00  0.00     0.747 OA 
HETATM   34  H   UNL     1     -13.872  13.113  67.271  1.00  0.00     0.000 HD 
BRANCH  32  35
HETATM   35  C   UNL     1     -11.788  14.745  67.519  1.00  0.00    -0.301 C  
BRANCH  35  36
HETATM   36  N   UNL     1     -11.940  14.912  68.989  1.00  0.00    -0.476 N  
HETATM   37  C   UNL     1     -12.126  13.806  69.726  1.00  0.00    -0.340 C  
HETATM   38  O   UNL     1     -12.387  12.731  69.327  1.00  0.00    -0.117 OA 
HETATM   39  H   UNL     1     -11.903  15.835  69.421  1.00  0.00     0.000 HD 
BRANCH  37  40
HETATM   40  O   UNL     1     -11.884  14.116  71.069  1.00  0.00    -0.301 OA 
HETATM   41  C   UNL     1     -13.034  14.300  71.911  1.00  0.00    -0.350 C  
HETATM   42  C   UNL     1     -13.884  13.017  71.961  1.00  0.00    -0.330 C  
HETATM   43  C   UNL     1     -13.852  15.527  71.482  1.00  0.00    -0.539 C  
HETATM   44  C   UNL     1     -12.473  14.556  73.320  1.00  0.00    -0.368 C  
ENDBRANCH  37  40
ENDBRANCH  35  36
BRANCH  35  45
HETATM   45  C   UNL     1     -10.652  15.653  67.014  1.00  0.00    -0.311 A  
HETATM   46  C   UNL     1     -10.680  16.430  65.848  1.00  0.00    -0.219 A  
HETATM   47  C   UNL     1      -8.388  17.203  66.214  1.00  0.00    -0.298 A  
HETATM   48  C   UNL     1      -9.443  15.676  67.756  1.00  0.00    -0.208 A  
HETATM   49  C   UNL     1      -9.561  17.201  65.458  1.00  0.00     0.360 A  
HETATM   50  C   UNL     1      -8.329  16.434  67.366  1.00  0.00    -0.183 A  
ENDBRANCH  35  45
ENDBRANCH  32  35
ENDBRANCH  30  32
ENDBRANCH  29  30
ENDBRANCH  15  29
BRANCH  22  51
HETATM   51  O   UNL     1      -7.794   6.606  69.029  1.00  0.00    -0.107 OA 
BRANCH  51  52
HETATM   52  C   UNL     1      -7.500   5.258  68.633  1.00  0.00    -0.071 C  
HETATM   53  O   UNL     1      -6.916   4.521  69.425  1.00  0.00    -0.048 OA 
BRANCH  52  54
HETATM   54  C   UNL     1      -7.687   4.573  67.100  1.00  0.00    -0.090 A  
HETATM   55  C   UNL     1      -8.808   3.645  65.032  1.00  0.00    -0.123 A  
HETATM   56  C   UNL     1      -6.446   3.475  65.147  1.00  0.00    -0.035 A  
HETATM   57  C   UNL     1      -6.503   4.137  66.422  1.00  0.00    -0.037 A  
HETATM   58  C   UNL     1      -8.835   4.300  66.315  1.00  0.00    -0.116 A  
HETATM   59  C   UNL     1      -7.617   3.222  64.425  1.00  0.00    -0.076 A  
ENDBRANCH  52  54
ENDBRANCH  51  52
ENDBRANCH  22  51
BRANCH  18  60
HETATM   60  O   UNL     1      -9.991   7.008  69.375  1.00  0.00    -0.159 OA 
BRANCH  60  61
HETATM   61  C   UNL     1     -11.383   6.935  69.109  1.00  0.00    -0.036 C  
HETATM   62  C   UNL     1     -12.326   6.963  70.278  1.00  0.00     0.018 C  
HETATM   63  O   UNL     1     -11.984   6.761  68.044  1.00  0.00     0.988 OA 
ENDBRANCH  60  61
ENDBRANCH  18  60
TORSDOF 12
ENDMDL
MODEL       46
REMARK 921   NORMALIZED FREE ENERGY PREDICTED BY IDOCK:    2.02 KCAL/MOL
REMARK 922        TOTAL FREE ENERGY PREDICTED BY IDOCK:    0.76 KCAL/MOL
REMARK 923 INTER-LIGAND FREE ENERGY PREDICTED BY IDOCK:   -4.43 KCAL/MOL
REMARK 924 INTRA-LIGAND FREE ENERGY PREDICTED BY IDOCK:    5.19 KCAL/MOL
REMARK 927      BINDING AFFINITY PREDICTED BY RF-SCORE:    0.00 PKD
ROOT
HETATM    1  C   UNL     1      -7.906  11.740  68.574  1.00  0.00    -0.144 C  
HETATM    2  C   UNL     1      -7.602  11.987  70.054  1.00  0.00     1.675 C  
HETATM    3  C   UNL     1      -6.854  10.719  70.544  1.00  0.00     0.347 C  
HETATM    4  O   UNL     1      -5.627  10.604  69.806  1.00  0.00    -0.038 OA 
HETATM    5  C   UNL     1      -7.812   9.515  70.415  1.00  0.00    -0.190 C  
HETATM    6  H   UNL     1      -5.169   9.828  70.105  1.00  0.00     0.000 HD 
HETATM    7  C   UNL     1      -6.953   8.154  70.684  1.00  0.00    -0.037 C  
HETATM    8  C   UNL     1      -8.644   9.478  71.744  1.00  0.00     1.067 C  
HETATM    9  C   UNL     1      -7.600   6.723  70.769  1.00  0.00    -0.092 C  
HETATM   10  O   UNL     1      -5.753   8.215  70.999  1.00  0.00    -0.033 OA 
HETATM   11  O   UNL     1      -6.602   5.698  70.648  1.00  0.00    -0.037 OA 
HETATM   12  C   UNL     1      -8.599   6.390  69.720  1.00  0.00    -0.138 C  
HETATM   13  C   UNL     1      -9.811   5.802  69.863  1.00  0.00    -0.234 C  
HETATM   14  H   UNL     1      -6.993   4.833  70.700  1.00  0.00     0.000 HD 
HETATM   15  C   UNL     1     -10.840   5.471  68.527  1.00  0.00    -0.002 C  
HETATM   16  C   UNL     1     -10.417   5.644  71.257  1.00  0.00    -0.299 C  
HETATM   17  C   UNL     1     -11.199   6.919  68.586  1.00  0.00    -0.082 C  
HETATM   18  C   UNL     1      -8.914  10.784  67.817  1.00  0.00    -0.137 C  
HETATM   19  C   UNL     1      -8.120  11.683  66.652  1.00  0.00    -0.121 C  
HETATM   20  C   UNL     1      -9.939   7.853  68.195  1.00  0.00    -0.180 C  
HETATM   21  O   UNL     1      -8.093  12.804  67.640  1.00  0.00    -0.150 OA 
HETATM   22  C   UNL     1     -10.126   9.344  69.329  1.00  0.00    -0.196 C  
HETATM   23  C   UNL     1      -6.955   7.491  67.930  1.00  0.00    -0.076 C  
HETATM   24  C   UNL     1      -8.370   6.858  68.333  1.00  0.00    -0.120 C  
HETATM   25  O   UNL     1      -9.952   8.183  66.794  1.00  0.00    -0.233 OA 
HETATM   26  C   UNL     1      -8.730   9.696  69.032  1.00  0.00    -0.142 C  
HETATM   27  H   UNL     1      -9.211   8.732  66.565  1.00  0.00     0.000 HD 
HETATM   28  C   UNL     1      -8.015   5.513  67.546  1.00  0.00    -0.101 C  
ENDROOT
BRANCH  15  29
HETATM   29  O   UNL     1     -10.411   5.482  67.063  1.00  0.00    -0.231 OA 
BRANCH  29  30
HETATM   30  C   UNL     1      -9.807   4.410  66.445  1.00  0.00    -0.230 C  
HETATM   31  O   UNL     1      -9.697   3.316  66.983  1.00  0.00    -0.117 OA 
BRANCH  30  32
HETATM   32  C   UNL     1      -9.222   4.789  64.998  1.00  0.00    -0.133 C  
HETATM   33  O   UNL     1     -10.144   4.654  63.910  1.00  0.00    -0.370 OA 
HETATM   34  H   UNL     1      -9.798   4.878  63.054  1.00  0.00     0.000 HD 
BRANCH  32  35
HETATM   35  C   UNL     1      -7.907   3.977  64.693  1.00  0.00    -0.085 C  
BRANCH  35  36
HETATM   36  N   UNL     1      -6.883   4.902  64.137  1.00  0.00    -0.047 N  
HETATM   37  C   UNL     1      -6.336   4.586  62.953  1.00  0.00    -0.025 C  
HETATM   38  O   UNL     1      -6.421   3.558  62.390  1.00  0.00    -0.020 OA 
HETATM   39  H   UNL     1      -6.606   5.745  64.639  1.00  0.00     0.000 HD 
BRANCH  37  40
HETATM   40  O   UNL     1      -5.695   5.720  62.439  1.00  0.00    -0.017 OA 
HETATM   41  C   UNL     1      -6.016   6.981  63.048  1.00  0.00    -0.040 C  
HETATM   42  C   UNL     1      -5.644   6.974  64.543  1.00  0.00    -0.032 C  
HETATM   43  C   UNL     1      -7.486   7.358  62.814  1.00  0.00    -0.105 C  
HETATM   44  C   UNL     1      -5.127   8.016  62.340  1.00  0.00    -0.059 C  
ENDBRANCH  37  40
ENDBRANCH  35  36
BRANCH  35  45
HETATM   45  C   UNL     1      -7.256   3.060  65.742  1.00  0.00    -0.070 A  
HETATM   46  C   UNL     1      -7.937   2.281  66.687  1.00  0.00    -0.076 A  
HETATM   47  C   UNL     1      -5.839   1.488  67.664  1.00  0.00    -0.019 A  
HETATM   48  C   UNL     1      -5.838   3.027  65.805  1.00  0.00    -0.019 A  
HETATM   49  C   UNL     1      -7.234   1.500  67.633  1.00  0.00    -0.042 A  
HETATM   50  C   UNL     1      -5.140   2.258  66.747  1.00  0.00    -0.005 A  
ENDBRANCH  35  45
ENDBRANCH  32  35
ENDBRANCH  30  32
ENDBRANCH  29  30
ENDBRANCH  15  29
BRANCH  22  51
HETATM   51  O   UNL     1     -10.571  11.071  69.371  1.00  0.00    -0.223 OA 
BRANCH  51  52
HETATM   52  C   UNL     1     -11.590  12.038  69.664  1.00  0.00    -0.301 C  
HETATM   53  O   UNL     1     -12.744  11.652  69.835  1.00  0.00     0.002 OA 
BRANCH  52  54
HETATM   54  C   UNL     1     -11.452  13.722  69.619  1.00  0.00    -0.300 A  
HETATM   55  C   UNL     1     -11.060  16.052  68.717  1.00  0.00    -0.338 A  
HETATM   56  C   UNL     1     -11.412  15.844  71.052  1.00  0.00    -0.461 A  
HETATM   57  C   UNL     1     -11.562  14.427  70.860  1.00  0.00    -0.203 A  
HETATM   58  C   UNL     1     -11.208  14.627  68.556  1.00  0.00    -0.288 A  
HETATM   59  C   UNL     1     -11.159  16.685  69.963  1.00  0.00    -0.105 A  
ENDBRANCH  52  54
ENDBRANCH  51  52
ENDBRANCH  22  51
BRANCH  18  60
HETATM   60  O   UNL     1     -10.370  10.967  67.122  1.00  0.00    -0.201 OA 
BRANCH  60  61
HETATM   61  C   UNL     1     -10.805  11.066  65.775  1.00  0.00    -0.097 C  
HETATM   62  C   UNL     1     -11.776  12.158  65.428  1.00  0.00    -0.379 C  
HETATM   63  O   UNL     1     -10.583  10.330  64.808  1.00  0.00    -0.099 OA 
ENDBRANCH  60  61
ENDBRANCH  18  60
TORSDOF 12
ENDMDL
MODEL       47
REMARK 921   NORMALIZED FREE ENERGY PREDICTED BY IDOCK:    2.13 KCAL/MOL
REMARK 922        TOTAL FREE ENERGY PREDICTED BY IDOCK:    0.96 KCAL/MOL
REMARK 923 INTER-LIGAND FREE ENERGY PREDICTED BY IDOCK:   -1.12 KCAL/MOL
REMARK 924 INTRA-LIGAND FREE ENERGY PREDICTED BY IDOCK:    2.08 KCAL/MOL
REMARK 927      BINDING AFFINITY PREDICTED BY RF-SCORE:    0.00 PKD
ROOT
HETATM    1  C   UNL     1      -9.903  15.305  69.503  1.00  0.00    -0.226 C  
HETATM    2  C   UNL     1     -10.546  16.450  68.714  1.00  0.00    -0.310 C  
HETATM    3  C   UNL     1     -11.700  15.801  67.904  1.00  0.00    -0.043 C  
HETATM    4  O   UNL     1     -12.650  15.253  68.831  1.00  0.00    -0.501 OA 
HETATM    5  C   UNL     1     -11.085  14.786  66.918  1.00  0.00    -0.339 C  
HETATM    6  H   UNL     1     -13.356  14.856  68.336  1.00  0.00     0.000 HD 
HETATM    7  C   UNL     1     -12.301  13.926  66.254  1.00  0.00    -0.449 C  
HETATM    8  C   UNL     1     -10.707  15.602  65.633  1.00  0.00    -0.376 C  
HETATM    9  C   UNL     1     -12.092  12.877  65.099  1.00  0.00    -0.445 C  
HETATM   10  O   UNL     1     -13.485  14.188  66.526  1.00  0.00     1.011 OA 
HETATM   11  O   UNL     1     -13.240  12.025  64.964  1.00  0.00     0.015 OA 
HETATM   12  C   UNL     1     -10.954  11.936  65.266  1.00  0.00    -0.354 C  
HETATM   13  C   UNL     1     -10.025  11.564  64.352  1.00  0.00    -0.311 C  
HETATM   14  H   UNL     1     -13.114  11.391  64.266  1.00  0.00     0.000 HD 
HETATM   15  C   UNL     1      -8.776  10.440  64.711  1.00  0.00    -0.186 C  
HETATM   16  C   UNL     1      -9.906  12.331  63.036  1.00  0.00     0.438 C  
HETATM   17  C   UNL     1      -8.093  11.583  65.386  1.00  0.00     0.595 C  
HETATM   18  C   UNL     1      -8.998  14.075  69.089  1.00  0.00     0.306 C  
HETATM   19  C   UNL     1      -9.168  14.025  70.752  1.00  0.00     4.369 C  
HETATM   20  C   UNL     1      -8.906  12.062  66.699  1.00  0.00    -0.191 C  
HETATM   21  O   UNL     1      -9.191  15.519  70.723  1.00  0.00     1.060 OA 
HETATM   22  C   UNL     1      -8.680  13.930  66.701  1.00  0.00    -0.013 C  
HETATM   23  C   UNL     1     -11.678  11.648  67.817  1.00  0.00    -0.315 C  
HETATM   24  C   UNL     1     -10.648  11.406  66.614  1.00  0.00    -0.302 C  
HETATM   25  O   UNL     1      -8.408  11.414  67.883  1.00  0.00    -0.127 OA 
HETATM   26  C   UNL     1      -9.793  14.025  67.655  1.00  0.00    -0.233 C  
HETATM   27  H   UNL     1      -8.887  11.695  68.654  1.00  0.00     0.000 HD 
HETATM   28  C   UNL     1     -11.092   9.874  66.516  1.00  0.00     0.331 C  
ENDROOT
BRANCH  15  29
HETATM   29  O   UNL     1      -8.748   9.512  65.921  1.00  0.00    -0.136 OA 
BRANCH  29  30
HETATM   30  C   UNL     1      -7.636   8.792  66.296  1.00  0.00    -0.091 C  
HETATM   31  O   UNL     1      -6.812   8.385  65.487  1.00  0.00    -0.067 OA 
BRANCH  30  32
HETATM   32  C   UNL     1      -7.598   8.502  67.875  1.00  0.00    -0.098 C  
HETATM   33  O   UNL     1      -6.320   8.120  68.398  1.00  0.00    -0.048 OA 
HETATM   34  H   UNL     1      -6.298   7.949  69.332  1.00  0.00     0.000 HD 
BRANCH  32  35
HETATM   35  C   UNL     1      -8.685   7.435  68.278  1.00  0.00    -0.122 C  
BRANCH  35  36
HETATM   36  N   UNL     1      -8.047   6.093  68.345  1.00  0.00    -0.107 N  
HETATM   37  C   UNL     1      -7.590   5.680  69.538  1.00  0.00    -0.072 C  
HETATM   38  O   UNL     1      -7.449   6.336  70.503  1.00  0.00    -0.086 OA 
HETATM   39  H   UNL     1      -7.962   5.508  67.515  1.00  0.00     0.000 HD 
BRANCH  37  40
HETATM   40  O   UNL     1      -7.370   4.299  69.480  1.00  0.00    -0.050 OA 
HETATM   41  C   UNL     1      -6.010   3.862  69.328  1.00  0.00    -0.023 C  
HETATM   42  C   UNL     1      -5.151   4.337  70.515  1.00  0.00     0.000 C  
HETATM   43  C   UNL     1      -5.429   4.298  67.974  1.00  0.00    -0.016 C  
HETATM   44  C   UNL     1      -6.066   2.326  69.365  1.00  0.00    -0.024 C  
ENDBRANCH  37  40
ENDBRANCH  35  36
BRANCH  35  45
HETATM   45  C   UNL     1      -9.603   7.630  69.497  1.00  0.00    -0.163 A  
HETATM   46  C   UNL     1     -10.814   6.963  69.726  1.00  0.00    -0.295 A  
HETATM   47  C   UNL     1     -11.202   8.211  71.794  1.00  0.00    -0.329 A  
HETATM   48  C   UNL     1      -9.231   8.605  70.458  1.00  0.00    -0.201 A  
HETATM   49  C   UNL     1     -11.600   7.248  70.867  1.00  0.00    -0.331 A  
HETATM   50  C   UNL     1     -10.013   8.894  71.586  1.00  0.00    -0.397 A  
ENDBRANCH  35  45
ENDBRANCH  32  35
ENDBRANCH  30  32
ENDBRANCH  29  30
ENDBRANCH  15  29
BRANCH  22  51
HETATM   51  O   UNL     1      -7.841  15.275  67.520  1.00  0.00    -0.144 OA 
BRANCH  51  52
HETATM   52  C   UNL     1      -7.782  16.692  67.743  1.00  0.00    -0.163 C  
HETATM   53  O   UNL     1      -6.980  17.131  68.564  1.00  0.00    -0.183 OA 
BRANCH  52  54
HETATM   54  C   UNL     1      -8.835  17.871  67.144  1.00  0.00    -0.250 A  
HETATM   55  C   UNL     1     -10.200  19.225  65.502  1.00  0.00     0.079 A  
HETATM   56  C   UNL     1     -10.162  19.975  67.751  1.00  0.00    -0.549 A  
HETATM   57  C   UNL     1      -9.316  18.856  68.065  1.00  0.00    -0.349 A  
HETATM   58  C   UNL     1      -9.345  18.117  65.845  1.00  0.00     0.141 A  
HETATM   59  C   UNL     1     -10.624  20.171  66.445  1.00  0.00    -0.360 A  
ENDBRANCH  52  54
ENDBRANCH  51  52
ENDBRANCH  22  51
BRANCH  18  60
HETATM   60  O   UNL     1      -7.408  13.752  69.133  1.00  0.00    -0.082 OA 
BRANCH  60  61
HETATM   61  C   UNL     1      -6.404  13.908  70.124  1.00  0.00    -0.083 C  
HETATM   62  C   UNL     1      -5.966  12.687  70.881  1.00  0.00     0.218 C  
HETATM   63  O   UNL     1      -5.859  14.929  70.554  1.00  0.00    -0.142 OA 
ENDBRANCH  60  61
ENDBRANCH  18  60
TORSDOF 12
ENDMDL
MODEL       48
REMARK 921   NORMALIZED FREE ENERGY PREDICTED BY IDOCK:    3.05 KCAL/MOL
REMARK 922        TOTAL FREE ENERGY PREDICTED BY IDOCK:    2.52 KCAL/MOL
REMARK 923 INTER-LIGAND FREE ENERGY PREDICTED BY IDOCK:   -1.50 KCAL/MOL
REMARK 924 INTRA-LIGAND FREE ENERGY PREDICTED BY IDOCK:    4.02 KCAL/MOL
REMARK 927      BINDING AFFINITY PREDICTED BY RF-SCORE:    0.00 PKD
ROOT
HETATM    1  C   UNL     1     -11.017  11.500  65.048  1.00  0.00    -0.241 C  
HETATM    2  C   UNL     1     -10.102  12.079  63.965  1.00  0.00    -0.361 C  
HETATM    3  C   UNL     1      -9.494  10.853  63.234  1.00  0.00    -0.324 C  
HETATM    4  O   UNL     1     -10.564  10.114  62.624  1.00  0.00    -0.037 OA 
HETATM    5  C   UNL     1      -8.644  10.060  64.248  1.00  0.00    -0.197 C  
HETATM    6  H   UNL     1     -10.192   9.363  62.177  1.00  0.00     0.000 HD 
HETATM    7  C   UNL     1      -8.217   8.646  63.555  1.00  0.00    -0.150 C  
HETATM    8  C   UNL     1      -7.220  10.717  64.229  1.00  0.00     0.235 C  
HETATM    9  C   UNL     1      -7.237   7.613  64.224  1.00  0.00    -0.079 C  
HETATM   10  O   UNL     1      -8.529   8.398  62.378  1.00  0.00    -0.196 OA 
HETATM   11  O   UNL     1      -7.324   6.331  63.584  1.00  0.00    -0.060 OA 
HETATM   12  C   UNL     1      -7.470   7.323  65.663  1.00  0.00    -0.085 C  
HETATM   13  C   UNL     1      -6.564   7.247  66.667  1.00  0.00    -0.056 C  
HETATM   14  H   UNL     1      -6.732   5.707  63.988  1.00  0.00     0.000 HD 
HETATM   15  C   UNL     1      -7.009   6.880  68.286  1.00  0.00    -0.080 C  
HETATM   16  C   UNL     1      -5.136   7.741  66.439  1.00  0.00    -0.024 C  
HETATM   17  C   UNL     1      -7.438   8.307  68.375  1.00  0.00    -0.096 C  
HETATM   18  C   UNL     1     -10.745  10.749  66.413  1.00  0.00    -0.163 C  
HETATM   19  C   UNL     1     -12.401  10.925  66.270  1.00  0.00     3.652 C  
HETATM   20  C   UNL     1      -8.712   8.598  67.422  1.00  0.00    -0.134 C  
HETATM   21  O   UNL     1     -12.132  12.220  65.576  1.00  0.00    -0.523 OA 
HETATM   22  C   UNL     1      -8.395  10.340  66.783  1.00  0.00    -0.124 C  
HETATM   23  C   UNL     1     -10.080   7.201  65.125  1.00  0.00     2.818 C  
HETATM   24  C   UNL     1      -8.861   7.233  66.164  1.00  0.00    -0.181 C  
HETATM   25  O   UNL     1      -9.946   8.461  68.149  1.00  0.00    -0.177 OA 
HETATM   26  C   UNL     1      -9.398  10.097  65.738  1.00  0.00    -0.239 C  
HETATM   27  H   UNL     1     -10.694   8.632  67.588  1.00  0.00     0.000 HD 
HETATM   28  C   UNL     1      -9.045   5.673  66.458  1.00  0.00    -0.140 C  
ENDROOT
BRANCH  15  29
HETATM   29  O   UNL     1      -8.348   6.292  68.718  1.00  0.00    -0.118 OA 
BRANCH  29  30
HETATM   30  C   UNL     1      -8.464   5.123  69.437  1.00  0.00    -0.089 C  
HETATM   31  O   UNL     1      -7.648   4.214  69.351  1.00  0.00    -0.054 OA 
BRANCH  30  32
HETATM   32  C   UNL     1      -9.804   5.079  70.321  1.00  0.00    -0.234 C  
HETATM   33  O   UNL     1     -11.025   5.248  69.591  1.00  0.00    -0.125 OA 
HETATM   34  H   UNL     1     -11.818   5.222  70.114  1.00  0.00     0.000 HD 
BRANCH  32  35
HETATM   35  C   UNL     1      -9.734   6.118  71.502  1.00  0.00    -0.162 C  
BRANCH  35  36
HETATM   36  N   UNL     1      -8.330   6.583  71.658  1.00  0.00    -0.120 N  
HETATM   37  C   UNL     1      -8.116   7.906  71.728  1.00  0.00    -0.109 C  
HETATM   38  O   UNL     1      -8.886   8.758  71.478  1.00  0.00    -0.202 OA 
HETATM   39  H   UNL     1      -7.558   5.919  71.710  1.00  0.00     0.000 HD 
BRANCH  37  40
HETATM   40  O   UNL     1      -6.827   8.126  72.229  1.00  0.00    -0.071 OA 
HETATM   41  C   UNL     1      -6.635   7.926  73.639  1.00  0.00    -0.095 C  
HETATM   42  C   UNL     1      -6.956   6.472  74.032  1.00  0.00    -0.081 C  
HETATM   43  C   UNL     1      -7.436   8.945  74.464  1.00  0.00     0.060 C  
HETATM   44  C   UNL     1      -5.136   8.167  73.887  1.00  0.00    -0.049 C  
ENDBRANCH  37  40
ENDBRANCH  35  36
BRANCH  35  45
HETATM   45  C   UNL     1     -10.686   7.324  71.582  1.00  0.00    -0.239 A  
HETATM   46  C   UNL     1     -10.993   8.052  72.739  1.00  0.00    -0.449 A  
HETATM   47  C   UNL     1     -12.558   9.483  71.521  1.00  0.00    -0.462 A  
HETATM   48  C   UNL     1     -11.361   7.715  70.396  1.00  0.00    -0.235 A  
HETATM   49  C   UNL     1     -11.915   9.124  72.705  1.00  0.00     0.207 A  
HETATM   50  C   UNL     1     -12.282   8.773  70.363  1.00  0.00     0.309 A  
ENDBRANCH  35  45
ENDBRANCH  32  35
ENDBRANCH  30  32
ENDBRANCH  29  30
ENDBRANCH  15  29
BRANCH  22  51
HETATM   51  O   UNL     1      -8.921  12.039  66.919  1.00  0.00    -0.187 OA 
BRANCH  51  52
HETATM   52  C   UNL     1      -8.589  13.417  66.697  1.00  0.00     0.071 C  
HETATM   53  O   UNL     1      -7.519  13.846  67.123  1.00  0.00    -0.095 OA 
BRANCH  52  54
HETATM   54  C   UNL     1      -9.589  14.627  66.068  1.00  0.00    -0.322 A  
HETATM   55  C   UNL     1     -11.236  15.797  64.548  1.00  0.00    -0.334 A  
HETATM   56  C   UNL     1     -10.243  17.095  66.265  1.00  0.00    -0.340 A  
HETATM   57  C   UNL     1      -9.529  15.919  66.682  1.00  0.00    -0.263 A  
HETATM   58  C   UNL     1     -10.501  14.636  64.985  1.00  0.00    -0.447 A  
HETATM   59  C   UNL     1     -11.122  17.044  65.178  1.00  0.00     0.087 A  
ENDBRANCH  52  54
ENDBRANCH  51  52
ENDBRANCH  22  51
BRANCH  18  60
HETATM   60  O   UNL     1     -10.724  11.180  67.978  1.00  0.00    -0.187 OA 
BRANCH  60  61
HETATM   61  C   UNL     1     -11.352  12.218  68.715  1.00  0.00    -0.289 C  
HETATM   62  C   UNL     1     -10.503  13.368  69.176  1.00  0.00     0.034 C  
HETATM   63  O   UNL     1     -12.509  12.309  69.138  1.00  0.00     0.048 OA 
ENDBRANCH  60  61
ENDBRANCH  18  60
TORSDOF 12
ENDMDL
MODEL       49
REMARK 921   NORMALIZED FREE ENERGY PREDICTED BY IDOCK:    3.17 KCAL/MOL
REMARK 922        TOTAL FREE ENERGY PREDICTED BY IDOCK:    2.73 KCAL/MOL
REMARK 923 INTER-LIGAND FREE ENERGY PREDICTED BY IDOCK:    2.89 KCAL/MOL
REMARK 924 INTRA-LIGAND FREE ENERGY PREDICTED BY IDOCK:   -0.16 KCAL/MOL
REMARK 927      BINDING AFFINITY PREDICTED BY RF-SCORE:    0.00 PKD
ROOT
HETATM    1  C   UNL     1     -11.556   8.857  70.568  1.00  0.00    -0.160 C  
HETATM    2  C   UNL     1     -10.980   7.531  71.075  1.00  0.00    -0.266 C  
HETATM    3  C   UNL     1      -9.594   7.882  71.679  1.00  0.00    -0.163 C  
HETATM    4  O   UNL     1      -9.795   8.781  72.780  1.00  0.00    -0.140 OA 
HETATM    5  C   UNL     1      -8.699   8.425  70.545  1.00  0.00    -0.152 C  
HETATM    6  H   UNL     1      -8.947   8.996  73.150  1.00  0.00     0.000 HD 
HETATM    7  C   UNL     1      -7.341   9.029  71.218  1.00  0.00    -0.069 C  
HETATM    8  C   UNL     1      -8.036   7.171  69.876  1.00  0.00    -0.125 C  
HETATM    9  C   UNL     1      -6.119   9.559  70.380  1.00  0.00    -0.059 C  
HETATM   10  O   UNL     1      -7.149   8.943  72.442  1.00  0.00    -0.318 OA 
HETATM   11  O   UNL     1      -5.240  10.350  71.194  1.00  0.00    -0.077 OA 
HETATM   12  C   UNL     1      -6.446  10.440  69.228  1.00  0.00    -0.052 C  
HETATM   13  C   UNL     1      -5.952  10.399  67.967  1.00  0.00    -0.044 C  
HETATM   14  H   UNL     1      -4.502  10.670  70.687  1.00  0.00     0.000 HD 
HETATM   15  C   UNL     1      -6.430  11.516  66.752  1.00  0.00    -0.128 C  
HETATM   16  C   UNL     1      -5.136   9.190  67.510  1.00  0.00    -0.037 C  
HETATM   17  C   UNL     1      -7.659  10.679  66.621  1.00  0.00    -0.129 C  
HETATM   18  C   UNL     1     -11.200   9.799  69.349  1.00  0.00    -0.114 C  
HETATM   19  C   UNL     1     -12.516  10.476  70.126  1.00  0.00    -0.226 C  
HETATM   20  C   UNL     1      -8.574  10.765  67.952  1.00  0.00    -0.125 C  
HETATM   21  O   UNL     1     -12.959   9.083  70.434  1.00  0.00     0.437 OA 
HETATM   22  C   UNL     1      -9.271   9.025  68.120  1.00  0.00    -0.136 C  
HETATM   23  C   UNL     1      -8.200  11.695  70.798  1.00  0.00     5.893 C  
HETATM   24  C   UNL     1      -7.547  11.422  69.360  1.00  0.00     0.104 C  
HETATM   25  O   UNL     1      -9.580  11.785  67.824  1.00  0.00    -0.175 OA 
HETATM   26  C   UNL     1      -9.631   9.346  69.508  1.00  0.00    -0.188 C  
HETATM   27  H   UNL     1     -10.117  11.836  68.607  1.00  0.00     0.000 HD 
HETATM   28  C   UNL     1      -6.783  12.824  69.418  1.00  0.00    -0.018 C  
ENDROOT
BRANCH  15  29
HETATM   29  O   UNL     1      -7.168  12.827  67.004  1.00  0.00    -0.057 OA 
BRANCH  29  30
HETATM   30  C   UNL     1      -6.532  14.045  67.107  1.00  0.00     0.660 C  
HETATM   31  O   UNL     1      -5.333  14.144  67.337  1.00  0.00    -0.335 OA 
BRANCH  30  32
HETATM   32  C   UNL     1      -7.548  15.280  66.961  1.00  0.00    -0.126 C  
HETATM   33  O   UNL     1      -7.089  16.356  66.133  1.00  0.00    -0.004 OA 
HETATM   34  H   UNL     1      -7.690  17.086  66.046  1.00  0.00     0.000 HD 
BRANCH  32  35
HETATM   35  C   UNL     1      -7.971  15.831  68.374  1.00  0.00    -0.141 C  
BRANCH  35  36
HETATM   36  N   UNL     1      -7.430  17.206  68.542  1.00  0.00    -0.227 N  
HETATM   37  C   UNL     1      -6.283  17.345  69.227  1.00  0.00    -0.238 C  
HETATM   38  O   UNL     1      -5.755  16.528  69.888  1.00  0.00    -0.180 OA 
HETATM   39  H   UNL     1      -7.912  18.014  68.151  1.00  0.00     0.000 HD 
BRANCH  37  40
HETATM   40  O   UNL     1      -5.759  18.617  68.970  1.00  0.00    -0.203 OA 
HETATM   41  C   UNL     1      -6.031  19.641  69.941  1.00  0.00    -0.289 C  
HETATM   42  C   UNL     1      -5.449  19.257  71.314  1.00  0.00    -0.274 C  
HETATM   43  C   UNL     1      -7.531  19.963  70.011  1.00  0.00     0.374 C  
HETATM   44  C   UNL     1      -5.286  20.889  69.439  1.00  0.00    -0.400 C  
ENDBRANCH  37  40
ENDBRANCH  35  36
BRANCH  35  45
HETATM   45  C   UNL     1      -9.430  15.791  68.859  1.00  0.00    -0.229 A  
HETATM   46  C   UNL     1      -9.873  16.092  70.154  1.00  0.00     0.297 A  
HETATM   47  C   UNL     1     -12.189  15.564  69.571  1.00  0.00    -0.264 A  
HETATM   48  C   UNL     1     -10.423  15.363  67.939  1.00  0.00    -0.256 A  
HETATM   49  C   UNL     1     -11.239  15.985  70.502  1.00  0.00    -0.397 A  
HETATM   50  C   UNL     1     -11.777  15.248  68.286  1.00  0.00    -0.320 A  
ENDBRANCH  35  45
ENDBRANCH  32  35
ENDBRANCH  30  32
ENDBRANCH  29  30
ENDBRANCH  15  29
BRANCH  22  51
HETATM   51  O   UNL     1     -10.753   8.047  67.944  1.00  0.00    -0.174 OA 
BRANCH  51  52
HETATM   52  C   UNL     1     -11.312   6.731  67.821  1.00  0.00     0.061 C  
HETATM   53  O   UNL     1     -12.270   6.425  68.527  1.00  0.00     1.584 OA 
BRANCH  52  54
HETATM   54  C   UNL     1     -10.692   5.429  66.939  1.00  0.00    -0.264 A  
HETATM   55  C   UNL     1     -10.324   3.811  65.031  1.00  0.00    -0.043 A  
HETATM   56  C   UNL     1      -9.218   3.339  67.075  1.00  0.00    -0.206 A  
HETATM   57  C   UNL     1      -9.803   4.535  67.618  1.00  0.00    -0.181 A  
HETATM   58  C   UNL     1     -10.902   5.000  65.605  1.00  0.00    -0.003 A  
HETATM   59  C   UNL     1      -9.474   2.961  65.752  1.00  0.00     0.011 A  
ENDBRANCH  52  54
ENDBRANCH  51  52
ENDBRANCH  22  51
BRANCH  18  60
HETATM   60  O   UNL     1     -11.814  10.041  67.865  1.00  0.00     0.152 OA 
BRANCH  60  61
HETATM   61  C   UNL     1     -12.006  11.195  67.062  1.00  0.00     0.896 C  
HETATM   62  C   UNL     1     -11.588  11.127  65.621  1.00  0.00     0.475 C  
HETATM   63  O   UNL     1     -12.396  12.326  67.369  1.00  0.00    -0.344 OA 
ENDBRANCH  60  61
ENDBRANCH  18  60
TORSDOF 12
ENDMDL
MODEL       50
REMARK 921   NORMALIZED FREE ENERGY PREDICTED BY IDOCK:    3.35 KCAL/MOL
REMARK 922        TOTAL FREE ENERGY PREDICTED BY IDOCK:    3.03 KCAL/MOL
REMARK 923 INTER-LIGAND FREE ENERGY PREDICTED BY IDOCK:   -2.21 KCAL/MOL
REMARK 924 INTRA-LIGAND FREE ENERGY PREDICTED BY IDOCK:    5.24 KCAL/MOL
REMARK 927      BINDING AFFINITY PREDICTED BY RF-SCORE:    0.00 PKD
ROOT
HETATM    1  C   UNL     1      -9.147  14.944  67.268  1.00  0.00    -0.201 C  
HETATM    2  C   UNL     1      -8.547  15.276  68.638  1.00  0.00    -0.173 C  
HETATM    3  C   UNL     1      -7.276  14.395  68.761  1.00  0.00    -0.128 C  
HETATM    4  O   UNL     1      -6.360  14.775  67.723  1.00  0.00    -0.149 OA 
HETATM    5  C   UNL     1      -7.712  12.915  68.741  1.00  0.00     0.007 C  
HETATM    6  H   UNL     1      -5.581  14.236  67.798  1.00  0.00     0.000 HD 
HETATM    7  C   UNL     1      -6.371  11.994  68.613  1.00  0.00    -0.059 C  
HETATM    8  C   UNL     1      -8.054  12.542  70.225  1.00  0.00     3.985 C  
HETATM    9  C   UNL     1      -6.387  10.423  68.690  1.00  0.00    -0.051 C  
HETATM   10  O   UNL     1      -5.243  12.515  68.611  1.00  0.00    -0.057 OA 
HETATM   11  O   UNL     1      -5.159   9.870  68.192  1.00  0.00    -0.036 OA 
HETATM   12  C   UNL     1      -7.445   9.737  67.903  1.00  0.00    -0.086 C  
HETATM   13  C   UNL     1      -8.257   8.721  68.283  1.00  0.00    -0.118 C  
HETATM   14  H   UNL     1      -5.169   8.921  68.240  1.00  0.00     0.000 HD 
HETATM   15  C   UNL     1      -9.424   8.029  67.230  1.00  0.00    -0.155 C  
HETATM   16  C   UNL     1      -8.336   8.325  69.757  1.00  0.00    -0.123 C  
HETATM   17  C   UNL     1     -10.262   9.221  67.553  1.00  0.00    -0.300 C  
HETATM   18  C   UNL     1      -9.898  13.678  66.689  1.00  0.00    -0.284 C  
HETATM   19  C   UNL     1      -9.863  14.828  65.475  1.00  0.00    -0.301 C  
HETATM   20  C   UNL     1      -9.607  10.577  66.964  1.00  0.00    -0.173 C  
HETATM   21  O   UNL     1      -9.973  15.860  66.549  1.00  0.00    -0.248 OA 
HETATM   22  C   UNL     1     -10.003  11.865  68.278  1.00  0.00    -0.202 C  
HETATM   23  C   UNL     1      -6.911  11.410  65.894  1.00  0.00     0.344 C  
HETATM   24  C   UNL     1      -7.812  10.271  66.571  1.00  0.00    -0.116 C  
HETATM   25  O   UNL     1     -10.141  10.888  65.665  1.00  0.00    -0.239 OA 
HETATM   26  C   UNL     1      -8.985  12.736  67.675  1.00  0.00    -0.191 C  
HETATM   27  H   UNL     1      -9.755  11.685  65.319  1.00  0.00     0.000 HD 
HETATM   28  C   UNL     1      -7.224   9.179  65.563  1.00  0.00    -0.082 C  
ENDROOT
BRANCH  15  29
HETATM   29  O   UNL     1      -9.467   8.220  65.717  1.00  0.00    -0.118 OA 
BRANCH  29  30
HETATM   30  C   UNL     1      -8.604   7.587  64.850  1.00  0.00     0.137 C  
HETATM   31  O   UNL     1      -7.622   8.143  64.376  1.00  0.00    -0.100 OA 
BRANCH  30  32
HETATM   32  C   UNL     1      -9.078   6.093  64.498  1.00  0.00     0.709 C  
HETATM   33  O   UNL     1     -10.389   5.742  64.956  1.00  0.00     0.553 OA 
HETATM   34  H   UNL     1     -10.670   4.859  64.747  1.00  0.00     0.000 HD 
BRANCH  32  35
HETATM   35  C   UNL     1      -8.029   5.035  65.007  1.00  0.00    -0.101 C  
BRANCH  35  36
HETATM   36  N   UNL     1      -8.371   4.642  66.400  1.00  0.00    -0.107 N  
HETATM   37  C   UNL     1      -7.454   4.867  67.355  1.00  0.00    -0.082 C  
HETATM   38  O   UNL     1      -6.326   5.155  67.192  1.00  0.00    -0.034 OA 
HETATM   39  H   UNL     1      -9.271   4.217  66.622  1.00  0.00     0.000 HD 
BRANCH  37  40
HETATM   40  O   UNL     1      -8.077   4.779  68.605  1.00  0.00    -0.083 OA 
HETATM   41  C   UNL     1      -8.444   3.465  69.057  1.00  0.00    -0.066 C  
HETATM   42  C   UNL     1      -7.200   2.566  69.185  1.00  0.00    -0.044 C  
HETATM   43  C   UNL     1      -9.524   2.844  68.159  1.00  0.00    -0.220 C  
HETATM   44  C   UNL     1      -9.034   3.666  70.463  1.00  0.00    -0.161 C  
ENDBRANCH  37  40
ENDBRANCH  35  36
BRANCH  35  45
HETATM   45  C   UNL     1      -7.678   3.779  64.191  1.00  0.00    -0.083 A  
HETATM   46  C   UNL     1      -6.394   3.245  64.019  1.00  0.00    -0.023 A  
HETATM   47  C   UNL     1      -7.239   1.478  62.553  1.00  0.00    -0.031 A  
HETATM   48  C   UNL     1      -8.730   3.121  63.503  1.00  0.00    -0.089 A  
HETATM   49  C   UNL     1      -6.181   2.103  63.213  1.00  0.00    -0.010 A  
HETATM   50  C   UNL     1      -8.518   1.993  62.697  1.00  0.00    -0.073 A  
ENDBRANCH  35  45
ENDBRANCH  32  35
ENDBRANCH  30  32
ENDBRANCH  29  30
ENDBRANCH  15  29
BRANCH  22  51
HETATM   51  O   UNL     1     -11.026  13.280  68.642  1.00  0.00    -0.248 OA 
BRANCH  51  52
HETATM   52  C   UNL     1     -12.181  13.778  69.333  1.00  0.00    -0.278 C  
HETATM   53  O   UNL     1     -13.258  13.809  68.742  1.00  0.00     1.756 OA 
BRANCH  52  54
HETATM   54  C   UNL     1     -12.229  14.531  70.845  1.00  0.00    -0.409 A  
HETATM   55  C   UNL     1     -11.857  16.261  72.652  1.00  0.00    -0.596 A  
HETATM   56  C   UNL     1     -12.855  14.213  73.308  1.00  0.00    -0.131 A  
HETATM   57  C   UNL     1     -12.779  13.786  71.937  1.00  0.00    -0.347 A  
HETATM   58  C   UNL     1     -11.787  15.803  71.286  1.00  0.00    -0.491 A  
HETATM   59  C   UNL     1     -12.391  15.478  73.684  1.00  0.00    -0.698 A  
ENDBRANCH  52  54
ENDBRANCH  51  52
ENDBRANCH  22  51
BRANCH  18  60
HETATM   60  O   UNL     1     -11.450  13.285  66.421  1.00  0.00    -0.306 OA 
BRANCH  60  61
HETATM   61  C   UNL     1     -12.404  13.675  65.446  1.00  0.00    -0.476 C  
HETATM   62  C   UNL     1     -11.947  14.576  64.334  1.00  0.00    -0.467 C  
HETATM   63  O   UNL     1     -13.620  13.463  65.389  1.00  0.00    -0.357 OA 
ENDBRANCH  60  61
ENDBRANCH  18  60
TORSDOF 12
ENDMDL
MODEL       51
REMARK 921   NORMALIZED FREE ENERGY PREDICTED BY IDOCK:    3.90 KCAL/MOL
REMARK 922        TOTAL FREE ENERGY PREDICTED BY IDOCK:    3.98 KCAL/MOL
REMARK 923 INTER-LIGAND FREE ENERGY PREDICTED BY IDOCK:    4.66 KCAL/MOL
REMARK 924 INTRA-LIGAND FREE ENERGY PREDICTED BY IDOCK:   -0.69 KCAL/MOL
REMARK 927      BINDING AFFINITY PREDICTED BY RF-SCORE:    0.00 PKD
ROOT
HETATM    1  C   UNL     1      -8.032   6.548  70.124  1.00  0.00    -0.112 C  
HETATM    2  C   UNL     1      -7.912   6.206  71.612  1.00  0.00    -0.103 C  
HETATM    3  C   UNL     1      -9.370   6.073  72.128  1.00  0.00    -0.148 C  
HETATM    4  O   UNL     1     -10.000   4.989  71.428  1.00  0.00    -0.177 OA 
HETATM    5  C   UNL     1     -10.062   7.444  71.974  1.00  0.00    -0.212 C  
HETATM    6  H   UNL     1     -10.892   4.907  71.743  1.00  0.00     0.000 HD 
HETATM    7  C   UNL     1     -11.654   7.243  72.271  1.00  0.00    -0.277 C  
HETATM    8  C   UNL     1      -9.727   8.249  73.276  1.00  0.00    -0.104 C  
HETATM    9  C   UNL     1     -12.680   8.433  72.341  1.00  0.00    -0.296 C  
HETATM   10  O   UNL     1     -12.098   6.137  72.622  1.00  0.00    -0.132 OA 
HETATM   11  O   UNL     1     -14.031   7.955  72.252  1.00  0.00    -0.527 OA 
HETATM   12  C   UNL     1     -12.579   9.451  71.262  1.00  0.00    -0.403 C  
HETATM   13  C   UNL     1     -12.603  10.802  71.371  1.00  0.00    -0.516 C  
HETATM   14  H   UNL     1     -14.651   8.674  72.295  1.00  0.00     0.000 HD 
HETATM   15  C   UNL     1     -12.491  11.839  70.005  1.00  0.00    -0.065 C  
HETATM   16  C   UNL     1     -12.471  11.455  72.746  1.00  0.00     3.320 C  
HETATM   17  C   UNL     1     -11.026  11.559  70.049  1.00  0.00     0.170 C  
HETATM   18  C   UNL     1      -8.488   7.843  69.340  1.00  0.00    -0.133 C  
HETATM   19  C   UNL     1      -8.022   6.715  68.197  1.00  0.00    -0.110 C  
HETATM   20  C   UNL     1     -10.712  10.013  69.694  1.00  0.00    -0.255 C  
HETATM   21  O   UNL     1      -7.001   6.245  69.183  1.00  0.00    -0.063 OA 
HETATM   22  C   UNL     1      -9.264   9.587  70.818  1.00  0.00    -0.128 C  
HETATM   23  C   UNL     1     -12.297   7.450  69.521  1.00  0.00     1.467 C  
HETATM   24  C   UNL     1     -12.272   9.011  69.882  1.00  0.00     0.829 C  
HETATM   25  O   UNL     1     -10.429   9.850  68.293  1.00  0.00    -0.188 OA 
HETATM   26  C   UNL     1      -9.534   8.165  70.563  1.00  0.00    -0.168 C  
HETATM   27  H   UNL     1     -10.245   8.941  68.084  1.00  0.00     0.000 HD 
HETATM   28  C   UNL     1     -13.653   9.233  69.110  1.00  0.00     6.219 C  
ENDROOT
BRANCH  15  29
HETATM   29  O   UNL     1     -12.683  11.407  68.555  1.00  0.00     0.129 OA 
BRANCH  29  30
HETATM   30  C   UNL     1     -12.460  12.241  67.482  1.00  0.00     1.127 C  
HETATM   31  O   UNL     1     -12.523  11.854  66.322  1.00  0.00     0.040 OA 
BRANCH  30  32
HETATM   32  C   UNL     1     -12.050  13.726  67.937  1.00  0.00    -0.287 C  
HETATM   33  O   UNL     1     -12.764  14.785  67.288  1.00  0.00    -0.164 OA 
HETATM   34  H   UNL     1     -12.522  15.663  67.557  1.00  0.00     0.000 HD 
BRANCH  32  35
HETATM   35  C   UNL     1     -10.499  13.952  67.786  1.00  0.00    -0.243 C  
BRANCH  35  36
HETATM   36  N   UNL     1     -10.007  13.187  66.610  1.00  0.00    -0.263 N  
HETATM   37  C   UNL     1     -10.313  13.656  65.389  1.00  0.00    -0.332 C  
HETATM   38  O   UNL     1     -11.097  14.493  65.133  1.00  0.00    -0.330 OA 
HETATM   39  H   UNL     1      -9.457  12.337  66.726  1.00  0.00     0.000 HD 
BRANCH  37  40
HETATM   40  O   UNL     1      -9.482  13.035  64.450  1.00  0.00     0.256 OA 
HETATM   41  C   UNL     1     -10.018  11.895  63.760  1.00  0.00    -0.355 C  
HETATM   42  C   UNL     1     -11.276  12.284  62.961  1.00  0.00    -0.001 C  
HETATM   43  C   UNL     1     -10.276  10.727  64.724  1.00  0.00    -0.403 C  
HETATM   44  C   UNL     1      -8.930  11.471  62.759  1.00  0.00    -0.084 C  
ENDBRANCH  37  40
ENDBRANCH  35  36
BRANCH  35  45
HETATM   45  C   UNL     1      -9.879  15.361  67.779  1.00  0.00    -0.220 A  
HETATM   46  C   UNL     1     -10.554  16.555  68.062  1.00  0.00    -0.328 A  
HETATM   47  C   UNL     1      -8.549  17.886  67.619  1.00  0.00    -0.242 A  
HETATM   48  C   UNL     1      -8.516  15.482  67.404  1.00  0.00    -0.199 A  
HETATM   49  C   UNL     1      -9.892  17.803  67.989  1.00  0.00    -0.317 A  
HETATM   50  C   UNL     1      -7.860  16.720  67.323  1.00  0.00    -0.200 A  
ENDBRANCH  35  45
ENDBRANCH  32  35
ENDBRANCH  30  32
ENDBRANCH  29  30
ENDBRANCH  15  29
BRANCH  22  51
HETATM   51  O   UNL     1      -7.509   9.267  70.842  1.00  0.00    -0.120 OA 
BRANCH  51  52
HETATM   52  C   UNL     1      -6.189   9.830  70.839  1.00  0.00    -0.084 C  
HETATM   53  O   UNL     1      -5.227   9.090  71.033  1.00  0.00    -0.027 OA 
BRANCH  52  54
HETATM   54  C   UNL     1      -5.770  11.467  70.789  1.00  0.00    -0.079 A  
HETATM   55  C   UNL     1      -5.231  13.808  71.580  1.00  0.00    -0.188 A  
HETATM   56  C   UNL     1      -5.375  13.466  69.238  1.00  0.00    -0.075 A  
HETATM   57  C   UNL     1      -5.656  12.081  69.500  1.00  0.00    -0.078 A  
HETATM   58  C   UNL     1      -5.522  12.415  71.813  1.00  0.00     0.274 A  
HETATM   59  C   UNL     1      -5.151  14.357  70.293  1.00  0.00    -0.095 A  
ENDBRANCH  52  54
ENDBRANCH  51  52
ENDBRANCH  22  51
BRANCH  18  60
HETATM   60  O   UNL     1      -7.722   9.069  68.600  1.00  0.00    -0.094 OA 
BRANCH  60  61
HETATM   61  C   UNL     1      -7.329   9.310  67.258  1.00  0.00    -0.091 C  
HETATM   62  C   UNL     1      -6.056  10.070  67.023  1.00  0.00    -0.055 C  
HETATM   63  O   UNL     1      -7.917   9.067  66.199  1.00  0.00    -0.100 OA 
ENDBRANCH  60  61
ENDBRANCH  18  60
TORSDOF 12
ENDMDL
MODEL       52
REMARK 921   NORMALIZED FREE ENERGY PREDICTED BY IDOCK:    4.55 KCAL/MOL
REMARK 922        TOTAL FREE ENERGY PREDICTED BY IDOCK:    5.07 KCAL/MOL
REMARK 923 INTER-LIGAND FREE ENERGY PREDICTED BY IDOCK:    3.04 KCAL/MOL
REMARK 924 INTRA-LIGAND FREE ENERGY PREDICTED BY IDOCK:    2.03 KCAL/MOL
REMARK 927      BINDING AFFINITY PREDICTED BY RF-SCORE:    0.00 PKD
ROOT
HETATM    1  C   UNL     1     -10.401  10.587  64.338  1.00  0.00    -0.174 C  
HETATM    2  C   UNL     1     -11.897  10.847  64.137  1.00  0.00     1.421 C  
HETATM    3  C   UNL     1     -12.045  12.390  64.067  1.00  0.00    -0.475 C  
HETATM    4  O   UNL     1     -11.310  12.864  62.928  1.00  0.00    -0.623 OA 
HETATM    5  C   UNL     1     -11.604  12.979  65.423  1.00  0.00    -0.374 C  
HETATM    6  H   UNL     1     -11.400  13.809  62.885  1.00  0.00     0.000 HD 
HETATM    7  C   UNL     1     -11.515  14.600  65.267  1.00  0.00    -0.361 C  
HETATM    8  C   UNL     1     -12.873  12.947  66.344  1.00  0.00     0.968 C  
HETATM    9  C   UNL     1     -11.224  15.573  66.469  1.00  0.00    -0.104 C  
HETATM   10  O   UNL     1     -11.842  15.152  64.203  1.00  0.00    -0.378 OA 
HETATM   11  O   UNL     1     -10.847  16.876  65.997  1.00  0.00    -0.169 OA 
HETATM   12  C   UNL     1     -10.119  15.177  67.380  1.00  0.00    -0.229 C  
HETATM   13  C   UNL     1     -10.098  15.182  68.735  1.00  0.00    -0.226 C  
HETATM   14  H   UNL     1     -10.671  17.463  66.723  1.00  0.00     0.000 HD 
HETATM   15  C   UNL     1      -8.717  14.706  69.639  1.00  0.00     0.331 C  
HETATM   16  C   UNL     1     -11.400  15.371  69.513  1.00  0.00    -0.308 C  
HETATM   17  C   UNL     1      -9.146  13.306  69.350  1.00  0.00     1.116 C  
HETATM   18  C   UNL     1      -9.417  10.794  65.559  1.00  0.00    -0.210 C  
HETATM   19  C   UNL     1      -8.529  10.099  64.325  1.00  0.00    -0.176 C  
HETATM   20  C   UNL     1      -9.017  12.965  67.774  1.00  0.00    -0.191 C  
HETATM   21  O   UNL     1      -9.774   9.367  63.939  1.00  0.00     0.386 OA 
HETATM   22  C   UNL     1     -10.498  11.851  67.441  1.00  0.00    -0.217 C  
HETATM   23  C   UNL     1      -8.684  14.541  65.223  1.00  0.00     2.589 C  
HETATM   24  C   UNL     1      -8.901  14.555  66.810  1.00  0.00    -0.248 C  
HETATM   25  O   UNL     1      -7.750  12.352  67.478  1.00  0.00    -0.140 OA 
HETATM   26  C   UNL     1     -10.310  12.097  66.005  1.00  0.00    -0.268 C  
HETATM   27  H   UNL     1      -7.674  12.152  66.552  1.00  0.00     0.000 HD 
HETATM   28  C   UNL     1      -7.795  15.696  66.972  1.00  0.00    -0.266 C  
ENDROOT
BRANCH  15  29
HETATM   29  O   UNL     1      -7.308  14.550  69.075  1.00  0.00    -0.122 OA 
BRANCH  29  30
HETATM   30  C   UNL     1      -6.173  14.921  69.763  1.00  0.00    -0.144 C  
HETATM   31  O   UNL     1      -5.156  14.240  69.771  1.00  0.00    -0.092 OA 
BRANCH  30  32
HETATM   32  C   UNL     1      -6.375  16.286  70.585  1.00  0.00     0.692 C  
HETATM   33  O   UNL     1      -7.694  16.501  71.102  1.00  0.00     4.218 OA 
HETATM   34  H   UNL     1      -7.813  17.308  71.588  1.00  0.00     0.000 HD 
BRANCH  32  35
HETATM   35  C   UNL     1      -5.923  17.529  69.730  1.00  0.00    -0.245 C  
BRANCH  35  36
HETATM   36  N   UNL     1      -6.842  17.684  68.572  1.00  0.00    -0.214 N  
HETATM   37  C   UNL     1      -7.939  18.439  68.742  1.00  0.00    -0.256 C  
HETATM   38  O   UNL     1      -8.369  18.834  69.762  1.00  0.00     0.565 OA 
HETATM   39  H   UNL     1      -6.646  17.232  67.679  1.00  0.00     0.000 HD 
BRANCH  37  40
HETATM   40  O   UNL     1      -8.464  18.758  67.484  1.00  0.00    -0.266 OA 
HETATM   41  C   UNL     1      -8.941  20.101  67.300  1.00  0.00    -0.356 C  
HETATM   42  C   UNL     1      -7.803  21.117  67.509  1.00  0.00     0.049 C  
HETATM   43  C   UNL     1     -10.156  20.391  68.195  1.00  0.00    -0.321 C  
HETATM   44  C   UNL     1      -9.387  20.179  65.831  1.00  0.00    -0.206 C  
ENDBRANCH  37  40
ENDBRANCH  35  36
BRANCH  35  45
HETATM   45  C   UNL     1      -5.666  18.905  70.369  1.00  0.00    -0.209 A  
HETATM   46  C   UNL     1      -5.394  20.093  69.677  1.00  0.00    -0.270 A  
HETATM   47  C   UNL     1      -5.129  21.342  71.764  1.00  0.00     0.127 A  
HETATM   48  C   UNL     1      -5.649  18.985  71.786  1.00  0.00    -0.131 A  
HETATM   49  C   UNL     1      -5.135  21.298  70.370  1.00  0.00    -0.102 A  
HETATM   50  C   UNL     1      -5.384  20.178  72.474  1.00  0.00     0.839 A  
ENDBRANCH  35  45
ENDBRANCH  32  35
ENDBRANCH  30  32
ENDBRANCH  29  30
ENDBRANCH  15  29
BRANCH  22  51
HETATM   51  O   UNL     1     -10.983  10.167  67.108  1.00  0.00    -0.235 OA 
BRANCH  51  52
HETATM   52  C   UNL     1     -10.891   8.792  67.509  1.00  0.00    -0.021 C  
HETATM   53  O   UNL     1     -10.949   7.917  66.648  1.00  0.00     0.015 OA 
BRANCH  52  54
HETATM   54  C   UNL     1     -10.902   8.179  69.084  1.00  0.00    -0.033 A  
HETATM   55  C   UNL     1     -11.047   6.522  70.988  1.00  0.00    -0.339 A  
HETATM   56  C   UNL     1     -10.906   8.817  71.564  1.00  0.00    -0.374 A  
HETATM   57  C   UNL     1     -10.844   9.122  70.161  1.00  0.00    -0.269 A  
HETATM   58  C   UNL     1     -10.990   6.858  69.588  1.00  0.00    -0.298 A  
HETATM   59  C   UNL     1     -11.005   7.491  72.000  1.00  0.00    -0.282 A  
ENDBRANCH  52  54
ENDBRANCH  51  52
ENDBRANCH  22  51
BRANCH  18  60
HETATM   60  O   UNL     1      -8.785   9.830  66.703  1.00  0.00    -0.130 OA 
BRANCH  60  61
HETATM   61  C   UNL     1      -7.508   9.747  67.316  1.00  0.00    -0.088 C  
HETATM   62  C   UNL     1      -7.441   9.286  68.743  1.00  0.00    -0.076 C  
HETATM   63  O   UNL     1      -6.396  10.080  66.892  1.00  0.00    -0.063 OA 
ENDBRANCH  60  61
ENDBRANCH  18  60
TORSDOF 12
ENDMDL
MODEL       53
REMARK 921   NORMALIZED FREE ENERGY PREDICTED BY IDOCK:    4.71 KCAL/MOL
REMARK 922        TOTAL FREE ENERGY PREDICTED BY IDOCK:    5.34 KCAL/MOL
REMARK 923 INTER-LIGAND FREE ENERGY PREDICTED BY IDOCK:    3.14 KCAL/MOL
REMARK 924 INTRA-LIGAND FREE ENERGY PREDICTED BY IDOCK:    2.20 KCAL/MOL
REMARK 927      BINDING AFFINITY PREDICTED BY RF-SCORE:    0.00 PKD
ROOT
HETATM    1  C   UNL     1     -12.119  12.941  65.917  1.00  0.00    -0.444 C  
HETATM    2  C   UNL     1     -13.139  13.858  66.600  1.00  0.00     1.125 C  
HETATM    3  C   UNL     1     -12.414  15.216  66.792  1.00  0.00     0.868 C  
HETATM    4  O   UNL     1     -12.081  15.738  65.497  1.00  0.00     0.569 OA 
HETATM    5  C   UNL     1     -11.216  14.994  67.739  1.00  0.00    -0.327 C  
HETATM    6  H   UNL     1     -11.637  16.570  65.615  1.00  0.00     0.000 HD 
HETATM    7  C   UNL     1     -10.311  16.351  67.738  1.00  0.00    -0.287 C  
HETATM    8  C   UNL     1     -11.778  15.142  69.195  1.00  0.00    -0.349 C  
HETATM    9  C   UNL     1      -9.070  16.567  68.680  1.00  0.00    -0.239 C  
HETATM   10  O   UNL     1     -10.672  17.352  67.096  1.00  0.00    -0.295 OA 
HETATM   11  O   UNL     1      -8.262  17.663  68.225  1.00  0.00    -0.257 OA 
HETATM   12  C   UNL     1      -8.120  15.428  68.784  1.00  0.00    -0.166 C  
HETATM   13  C   UNL     1      -7.551  14.902  69.896  1.00  0.00     0.062 C  
HETATM   14  H   UNL     1      -7.512  17.793  68.794  1.00  0.00     0.000 HD 
HETATM   15  C   UNL     1      -6.450  13.585  69.834  1.00  0.00    -0.013 C  
HETATM   16  C   UNL     1      -8.073  15.301  71.276  1.00  0.00     3.390 C  
HETATM   17  C   UNL     1      -7.659  12.724  69.677  1.00  0.00     0.947 C  
HETATM   18  C   UNL     1     -10.795  12.231  66.410  1.00  0.00    -0.264 C  
HETATM   19  C   UNL     1     -11.042  11.764  64.824  1.00  0.00    -0.296 C  
HETATM   20  C   UNL     1      -8.395  12.997  68.263  1.00  0.00    -0.158 C  
HETATM   21  O   UNL     1     -12.507  11.830  65.108  1.00  0.00    -0.172 OA 
HETATM   22  C   UNL     1     -10.224  12.826  68.679  1.00  0.00    -0.152 C  
HETATM   23  C   UNL     1      -8.313  15.139  66.139  1.00  0.00     0.504 C  
HETATM   24  C   UNL     1      -7.817  14.628  67.575  1.00  0.00    -0.212 C  
HETATM   25  O   UNL     1      -7.940  12.077  67.255  1.00  0.00    -0.157 OA 
HETATM   26  C   UNL     1     -10.534  13.504  67.413  1.00  0.00    -0.247 C  
HETATM   27  H   UNL     1      -8.373  12.239  66.424  1.00  0.00     0.000 HD 
HETATM   28  C   UNL     1      -6.314  15.043  67.227  1.00  0.00     0.198 C  
ENDROOT
BRANCH  15  29
HETATM   29  O   UNL     1      -5.746  13.086  68.576  1.00  0.00    -0.062 OA 
BRANCH  29  30
HETATM   30  C   UNL     1      -5.478  11.756  68.336  1.00  0.00    -0.045 C  
HETATM   31  O   UNL     1      -5.153  11.339  67.232  1.00  0.00    -0.042 OA 
BRANCH  30  32
HETATM   32  C   UNL     1      -5.707  10.842  69.637  1.00  0.00    -0.046 C  
HETATM   33  O   UNL     1      -5.180  11.372  70.859  1.00  0.00    -0.110 OA 
HETATM   34  H   UNL     1      -5.317  10.832  71.628  1.00  0.00     0.000 HD 
BRANCH  32  35
HETATM   35  C   UNL     1      -5.161   9.384  69.403  1.00  0.00    -0.035 C  
BRANCH  35  36
HETATM   36  N   UNL     1      -5.367   8.583  70.639  1.00  0.00    -0.028 N  
HETATM   37  C   UNL     1      -6.595   8.577  71.181  1.00  0.00    -0.055 C  
HETATM   38  O   UNL     1      -7.487   9.294  70.910  1.00  0.00    -0.120 OA 
HETATM   39  H   UNL     1      -4.602   8.056  71.059  1.00  0.00     0.000 HD 
BRANCH  37  40
HETATM   40  O   UNL     1      -6.681   7.514  72.087  1.00  0.00    -0.053 OA 
HETATM   41  C   UNL     1      -6.967   7.847  73.455  1.00  0.00    -0.101 C  
HETATM   42  C   UNL     1      -8.328   8.558  73.569  1.00  0.00    -0.058 C  
HETATM   43  C   UNL     1      -5.827   8.662  74.084  1.00  0.00    -0.128 C  
HETATM   44  C   UNL     1      -7.069   6.501  74.192  1.00  0.00    -0.088 C  
ENDBRANCH  37  40
ENDBRANCH  35  36
BRANCH  35  45
HETATM   45  C   UNL     1      -5.569   8.549  68.176  1.00  0.00    -0.035 A  
HETATM   46  C   UNL     1      -5.527   8.977  66.842  1.00  0.00    -0.040 A  
HETATM   47  C   UNL     1      -6.461   6.859  66.051  1.00  0.00    -0.051 A  
HETATM   48  C   UNL     1      -6.085   7.247  68.403  1.00  0.00    -0.031 A  
HETATM   49  C   UNL     1      -5.963   8.136  65.792  1.00  0.00    -0.041 A  
HETATM   50  C   UNL     1      -6.525   6.415  67.363  1.00  0.00    -0.049 A  
ENDBRANCH  35  45
ENDBRANCH  32  35
ENDBRANCH  30  32
ENDBRANCH  29  30
ENDBRANCH  15  29
BRANCH  22  51
HETATM   51  O   UNL     1     -11.649  11.771  68.485  1.00  0.00    -0.271 OA 
BRANCH  51  52
HETATM   52  C   UNL     1     -12.524  10.814  69.101  1.00  0.00     0.289 C  
HETATM   53  O   UNL     1     -13.717  11.087  69.214  1.00  0.00     1.998 OA 
BRANCH  52  54
HETATM   54  C   UNL     1     -12.089   9.385  69.891  1.00  0.00     0.419 A  
HETATM   55  C   UNL     1     -12.146   7.470  71.541  1.00  0.00    -0.345 A  
HETATM   56  C   UNL     1     -10.285   7.577  70.076  1.00  0.00    -0.215 A  
HETATM   57  C   UNL     1     -10.866   8.756  69.493  1.00  0.00    -0.151 A  
HETATM   58  C   UNL     1     -12.701   8.657  70.942  1.00  0.00     0.082 A  
HETATM   59  C   UNL     1     -10.932   6.909  71.121  1.00  0.00    -0.284 A  
ENDBRANCH  52  54
ENDBRANCH  51  52
ENDBRANCH  22  51
BRANCH  18  60
HETATM   60  O   UNL     1     -10.410  10.733  66.905  1.00  0.00    -0.221 OA 
BRANCH  60  61
HETATM   61  C   UNL     1      -9.792   9.623  66.274  1.00  0.00    -0.256 C  
HETATM   62  C   UNL     1     -10.369   8.259  66.524  1.00  0.00    -0.175 C  
HETATM   63  O   UNL     1      -8.765   9.564  65.589  1.00  0.00    -0.134 OA 
ENDBRANCH  60  61
ENDBRANCH  18  60
TORSDOF 12
ENDMDL
MODEL       54
REMARK 921   NORMALIZED FREE ENERGY PREDICTED BY IDOCK:    5.00 KCAL/MOL
REMARK 922        TOTAL FREE ENERGY PREDICTED BY IDOCK:    5.83 KCAL/MOL
REMARK 923 INTER-LIGAND FREE ENERGY PREDICTED BY IDOCK:    6.70 KCAL/MOL
REMARK 924 INTRA-LIGAND FREE ENERGY PREDICTED BY IDOCK:   -0.86 KCAL/MOL
REMARK 927      BINDING AFFINITY PREDICTED BY RF-SCORE:    0.00 PKD
ROOT
HETATM    1  C   UNL     1     -10.509   8.042  68.862  1.00  0.00    -0.191 C  
HETATM    2  C   UNL     1     -10.563   7.517  70.300  1.00  0.00    -0.235 C  
HETATM    3  C   UNL     1     -11.756   8.252  70.967  1.00  0.00    -0.270 C  
HETATM    4  O   UNL     1     -12.958   7.888  70.270  1.00  0.00     0.173 OA 
HETATM    5  C   UNL     1     -11.441   9.762  70.987  1.00  0.00    -0.458 C  
HETATM    6  H   UNL     1     -13.688   8.338  70.677  1.00  0.00     0.000 HD 
HETATM    7  C   UNL     1     -12.791  10.554  71.449  1.00  0.00    -0.447 C  
HETATM    8  C   UNL     1     -10.616  10.016  72.296  1.00  0.00     3.056 C  
HETATM    9  C   UNL     1     -12.839  12.104  71.717  1.00  0.00    -0.262 C  
HETATM   10  O   UNL     1     -13.814   9.927  71.771  1.00  0.00    -0.216 OA 
HETATM   11  O   UNL     1     -14.193  12.580  71.749  1.00  0.00     0.570 OA 
HETATM   12  C   UNL     1     -12.170  12.965  70.707  1.00  0.00    -0.348 C  
HETATM   13  C   UNL     1     -11.336  14.014  70.911  1.00  0.00     0.398 C  
HETATM   14  H   UNL     1     -14.221  13.516  71.912  1.00  0.00     0.000 HD 
HETATM   15  C   UNL     1     -10.660  14.920  69.617  1.00  0.00    -0.197 C  
HETATM   16  C   UNL     1     -10.762  14.267  72.304  1.00  0.00     3.331 C  
HETATM   17  C   UNL     1      -9.695  13.790  69.475  1.00  0.00     0.775 C  
HETATM   18  C   UNL     1     -10.086   9.427  68.226  1.00  0.00    -0.183 C  
HETATM   19  C   UNL     1     -10.483   8.406  66.963  1.00  0.00    -0.305 C  
HETATM   20  C   UNL     1     -10.437  12.442  68.980  1.00  0.00     0.001 C  
HETATM   21  O   UNL     1      -9.940   7.288  67.791  1.00  0.00    -0.152 OA 
HETATM   22  C   UNL     1      -9.528  11.074  69.900  1.00  0.00     0.935 C  
HETATM   23  C   UNL     1     -13.285  11.457  68.810  1.00  0.00     3.415 C  
HETATM   24  C   UNL     1     -12.269  12.606  69.274  1.00  0.00    -0.089 C  
HETATM   25  O   UNL     1     -10.383  12.315  67.548  1.00  0.00    -0.201 OA 
HETATM   26  C   UNL     1     -10.642  10.171  69.579  1.00  0.00    -0.269 C  
HETATM   27  H   UNL     1     -10.819  11.522  67.257  1.00  0.00     0.000 HD 
HETATM   28  C   UNL     1     -13.239  13.730  68.680  1.00  0.00     3.005 C  
ENDROOT
BRANCH  15  29
HETATM   29  O   UNL     1     -11.146  14.885  68.171  1.00  0.00    -0.262 OA 
BRANCH  29  30
HETATM   30  C   UNL     1     -10.345  15.205  67.097  1.00  0.00    -0.263 C  
HETATM   31  O   UNL     1     -10.353  14.562  66.055  1.00  0.00    -0.285 OA 
BRANCH  30  32
HETATM   32  C   UNL     1      -9.379  16.451  67.404  1.00  0.00    -0.221 C  
HETATM   33  O   UNL     1      -9.714  17.668  66.725  1.00  0.00    -0.276 OA 
HETATM   34  H   UNL     1      -9.143  18.405  66.907  1.00  0.00     0.000 HD 
BRANCH  32  35
HETATM   35  C   UNL     1      -7.875  16.078  67.128  1.00  0.00    -0.209 C  
BRANCH  35  36
HETATM   36  N   UNL     1      -7.121  17.314  66.788  1.00  0.00    -0.188 N  
HETATM   37  C   UNL     1      -7.170  18.333  67.660  1.00  0.00    -0.210 C  
HETATM   38  O   UNL     1      -7.903  18.445  68.571  1.00  0.00    -0.292 OA 
HETATM   39  H   UNL     1      -6.585  17.384  65.923  1.00  0.00     0.000 HD 
BRANCH  37  40
HETATM   40  O   UNL     1      -6.139  19.232  67.358  1.00  0.00    -0.189 OA 
HETATM   41  C   UNL     1      -6.470  20.336  66.500  1.00  0.00    -0.213 C  
HETATM   42  C   UNL     1      -7.566  21.210  67.138  1.00  0.00    -0.077 C  
HETATM   43  C   UNL     1      -6.850  19.858  65.091  1.00  0.00    -0.268 C  
HETATM   44  C   UNL     1      -5.186  21.177  66.402  1.00  0.00    -0.251 C  
ENDBRANCH  37  40
ENDBRANCH  35  36
BRANCH  35  45
HETATM   45  C   UNL     1      -7.053  15.230  68.114  1.00  0.00    -0.126 A  
HETATM   46  C   UNL     1      -6.704  15.599  69.420  1.00  0.00    -0.180 A  
HETATM   47  C   UNL     1      -5.438  13.532  69.751  1.00  0.00    -0.096 A  
HETATM   48  C   UNL     1      -6.553  13.982  67.659  1.00  0.00    -0.175 A  
HETATM   49  C   UNL     1      -5.910  14.754  70.230  1.00  0.00    -0.151 A  
HETATM   50  C   UNL     1      -5.759  13.147  68.458  1.00  0.00    -0.078 A  
ENDBRANCH  35  45
ENDBRANCH  32  35
ENDBRANCH  30  32
ENDBRANCH  29  30
ENDBRANCH  15  29
BRANCH  22  51
HETATM   51  O   UNL     1      -8.363   9.737  69.702  1.00  0.00    -0.139 OA 
BRANCH  51  52
HETATM   52  C   UNL     1      -7.379   8.904  70.331  1.00  0.00    -0.070 C  
HETATM   53  O   UNL     1      -6.693   9.374  71.236  1.00  0.00    -0.212 OA 
BRANCH  52  54
HETATM   54  C   UNL     1      -6.884   7.360  69.855  1.00  0.00    -0.055 A  
HETATM   55  C   UNL     1      -5.576   5.538  68.685  1.00  0.00    -0.008 A  
HETATM   56  C   UNL     1      -7.460   4.867  69.959  1.00  0.00    -0.055 A  
HETATM   57  C   UNL     1      -7.668   6.247  70.301  1.00  0.00    -0.098 A  
HETATM   58  C   UNL     1      -5.814   6.915  69.039  1.00  0.00    -0.019 A  
HETATM   59  C   UNL     1      -6.391   4.491  69.138  1.00  0.00    -0.032 A  
ENDBRANCH  52  54
ENDBRANCH  51  52
ENDBRANCH  22  51
BRANCH  18  60
HETATM   60  O   UNL     1      -8.755   9.996  67.491  1.00  0.00    -0.125 OA 
BRANCH  60  61
HETATM   61  C   UNL     1      -8.112   9.696  66.262  1.00  0.00    -0.112 C  
HETATM   62  C   UNL     1      -6.692   9.210  66.310  1.00  0.00    -0.071 C  
HETATM   63  O   UNL     1      -8.501   9.849  65.100  1.00  0.00    -0.135 OA 
ENDBRANCH  60  61
ENDBRANCH  18  60
TORSDOF 12
ENDMDL
MODEL       55
REMARK 921   NORMALIZED FREE ENERGY PREDICTED BY IDOCK:    5.67 KCAL/MOL
REMARK 922        TOTAL FREE ENERGY PREDICTED BY IDOCK:    6.97 KCAL/MOL
REMARK 923 INTER-LIGAND FREE ENERGY PREDICTED BY IDOCK:   -4.42 KCAL/MOL
REMARK 924 INTRA-LIGAND FREE ENERGY PREDICTED BY IDOCK:   11.39 KCAL/MOL
REMARK 927      BINDING AFFINITY PREDICTED BY RF-SCORE:    0.00 PKD
ROOT
HETATM    1  C   UNL     1      -8.004  10.305  63.180  1.00  0.00    -0.151 C  
HETATM    2  C   UNL     1      -9.456  10.278  62.692  1.00  0.00    -0.309 C  
HETATM    3  C   UNL     1     -10.198  11.350  63.533  1.00  0.00    -0.413 C  
HETATM    4  O   UNL     1      -9.613  12.631  63.251  1.00  0.00    -0.524 OA 
HETATM    5  C   UNL     1     -10.151  10.920  65.014  1.00  0.00    -0.362 C  
HETATM    6  H   UNL     1     -10.068  13.287  63.765  1.00  0.00     0.000 HD 
HETATM    7  C   UNL     1     -10.700  12.160  65.920  1.00  0.00    -0.266 C  
HETATM    8  C   UNL     1     -11.379   9.970  65.230  1.00  0.00     2.492 C  
HETATM    9  C   UNL     1     -10.928  12.066  67.473  1.00  0.00    -0.253 C  
HETATM   10  O   UNL     1     -11.123  13.198  65.382  1.00  0.00    -0.276 OA 
HETATM   11  O   UNL     1     -11.059  13.372  68.055  1.00  0.00    -0.240 OA 
HETATM   12  C   UNL     1      -9.843  11.421  68.258  1.00  0.00    -0.202 C  
HETATM   13  C   UNL     1      -9.947  10.494  69.241  1.00  0.00    -0.233 C  
HETATM   14  H   UNL     1     -11.197  13.314  68.994  1.00  0.00     0.000 HD 
HETATM   15  C   UNL     1      -8.577   9.863  70.063  1.00  0.00    -0.167 C  
HETATM   16  C   UNL     1     -11.281   9.786  69.478  1.00  0.00    -0.181 C  
HETATM   17  C   UNL     1      -8.387   9.003  68.858  1.00  0.00    -0.125 C  
HETATM   18  C   UNL     1      -7.297   9.833  64.514  1.00  0.00    -0.135 C  
HETATM   19  C   UNL     1      -6.100  10.413  63.501  1.00  0.00    -0.105 C  
HETATM   20  C   UNL     1      -7.993   9.886  67.562  1.00  0.00    -0.106 C  
HETATM   21  O   UNL     1      -6.911   9.889  62.361  1.00  0.00    -0.103 OA 
HETATM   22  C   UNL     1      -8.873   9.010  66.147  1.00  0.00    -0.164 C  
HETATM   23  C   UNL     1      -8.087  12.805  66.802  1.00  0.00     0.105 C  
HETATM   24  C   UNL     1      -8.433  11.669  67.877  1.00  0.00    -0.148 C  
HETATM   25  O   UNL     1      -6.565   9.963  67.401  1.00  0.00    -0.068 OA 
HETATM   26  C   UNL     1      -8.670  10.213  65.328  1.00  0.00    -0.180 C  
HETATM   27  H   UNL     1      -6.334  10.482  66.640  1.00  0.00     0.000 HD 
HETATM   28  C   UNL     1      -7.891  12.595  69.061  1.00  0.00     0.250 C  
ENDROOT
BRANCH  15  29
HETATM   29  O   UNL     1      -7.178  10.471  70.036  1.00  0.00    -0.159 OA 
BRANCH  29  30
HETATM   30  C   UNL     1      -6.062   9.780  69.619  1.00  0.00    -0.044 C  
HETATM   31  O   UNL     1      -5.233  10.266  68.859  1.00  0.00    -0.036 OA 
BRANCH  30  32
HETATM   32  C   UNL     1      -6.025   8.277  70.184  1.00  0.00    -0.028 C  
HETATM   33  O   UNL     1      -6.298   7.253  69.219  1.00  0.00    -0.034 OA 
HETATM   34  H   UNL     1      -6.276   6.364  69.554  1.00  0.00     0.000 HD 
BRANCH  32  35
HETATM   35  C   UNL     1      -6.985   8.118  71.423  1.00  0.00    -0.059 C  
BRANCH  35  36
HETATM   36  N   UNL     1      -8.394   8.092  70.947  1.00  0.00    -0.116 N  
HETATM   37  C   UNL     1      -8.998   6.897  70.856  1.00  0.00    -0.149 C  
HETATM   38  O   UNL     1      -8.484   5.842  70.915  1.00  0.00    -0.122 OA 
HETATM   39  H   UNL     1      -8.883   8.952  70.700  1.00  0.00     0.000 HD 
BRANCH  37  40
HETATM   40  O   UNL     1     -10.380   7.101  70.753  1.00  0.00    -0.205 OA 
HETATM   41  C   UNL     1     -11.175   6.760  71.900  1.00  0.00    -0.260 C  
HETATM   42  C   UNL     1     -10.754   7.598  73.122  1.00  0.00    -0.445 C  
HETATM   43  C   UNL     1     -11.132   5.251  72.183  1.00  0.00    -0.187 C  
HETATM   44  C   UNL     1     -12.616   7.147  71.530  1.00  0.00    -0.427 C  
ENDBRANCH  37  40
ENDBRANCH  35  36
BRANCH  35  45
HETATM   45  C   UNL     1      -6.778   7.016  72.476  1.00  0.00    -0.061 A  
HETATM   46  C   UNL     1      -7.710   6.621  73.444  1.00  0.00    -0.090 A  
HETATM   47  C   UNL     1      -6.149   4.998  74.400  1.00  0.00    -0.059 A  
HETATM   48  C   UNL     1      -5.516   6.367  72.516  1.00  0.00    -0.036 A  
HETATM   49  C   UNL     1      -7.399   5.618  74.391  1.00  0.00    -0.085 A  
HETATM   50  C   UNL     1      -5.203   5.377  73.460  1.00  0.00    -0.022 A  
ENDBRANCH  35  45
ENDBRANCH  32  35
ENDBRANCH  30  32
ENDBRANCH  29  30
ENDBRANCH  15  29
BRANCH  22  51
HETATM   51  O   UNL     1      -8.617   7.972  64.719  1.00  0.00    -0.073 OA 
BRANCH  51  52
HETATM   52  C   UNL     1      -8.771   6.666  64.144  1.00  0.00     0.578 C  
HETATM   53  O   UNL     1      -8.997   6.571  62.939  1.00  0.00     0.510 OA 
BRANCH  52  54
HETATM   54  C   UNL     1      -8.875   5.190  64.960  1.00  0.00    -0.134 A  
HETATM   55  C   UNL     1      -9.077   3.534  66.860  1.00  0.00    -0.184 A  
HETATM   56  C   UNL     1      -8.696   2.650  64.693  1.00  0.00    -0.106 A  
HETATM   57  C   UNL     1      -8.708   3.995  64.188  1.00  0.00    -0.116 A  
HETATM   58  C   UNL     1      -9.077   4.873  66.326  1.00  0.00    -0.127 A  
HETATM   59  C   UNL     1      -8.889   2.401  66.056  1.00  0.00    -0.125 A  
ENDBRANCH  52  54
ENDBRANCH  51  52
ENDBRANCH  22  51
BRANCH  18  60
HETATM   60  O   UNL     1      -6.439   8.529  64.960  1.00  0.00    -0.059 OA 
BRANCH  60  61
HETATM   61  C   UNL     1      -5.790   7.491  64.241  1.00  0.00    -0.037 C  
HETATM   62  C   UNL     1      -5.330   6.285  65.007  1.00  0.00    -0.017 C  
HETATM   63  O   UNL     1      -5.446   7.436  63.056  1.00  0.00    -0.039 OA 
ENDBRANCH  60  61
ENDBRANCH  18  60
TORSDOF 12
ENDMDL
MODEL       56
REMARK 921   NORMALIZED FREE ENERGY PREDICTED BY IDOCK:    6.68 KCAL/MOL
REMARK 922        TOTAL FREE ENERGY PREDICTED BY IDOCK:    8.70 KCAL/MOL
REMARK 923 INTER-LIGAND FREE ENERGY PREDICTED BY IDOCK:    8.07 KCAL/MOL
REMARK 924 INTRA-LIGAND FREE ENERGY PREDICTED BY IDOCK:    0.64 KCAL/MOL
REMARK 927      BINDING AFFINITY PREDICTED BY RF-SCORE:    0.00 PKD
ROOT
HETATM    1  C   UNL     1     -10.488   6.792  69.510  1.00  0.00    -0.220 C  
HETATM    2  C   UNL     1     -10.327   6.587  71.019  1.00  0.00    -0.240 C  
HETATM    3  C   UNL     1     -11.400   7.494  71.679  1.00  0.00    -0.252 C  
HETATM    4  O   UNL     1     -12.695   7.040  71.261  1.00  0.00    -0.377 OA 
HETATM    5  C   UNL     1     -11.073   8.961  71.327  1.00  0.00    -0.367 C  
HETATM    6  H   UNL     1     -13.352   7.594  71.664  1.00  0.00     0.000 HD 
HETATM    7  C   UNL     1     -12.331   9.886  71.799  1.00  0.00    -0.368 C  
HETATM    8  C   UNL     1     -10.057   9.454  72.415  1.00  0.00     1.292 C  
HETATM    9  C   UNL     1     -12.325  11.458  71.731  1.00  0.00     0.194 C  
HETATM   10  O   UNL     1     -13.298   9.384  72.395  1.00  0.00    -0.452 OA 
HETATM   11  O   UNL     1     -13.655  11.984  71.857  1.00  0.00    -0.288 OA 
HETATM   12  C   UNL     1     -11.811  12.058  70.472  1.00  0.00    -0.215 C  
HETATM   13  C   UNL     1     -10.948  13.091  70.319  1.00  0.00     1.043 C  
HETATM   14  H   UNL     1     -13.652  12.934  71.816  1.00  0.00     0.000 HD 
HETATM   15  C   UNL     1     -10.469  13.674  68.775  1.00  0.00    -0.202 C  
HETATM   16  C   UNL     1     -10.167  13.611  71.526  1.00  0.00     6.627 C  
HETATM   17  C   UNL     1      -9.545  12.502  68.741  1.00  0.00     0.079 C  
HETATM   18  C   UNL     1     -10.155   7.992  68.535  1.00  0.00    -0.199 C  
HETATM   19  C   UNL     1     -10.748   6.744  67.594  1.00  0.00    -0.288 C  
HETATM   20  C   UNL     1     -10.365  11.110  68.663  1.00  0.00    -0.203 C  
HETATM   21  O   UNL     1     -10.094   5.805  68.555  1.00  0.00    -0.152 OA 
HETATM   22  C   UNL     1      -9.337   9.934  69.713  1.00  0.00    -0.221 C  
HETATM   23  C   UNL     1     -13.212  10.227  69.129  1.00  0.00     2.710 C  
HETATM   24  C   UNL     1     -12.130  11.407  69.180  1.00  0.00    -0.331 C  
HETATM   25  O   UNL     1     -10.529  10.680  67.300  1.00  0.00    -0.217 OA 
HETATM   26  C   UNL     1     -10.493   9.029  69.762  1.00  0.00    -0.227 C  
HETATM   27  H   UNL     1     -11.011   9.862  67.255  1.00  0.00     0.000 HD 
HETATM   28  C   UNL     1     -13.169  12.417  68.506  1.00  0.00     3.978 C  
ENDROOT
BRANCH  15  29
HETATM   29  O   UNL     1     -11.169  13.353  67.459  1.00  0.00    -0.266 OA 
BRANCH  29  30
HETATM   30  C   UNL     1     -12.005  14.236  66.812  1.00  0.00    -0.436 C  
HETATM   31  O   UNL     1     -12.550  15.169  67.388  1.00  0.00     0.602 OA 
BRANCH  30  32
HETATM   32  C   UNL     1     -12.220  13.854  65.267  1.00  0.00    -0.433 C  
HETATM   33  O   UNL     1     -12.945  12.641  65.031  1.00  0.00    -0.812 OA 
HETATM   34  H   UNL     1     -13.073  12.416  64.117  1.00  0.00     0.000 HD 
BRANCH  32  35
HETATM   35  C   UNL     1     -10.846  13.818  64.499  1.00  0.00    -0.387 C  
BRANCH  35  36
HETATM   36  N   UNL     1      -9.801  14.459  65.341  1.00  0.00    -0.541 N  
HETATM   37  C   UNL     1      -9.810  15.798  65.435  1.00  0.00    -0.177 C  
HETATM   38  O   UNL     1     -10.424  16.546  64.768  1.00  0.00    -0.617 OA 
HETATM   39  H   UNL     1      -9.102  13.899  65.830  1.00  0.00     0.000 HD 
BRANCH  37  40
HETATM   40  O   UNL     1      -9.015  16.176  66.524  1.00  0.00    -0.231 OA 
HETATM   41  C   UNL     1      -9.366  17.400  67.191  1.00  0.00    -0.245 C  
HETATM   42  C   UNL     1     -10.792  17.315  67.767  1.00  0.00    -0.261 C  
HETATM   43  C   UNL     1      -9.179  18.614  66.269  1.00  0.00    -0.242 C  
HETATM   44  C   UNL     1      -8.383  17.522  68.367  1.00  0.00    -0.278 C  
ENDBRANCH  37  40
ENDBRANCH  35  36
BRANCH  35  45
HETATM   45  C   UNL     1     -10.289  12.521  63.888  1.00  0.00    -0.436 A  
HETATM   46  C   UNL     1      -9.136  12.414  63.100  1.00  0.00     1.644 A  
HETATM   47  C   UNL     1      -9.482  10.014  62.776  1.00  0.00    -0.228 A  
HETATM   48  C   UNL     1     -11.027  11.325  64.088  1.00  0.00    -0.376 A  
HETATM   49  C   UNL     1      -8.735  11.172  62.556  1.00  0.00    -0.304 A  
HETATM   50  C   UNL     1     -10.635  10.093  63.543  1.00  0.00     1.445 A  
ENDBRANCH  35  45
ENDBRANCH  32  35
ENDBRANCH  30  32
ENDBRANCH  29  30
ENDBRANCH  15  29
BRANCH  22  51
HETATM   51  O   UNL     1      -8.226   8.540  69.641  1.00  0.00    -0.111 OA 
BRANCH  51  52
HETATM   52  C   UNL     1      -6.862   8.093  69.649  1.00  0.00    -0.041 C  
HETATM   53  O   UNL     1      -5.982   8.879  69.993  1.00  0.00    -0.030 OA 
BRANCH  52  54
HETATM   54  C   UNL     1      -6.255   6.635  69.048  1.00  0.00    -0.027 A  
HETATM   55  C   UNL     1      -5.597   4.833  67.401  1.00  0.00    -0.013 A  
HETATM   56  C   UNL     1      -5.364   4.326  69.705  1.00  0.00    -0.008 A  
HETATM   57  C   UNL     1      -5.846   5.647  70.001  1.00  0.00    -0.024 A  
HETATM   58  C   UNL     1      -6.084   6.150  67.728  1.00  0.00    -0.017 A  
HETATM   59  C   UNL     1      -5.228   3.899  68.379  1.00  0.00    -0.012 A  
ENDBRANCH  52  54
ENDBRANCH  51  52
ENDBRANCH  22  51
BRANCH  18  60
HETATM   60  O   UNL     1      -8.947   8.338  67.508  1.00  0.00    -0.133 OA 
BRANCH  60  61
HETATM   61  C   UNL     1      -8.663   7.964  66.169  1.00  0.00    -0.158 C  
HETATM   62  C   UNL     1      -7.620   8.746  65.424  1.00  0.00    -0.087 C  
HETATM   63  O   UNL     1      -9.205   7.123  65.444  1.00  0.00     0.202 OA 
ENDBRANCH  60  61
ENDBRANCH  18  60
TORSDOF 12
ENDMDL
MODEL       57
REMARK 921   NORMALIZED FREE ENERGY PREDICTED BY IDOCK:    6.81 KCAL/MOL
REMARK 922        TOTAL FREE ENERGY PREDICTED BY IDOCK:    8.92 KCAL/MOL
REMARK 923 INTER-LIGAND FREE ENERGY PREDICTED BY IDOCK:    3.26 KCAL/MOL
REMARK 924 INTRA-LIGAND FREE ENERGY PREDICTED BY IDOCK:    5.66 KCAL/MOL
REMARK 927      BINDING AFFINITY PREDICTED BY RF-SCORE:    0.00 PKD
ROOT
HETATM    1  C   UNL     1      -5.815   8.730  69.910  1.00  0.00    -0.028 C  
HETATM    2  C   UNL     1      -5.491   7.654  68.870  1.00  0.00    -0.022 C  
HETATM    3  C   UNL     1      -5.923   8.251  67.504  1.00  0.00    -0.047 C  
HETATM    4  O   UNL     1      -5.134   9.423  67.253  1.00  0.00    -0.035 OA 
HETATM    5  C   UNL     1      -7.448   8.481  67.539  1.00  0.00    -0.093 C  
HETATM    6  H   UNL     1      -5.398   9.789  66.417  1.00  0.00     0.000 HD 
HETATM    7  C   UNL     1      -7.861   9.338  66.214  1.00  0.00    -0.103 C  
HETATM    8  C   UNL     1      -8.103   7.126  67.099  1.00  0.00    -0.114 C  
HETATM    9  C   UNL     1      -9.350   9.664  65.821  1.00  0.00    -0.228 C  
HETATM   10  O   UNL     1      -7.009   9.633  65.360  1.00  0.00    -0.087 OA 
HETATM   11  O   UNL     1      -9.406  10.714  64.842  1.00  0.00    -0.197 OA 
HETATM   12  C   UNL     1     -10.230  10.140  66.921  1.00  0.00    -0.295 C  
HETATM   13  C   UNL     1     -11.494   9.754  67.217  1.00  0.00     0.940 C  
HETATM   14  H   UNL     1     -10.305  10.910  64.605  1.00  0.00     0.000 HD 
HETATM   15  C   UNL     1     -12.381  10.426  68.526  1.00  0.00     1.272 C  
HETATM   16  C   UNL     1     -12.086   8.514  66.547  1.00  0.00     7.617 C  
HETATM   17  C   UNL     1     -11.577   9.517  69.395  1.00  0.00     0.225 C  
HETATM   18  C   UNL     1      -7.168   9.285  70.514  1.00  0.00    -0.110 C  
HETATM   19  C   UNL     1      -5.919  10.084  71.287  1.00  0.00     0.032 C  
HETATM   20  C   UNL     1     -10.017   9.942  69.406  1.00  0.00    -0.212 C  
HETATM   21  O   UNL     1      -5.128   8.823  71.158  1.00  0.00    -0.028 OA 
HETATM   22  C   UNL     1      -9.111   8.294  69.480  1.00  0.00    -0.154 C  
HETATM   23  C   UNL     1      -8.225  11.701  67.733  1.00  0.00    -0.141 C  
HETATM   24  C   UNL     1      -9.673  11.050  67.948  1.00  0.00    -0.183 C  
HETATM   25  O   UNL     1      -9.726  10.817  70.511  1.00  0.00     0.413 OA 
HETATM   26  C   UNL     1      -7.886   8.993  69.068  1.00  0.00    -0.090 C  
HETATM   27  H   UNL     1      -8.809  11.067  70.517  1.00  0.00     0.000 HD 
HETATM   28  C   UNL     1     -10.373  12.448  67.619  1.00  0.00    -0.223 C  
ENDROOT
BRANCH  15  29
HETATM   29  O   UNL     1     -12.016  11.707  69.270  1.00  0.00    -0.320 OA 
BRANCH  29  30
HETATM   30  C   UNL     1     -12.108  12.960  68.707  1.00  0.00    -0.139 C  
HETATM   31  O   UNL     1     -12.745  13.178  67.684  1.00  0.00     0.308 OA 
BRANCH  30  32
HETATM   32  C   UNL     1     -11.241  14.053  69.503  1.00  0.00    -0.199 C  
HETATM   33  O   UNL     1     -11.199  13.885  70.925  1.00  0.00    -0.254 OA 
HETATM   34  H   UNL     1     -10.686  14.531  71.396  1.00  0.00     0.000 HD 
BRANCH  32  35
HETATM   35  C   UNL     1     -11.714  15.513  69.148  1.00  0.00    -0.365 C  
BRANCH  35  36
HETATM   36  N   UNL     1     -12.393  16.106  70.331  1.00  0.00    -0.409 N  
HETATM   37  C   UNL     1     -13.336  15.370  70.941  1.00  0.00    -0.418 C  
HETATM   38  O   UNL     1     -13.837  14.388  70.533  1.00  0.00     0.185 OA 
HETATM   39  H   UNL     1     -12.151  17.038  70.666  1.00  0.00     0.000 HD 
BRANCH  37  40
HETATM   40  O   UNL     1     -13.587  15.921  72.204  1.00  0.00    -0.418 OA 
HETATM   41  C   UNL     1     -12.534  15.823  73.176  1.00  0.00    -0.487 C  
HETATM   42  C   UNL     1     -11.269  16.552  72.684  1.00  0.00     0.893 C  
HETATM   43  C   UNL     1     -12.256  14.361  73.556  1.00  0.00    -0.001 C  
HETATM   44  C   UNL     1     -13.055  16.561  74.421  1.00  0.00     0.446 C  
ENDBRANCH  37  40
ENDBRANCH  35  36
BRANCH  35  45
HETATM   45  C   UNL     1     -10.759  16.550  68.531  1.00  0.00    -0.336 A  
HETATM   46  C   UNL     1      -9.867  16.318  67.477  1.00  0.00    -0.238 A  
HETATM   47  C   UNL     1      -9.006  18.604  67.596  1.00  0.00    -0.291 A  
HETATM   48  C   UNL     1     -10.731  17.848  69.105  1.00  0.00     0.331 A  
HETATM   49  C   UNL     1      -9.005  17.338  67.012  1.00  0.00    -0.245 A  
HETATM   50  C   UNL     1      -9.871  18.858  68.650  1.00  0.00    -0.463 A  
ENDBRANCH  35  45
ENDBRANCH  32  35
ENDBRANCH  30  32
ENDBRANCH  29  30
ENDBRANCH  15  29
BRANCH  22  51
HETATM   51  O   UNL     1      -8.162   7.222  70.545  1.00  0.00    -0.120 OA 
BRANCH  51  52
HETATM   52  C   UNL     1      -8.010   5.902  71.088  1.00  0.00    -0.113 C  
HETATM   53  O   UNL     1      -7.023   5.241  70.773  1.00  0.00    -0.052 OA 
BRANCH  52  54
HETATM   54  C   UNL     1      -9.140   5.026  71.988  1.00  0.00    -0.153 A  
HETATM   55  C   UNL     1     -11.188   4.513  73.381  1.00  0.00    -0.404 A  
HETATM   56  C   UNL     1      -9.634   2.752  73.058  1.00  0.00    -0.143 A  
HETATM   57  C   UNL     1      -8.844   3.652  72.262  1.00  0.00    -0.117 A  
HETATM   58  C   UNL     1     -10.371   5.395  72.585  1.00  0.00    -0.246 A  
HETATM   59  C   UNL     1     -10.836   3.180  73.632  1.00  0.00    -0.311 A  
ENDBRANCH  52  54
ENDBRANCH  51  52
ENDBRANCH  22  51
BRANCH  18  60
HETATM   60  O   UNL     1      -8.002   9.035  71.885  1.00  0.00    -0.348 OA 
BRANCH  60  61
HETATM   61  C   UNL     1      -7.655   8.522  73.161  1.00  0.00     0.020 C  
HETATM   62  C   UNL     1      -8.750   7.938  74.007  1.00  0.00    -0.305 C  
HETATM   63  O   UNL     1      -6.578   8.546  73.765  1.00  0.00    -0.133 OA 
ENDBRANCH  60  61
ENDBRANCH  18  60
TORSDOF 12
ENDMDL
MODEL       58
REMARK 921   NORMALIZED FREE ENERGY PREDICTED BY IDOCK:    6.88 KCAL/MOL
REMARK 922        TOTAL FREE ENERGY PREDICTED BY IDOCK:    9.04 KCAL/MOL
REMARK 923 INTER-LIGAND FREE ENERGY PREDICTED BY IDOCK:   -0.34 KCAL/MOL
REMARK 924 INTRA-LIGAND FREE ENERGY PREDICTED BY IDOCK:    9.38 KCAL/MOL
REMARK 927      BINDING AFFINITY PREDICTED BY RF-SCORE:    0.00 PKD
ROOT
HETATM    1  C   UNL     1     -11.716  12.200  64.989  1.00  0.00    -0.314 C  
HETATM    2  C   UNL     1     -13.120  12.668  65.381  1.00  0.00     0.702 C  
HETATM    3  C   UNL     1     -13.049  14.218  65.415  1.00  0.00    -0.059 C  
HETATM    4  O   UNL     1     -12.730  14.685  64.096  1.00  0.00    -0.738 OA 
HETATM    5  C   UNL     1     -12.049  14.630  66.517  1.00  0.00    -0.230 C  
HETATM    6  H   UNL     1     -12.686  15.634  64.116  1.00  0.00     0.000 HD 
HETATM    7  C   UNL     1     -11.782  16.233  66.383  1.00  0.00     1.067 C  
HETATM    8  C   UNL     1     -12.871  14.686  67.851  1.00  0.00     1.455 C  
HETATM    9  C   UNL     1     -10.919  17.057  67.409  1.00  0.00    -0.065 C  
HETATM   10  O   UNL     1     -12.394  16.909  65.540  1.00  0.00     2.652 OA 
HETATM   11  O   UNL     1     -10.552  18.335  66.865  1.00  0.00    -0.379 OA 
HETATM   12  C   UNL     1      -9.626  16.447  67.817  1.00  0.00    -0.231 C  
HETATM   13  C   UNL     1      -9.100  16.338  69.062  1.00  0.00    -0.255 C  
HETATM   14  H   UNL     1     -10.031  18.832  67.485  1.00  0.00     0.000 HD 
HETATM   15  C   UNL     1      -7.570  15.613  69.356  1.00  0.00    -0.221 C  
HETATM   16  C   UNL     1      -9.972  16.628  70.282  1.00  0.00     0.946 C  
HETATM   17  C   UNL     1      -8.283  14.309  69.214  1.00  0.00     0.192 C  
HETATM   18  C   UNL     1     -10.328  12.177  65.746  1.00  0.00    -0.258 C  
HETATM   19  C   UNL     1     -10.082  11.477  64.248  1.00  0.00    -0.291 C  
HETATM   20  C   UNL     1      -8.806  14.087  67.700  1.00  0.00    -0.190 C  
HETATM   21  O   UNL     1     -11.475  10.947  64.347  1.00  0.00     0.239 OA 
HETATM   22  C   UNL     1     -10.453  13.205  67.927  1.00  0.00    -0.240 C  
HETATM   23  C   UNL     1      -9.216  15.813  65.259  1.00  0.00     0.656 C  
HETATM   24  C   UNL     1      -8.820  15.722  66.809  1.00  0.00    -0.299 C  
HETATM   25  O   UNL     1      -7.849  13.341  66.925  1.00  0.00    -0.396 OA 
HETATM   26  C   UNL     1     -10.781  13.543  66.535  1.00  0.00    -0.287 C  
HETATM   27  H   UNL     1      -8.156  13.211  66.036  1.00  0.00     0.000 HD 
HETATM   28  C   UNL     1      -7.574  16.694  66.567  1.00  0.00    -0.327 C  
ENDROOT
BRANCH  15  29
HETATM   29  O   UNL     1      -6.515  15.324  68.293  1.00  0.00    -0.097 OA 
BRANCH  29  30
HETATM   30  C   UNL     1      -5.804  14.146  68.235  1.00  0.00    -0.116 C  
HETATM   31  O   UNL     1      -5.152  13.818  67.252  1.00  0.00    -0.315 OA 
BRANCH  30  32
HETATM   32  C   UNL     1      -5.990  13.253  69.557  1.00  0.00    -0.107 C  
HETATM   33  O   UNL     1      -5.672  13.909  70.790  1.00  0.00    -0.161 OA 
HETATM   34  H   UNL     1      -5.782  13.381  71.572  1.00  0.00     0.000 HD 
BRANCH  32  35
HETATM   35  C   UNL     1      -5.187  11.903  69.442  1.00  0.00    -0.057 C  
BRANCH  35  36
HETATM   36  N   UNL     1      -5.528  11.034  70.600  1.00  0.00    -0.112 N  
HETATM   37  C   UNL     1      -6.631  10.275  70.505  1.00  0.00    -0.091 C  
HETATM   38  O   UNL     1      -7.478  10.362  69.695  1.00  0.00    -0.136 OA 
HETATM   39  H   UNL     1      -4.943  11.015  71.435  1.00  0.00     0.000 HD 
BRANCH  37  40
HETATM   40  O   UNL     1      -6.583   9.289  71.498  1.00  0.00    -0.208 OA 
HETATM   41  C   UNL     1      -6.679   7.923  71.063  1.00  0.00    -0.038 C  
HETATM   42  C   UNL     1      -5.516   7.570  70.116  1.00  0.00    -0.023 C  
HETATM   43  C   UNL     1      -8.051   7.629  70.439  1.00  0.00    -0.113 C  
HETATM   44  C   UNL     1      -6.529   7.075  72.337  1.00  0.00    -0.053 C  
ENDBRANCH  37  40
ENDBRANCH  35  36
BRANCH  35  45
HETATM   45  C   UNL     1      -5.185  11.064  68.153  1.00  0.00    -0.039 A  
HETATM   46  C   UNL     1      -5.147  11.568  66.846  1.00  0.00    -0.105 A  
HETATM   47  C   UNL     1      -5.280   9.321  65.889  1.00  0.00    -0.036 A  
HETATM   48  C   UNL     1      -5.282   9.654  68.280  1.00  0.00    -0.033 A  
HETATM   49  C   UNL     1      -5.188  10.703  65.728  1.00  0.00    -0.107 A  
HETATM   50  C   UNL     1      -5.331   8.795  67.171  1.00  0.00    -0.037 A  
ENDBRANCH  35  45
ENDBRANCH  32  35
ENDBRANCH  30  32
ENDBRANCH  29  30
ENDBRANCH  15  29
BRANCH  22  51
HETATM   51  O   UNL     1     -11.277  11.631  67.758  1.00  0.00    -0.230 OA 
BRANCH  51  52
HETATM   52  C   UNL     1     -11.470  10.317  68.300  1.00  0.00    -0.075 C  
HETATM   53  O   UNL     1     -11.236   9.342  67.589  1.00  0.00     0.019 OA 
BRANCH  52  54
HETATM   54  C   UNL     1     -12.182   9.908  69.777  1.00  0.00     0.224 A  
HETATM   55  C   UNL     1     -13.943   9.631  71.571  1.00  0.00    -0.113 A  
HETATM   56  C   UNL     1     -11.711   9.091  72.158  1.00  0.00    -0.366 A  
HETATM   57  C   UNL     1     -11.321   9.430  70.816  1.00  0.00    -0.363 A  
HETATM   58  C   UNL     1     -13.522   9.971  70.235  1.00  0.00     0.429 A  
HETATM   59  C   UNL     1     -13.049   9.186  72.554  1.00  0.00    -0.445 A  
ENDBRANCH  52  54
ENDBRANCH  51  52
ENDBRANCH  22  51
BRANCH  18  60
HETATM   60  O   UNL     1      -9.468  11.048  66.535  1.00  0.00    -0.180 OA 
BRANCH  60  61
HETATM   61  C   UNL     1      -8.777   9.879  66.123  1.00  0.00    -0.136 C  
HETATM   62  C   UNL     1      -8.048   9.086  67.169  1.00  0.00    -0.106 C  
HETATM   63  O   UNL     1      -8.589   9.420  64.991  1.00  0.00    -0.150 OA 
ENDBRANCH  60  61
ENDBRANCH  18  60
TORSDOF 12
ENDMDL
MODEL       59
REMARK 921   NORMALIZED FREE ENERGY PREDICTED BY IDOCK:    7.11 KCAL/MOL
REMARK 922        TOTAL FREE ENERGY PREDICTED BY IDOCK:    9.43 KCAL/MOL
REMARK 923 INTER-LIGAND FREE ENERGY PREDICTED BY IDOCK:   12.65 KCAL/MOL
REMARK 924 INTRA-LIGAND FREE ENERGY PREDICTED BY IDOCK:   -3.22 KCAL/MOL
REMARK 927      BINDING AFFINITY PREDICTED BY RF-SCORE:    0.00 PKD
ROOT
HETATM    1  C   UNL     1      -7.771   5.901  69.634  1.00  0.00    -0.096 C  
HETATM    2  C   UNL     1      -7.714   4.981  70.857  1.00  0.00    -0.083 C  
HETATM    3  C   UNL     1      -9.190   4.627  71.181  1.00  0.00    -0.139 C  
HETATM    4  O   UNL     1      -9.741   3.917  70.061  1.00  0.00    -0.201 OA 
HETATM    5  C   UNL     1      -9.927   5.930  71.557  1.00  0.00    -0.221 C  
HETATM    6  H   UNL     1     -10.644   3.700  70.259  1.00  0.00     0.000 HD 
HETATM    7  C   UNL     1     -11.522   5.601  71.647  1.00  0.00    -0.001 C  
HETATM    8  C   UNL     1      -9.690   6.135  73.093  1.00  0.00    -0.160 C  
HETATM    9  C   UNL     1     -12.596   6.643  72.133  1.00  0.00    -0.126 C  
HETATM   10  O   UNL     1     -11.940   4.442  71.487  1.00  0.00     2.604 OA 
HETATM   11  O   UNL     1     -13.921   6.223  71.772  1.00  0.00     0.130 OA 
HETATM   12  C   UNL     1     -12.480   8.015  71.573  1.00  0.00    -0.334 C  
HETATM   13  C   UNL     1     -12.562   9.202  72.222  1.00  0.00    -0.425 C  
HETATM   14  H   UNL     1     -14.570   6.852  72.066  1.00  0.00     0.000 HD 
HETATM   15  C   UNL     1     -12.422  10.709  71.410  1.00  0.00    -0.390 C  
HETATM   16  C   UNL     1     -12.526   9.235  73.750  1.00  0.00     5.323 C  
HETATM   17  C   UNL     1     -10.951  10.457  71.427  1.00  0.00     0.816 C  
HETATM   18  C   UNL     1      -8.237   7.397  69.420  1.00  0.00    -0.131 C  
HETATM   19  C   UNL     1      -7.670   6.845  67.948  1.00  0.00    -0.112 C  
HETATM   20  C   UNL     1     -10.559   9.198  70.491  1.00  0.00    -0.235 C  
HETATM   21  O   UNL     1      -6.683   6.027  68.717  1.00  0.00    -0.059 OA 
HETATM   22  C   UNL     1      -9.154   8.370  71.431  1.00  0.00    -0.186 C  
HETATM   23  C   UNL     1     -12.032   6.909  69.187  1.00  0.00     0.716 C  
HETATM   24  C   UNL     1     -12.086   8.185  70.155  1.00  0.00     0.553 C  
HETATM   25  O   UNL     1     -10.199   9.628  69.166  1.00  0.00    -0.184 OA 
HETATM   26  C   UNL     1      -9.356   7.174  70.600  1.00  0.00    -0.158 C  
HETATM   27  H   UNL     1      -9.969   8.888  68.616  1.00  0.00     0.000 HD 
HETATM   28  C   UNL     1     -13.434   8.683  69.457  1.00  0.00     4.910 C  
ENDROOT
BRANCH  15  29
HETATM   29  O   UNL     1     -12.523  10.908  69.901  1.00  0.00    -0.319 OA 
BRANCH  29  30
HETATM   30  C   UNL     1     -12.455  12.143  69.295  1.00  0.00     0.306 C  
HETATM   31  O   UNL     1     -13.352  12.578  68.584  1.00  0.00     2.645 OA 
BRANCH  30  32
HETATM   32  C   UNL     1     -11.059  12.886  69.575  1.00  0.00     0.018 C  
HETATM   33  O   UNL     1     -11.156  14.287  69.855  1.00  0.00    -0.413 OA 
HETATM   34  H   UNL     1     -10.330  14.727  70.021  1.00  0.00     0.000 HD 
BRANCH  32  35
HETATM   35  C   UNL     1     -10.045  12.642  68.395  1.00  0.00    -0.222 C  
BRANCH  35  36
HETATM   36  N   UNL     1     -10.783  12.672  67.105  1.00  0.00    -0.239 N  
HETATM   37  C   UNL     1     -10.888  11.522  66.420  1.00  0.00    -0.285 C  
HETATM   38  O   UNL     1     -10.291  10.528  66.617  1.00  0.00    -0.228 OA 
HETATM   39  H   UNL     1     -11.196  13.535  66.753  1.00  0.00     0.000 HD 
BRANCH  37  40
HETATM   40  O   UNL     1     -11.894  11.663  65.457  1.00  0.00    -0.246 OA 
HETATM   41  C   UNL     1     -11.527  12.294  64.220  1.00  0.00    -0.362 C  
HETATM   42  C   UNL     1     -10.424  11.491  63.506  1.00  0.00    -0.486 C  
HETATM   43  C   UNL     1     -11.134  13.764  64.435  1.00  0.00    -0.356 C  
HETATM   44  C   UNL     1     -12.791  12.250  63.346  1.00  0.00    -0.353 C  
ENDBRANCH  37  40
ENDBRANCH  35  36
BRANCH  35  45
HETATM   45  C   UNL     1      -8.743  13.451  68.261  1.00  0.00    -0.172 A  
HETATM   46  C   UNL     1      -8.585  14.635  67.529  1.00  0.00    -0.196 A  
HETATM   47  C   UNL     1      -6.203  14.748  68.073  1.00  0.00    -0.164 A  
HETATM   48  C   UNL     1      -7.577  12.938  68.886  1.00  0.00     0.054 A  
HETATM   49  C   UNL     1      -7.329  15.279  67.443  1.00  0.00    -0.241 A  
HETATM   50  C   UNL     1      -6.328  13.571  68.795  1.00  0.00    -0.093 A  
ENDBRANCH  35  45
ENDBRANCH  32  35
ENDBRANCH  30  32
ENDBRANCH  29  30
ENDBRANCH  15  29
BRANCH  22  51
HETATM   51  O   UNL     1      -7.392   8.094  71.431  1.00  0.00    -0.064 OA 
BRANCH  51  52
HETATM   52  C   UNL     1      -6.103   8.586  71.828  1.00  0.00    -0.058 C  
HETATM   53  O   UNL     1      -5.126   7.849  71.713  1.00  0.00    -0.034 OA 
BRANCH  52  54
HETATM   54  C   UNL     1      -5.758  10.029  72.637  1.00  0.00     0.468 A  
HETATM   55  C   UNL     1      -5.509  11.696  74.522  1.00  0.00     0.618 A  
HETATM   56  C   UNL     1      -5.127  12.490  72.321  1.00  0.00     0.136 A  
HETATM   57  C   UNL     1      -5.396  11.162  71.841  1.00  0.00     0.285 A  
HETATM   58  C   UNL     1      -5.780  10.376  74.010  1.00  0.00     0.753 A  
HETATM   59  C   UNL     1      -5.178  12.775  73.690  1.00  0.00     0.349 A  
ENDBRANCH  52  54
ENDBRANCH  51  52
ENDBRANCH  22  51
BRANCH  18  60
HETATM   60  O   UNL     1      -7.483   8.830  69.296  1.00  0.00    -0.075 OA 
BRANCH  60  61
HETATM   61  C   UNL     1      -6.857   9.517  68.223  1.00  0.00    -0.062 C  
HETATM   62  C   UNL     1      -5.366   9.686  68.269  1.00  0.00    -0.036 C  
HETATM   63  O   UNL     1      -7.352  10.100  67.253  1.00  0.00    -0.089 OA 
ENDBRANCH  60  61
ENDBRANCH  18  60
TORSDOF 12
ENDMDL
MODEL       60
REMARK 921   NORMALIZED FREE ENERGY PREDICTED BY IDOCK:    8.19 KCAL/MOL
REMARK 922        TOTAL FREE ENERGY PREDICTED BY IDOCK:   11.27 KCAL/MOL
REMARK 923 INTER-LIGAND FREE ENERGY PREDICTED BY IDOCK:    1.86 KCAL/MOL
REMARK 924 INTRA-LIGAND FREE ENERGY PREDICTED BY IDOCK:    9.40 KCAL/MOL
REMARK 927      BINDING AFFINITY PREDICTED BY RF-SCORE:    0.00 PKD
ROOT
HETATM    1  C   UNL     1      -8.953  14.991  66.382  1.00  0.00    -0.251 C  
HETATM    2  C   UNL     1      -7.929  15.625  67.328  1.00  0.00    -0.227 C  
HETATM    3  C   UNL     1      -6.805  14.568  67.495  1.00  0.00    -0.143 C  
HETATM    4  O   UNL     1      -6.206  14.339  66.210  1.00  0.00     2.327 OA 
HETATM    5  C   UNL     1      -7.414  13.319  68.166  1.00  0.00    -0.128 C  
HETATM    6  H   UNL     1      -5.518  13.692  66.312  1.00  0.00     0.000 HD 
HETATM    7  C   UNL     1      -6.307  12.123  68.109  1.00  0.00    -0.055 C  
HETATM    8  C   UNL     1      -7.336  13.575  69.711  1.00  0.00     0.614 C  
HETATM    9  C   UNL     1      -6.501  10.727  68.807  1.00  0.00    -0.048 C  
HETATM   10  O   UNL     1      -5.175  12.330  67.641  1.00  0.00    -0.074 OA 
HETATM   11  O   UNL     1      -5.564   9.763  68.301  1.00  0.00    -0.040 OA 
HETATM   12  C   UNL     1      -7.828  10.081  68.624  1.00  0.00    -0.091 C  
HETATM   13  C   UNL     1      -8.610   9.480  69.553  1.00  0.00    -0.171 C  
HETATM   14  H   UNL     1      -5.682   8.919  68.723  1.00  0.00     0.000 HD 
HETATM   15  C   UNL     1     -10.121   8.762  69.162  1.00  0.00    -0.198 C  
HETATM   16  C   UNL     1      -8.289   9.648  71.038  1.00  0.00     0.351 C  
HETATM   17  C   UNL     1     -10.660  10.154  69.169  1.00  0.00    -0.247 C  
HETATM   18  C   UNL     1     -10.001  13.818  66.544  1.00  0.00    -0.288 C  
HETATM   19  C   UNL     1     -10.188  14.435  65.001  1.00  0.00    -0.374 C  
HETATM   20  C   UNL     1     -10.045  11.027  67.955  1.00  0.00    -0.178 C  
HETATM   21  O   UNL     1      -9.833  15.770  65.570  1.00  0.00    -0.325 OA 
HETATM   22  C   UNL     1      -9.853  12.745  68.701  1.00  0.00    -0.063 C  
HETATM   23  C   UNL     1      -7.716  10.780  66.052  1.00  0.00    -0.139 C  
HETATM   24  C   UNL     1      -8.509  10.191  67.314  1.00  0.00    -0.125 C  
HETATM   25  O   UNL     1     -10.902  10.987  66.800  1.00  0.00    -0.267 OA 
HETATM   26  C   UNL     1      -8.963  13.088  67.584  1.00  0.00    -0.192 C  
HETATM   27  H   UNL     1     -10.540  11.501  66.087  1.00  0.00     0.000 HD 
HETATM   28  C   UNL     1      -8.400   8.713  66.717  1.00  0.00    -0.108 C  
ENDROOT
BRANCH  15  29
HETATM   29  O   UNL     1     -10.595   8.423  67.753  1.00  0.00    -0.229 OA 
BRANCH  29  30
HETATM   30  C   UNL     1     -10.109   7.358  67.027  1.00  0.00    -0.258 C  
HETATM   31  O   UNL     1     -10.523   7.079  65.909  1.00  0.00     0.747 OA 
BRANCH  30  32
HETATM   32  C   UNL     1      -9.012   6.513  67.841  1.00  0.00    -0.115 C  
HETATM   33  O   UNL     1      -8.408   5.435  67.117  1.00  0.00    -0.108 OA 
HETATM   34  H   UNL     1      -7.759   4.935  67.598  1.00  0.00     0.000 HD 
BRANCH  32  35
HETATM   35  C   UNL     1      -9.605   5.983  69.200  1.00  0.00    -0.132 C  
BRANCH  35  36
HETATM   36  N   UNL     1     -11.048   6.334  69.272  1.00  0.00    -0.368 N  
HETATM   37  C   UNL     1     -11.619   6.382  70.486  1.00  0.00    -0.358 C  
HETATM   38  O   UNL     1     -11.164   5.981  71.493  1.00  0.00    -0.277 OA 
HETATM   39  H   UNL     1     -11.585   6.533  68.428  1.00  0.00     0.000 HD 
BRANCH  37  40
HETATM   40  O   UNL     1     -12.836   7.065  70.383  1.00  0.00     0.029 OA 
HETATM   41  C   UNL     1     -13.003   8.226  71.214  1.00  0.00    -0.150 C  
HETATM   42  C   UNL     1     -11.937   9.288  70.885  1.00  0.00    -0.321 C  
HETATM   43  C   UNL     1     -13.014   7.851  72.703  1.00  0.00     0.203 C  
HETATM   44  C   UNL     1     -14.380   8.801  70.844  1.00  0.00     0.152 C  
ENDBRANCH  37  40
ENDBRANCH  35  36
BRANCH  35  45
HETATM   45  C   UNL     1      -9.407   4.529  69.662  1.00  0.00    -0.221 A  
HETATM   46  C   UNL     1      -9.765   3.383  68.941  1.00  0.00     0.010 A  
HETATM   47  C   UNL     1      -9.027   1.914  70.752  1.00  0.00    -0.135 A  
HETATM   48  C   UNL     1      -8.859   4.314  70.954  1.00  0.00    -0.142 A  
HETATM   49  C   UNL     1      -9.571   2.090  69.480  1.00  0.00    -0.045 A  
HETATM   50  C   UNL     1      -8.673   3.032  71.493  1.00  0.00    -0.116 A  
ENDBRANCH  35  45
ENDBRANCH  32  35
ENDBRANCH  30  32
ENDBRANCH  29  30
ENDBRANCH  15  29
BRANCH  22  51
HETATM   51  O   UNL     1     -10.526  14.397  68.697  1.00  0.00    -0.234 OA 
BRANCH  51  52
HETATM   52  C   UNL     1     -10.405  15.741  69.185  1.00  0.00    -0.240 C  
HETATM   53  O   UNL     1     -10.273  15.925  70.393  1.00  0.00    -0.121 OA 
BRANCH  52  54
HETATM   54  C   UNL     1     -10.614  17.174  68.313  1.00  0.00    -0.375 A  
HETATM   55  C   UNL     1     -10.472  19.622  67.693  1.00  0.00    -0.579 A  
HETATM   56  C   UNL     1     -11.798  18.232  66.304  1.00  0.00     3.128 A  
HETATM   57  C   UNL     1     -11.442  17.122  67.146  1.00  0.00     0.795 A  
HETATM   58  C   UNL     1     -10.138  18.492  68.524  1.00  0.00    -0.414 A  
HETATM   59  C   UNL     1     -11.306  19.514  66.571  1.00  0.00     0.320 A  
ENDBRANCH  52  54
ENDBRANCH  51  52
ENDBRANCH  22  51
BRANCH  18  60
HETATM   60  O   UNL     1     -11.599  13.734  66.821  1.00  0.00    -0.335 OA 
BRANCH  60  61
HETATM   61  C   UNL     1     -12.717  13.403  66.011  1.00  0.00    -0.167 C  
HETATM   62  C   UNL     1     -13.752  14.464  65.771  1.00  0.00     2.125 C  
HETATM   63  O   UNL     1     -13.048  12.322  65.513  1.00  0.00     0.234 OA 
ENDBRANCH  60  61
ENDBRANCH  18  60
TORSDOF 12
ENDMDL
MODEL       61
REMARK 921   NORMALIZED FREE ENERGY PREDICTED BY IDOCK:    9.86 KCAL/MOL
REMARK 922        TOTAL FREE ENERGY PREDICTED BY IDOCK:   14.11 KCAL/MOL
REMARK 923 INTER-LIGAND FREE ENERGY PREDICTED BY IDOCK:    3.18 KCAL/MOL
REMARK 924 INTRA-LIGAND FREE ENERGY PREDICTED BY IDOCK:   10.92 KCAL/MOL
REMARK 927      BINDING AFFINITY PREDICTED BY RF-SCORE:    0.00 PKD
ROOT
HETATM    1  C   UNL     1      -7.830   6.513  69.050  1.00  0.00    -0.110 C  
HETATM    2  C   UNL     1      -8.589   5.316  68.469  1.00  0.00    -0.094 C  
HETATM    3  C   UNL     1      -8.468   5.456  66.928  1.00  0.00    -0.107 C  
HETATM    4  O   UNL     1      -7.080   5.372  66.573  1.00  0.00    -0.066 OA 
HETATM    5  C   UNL     1      -9.176   6.761  66.506  1.00  0.00    -0.190 C  
HETATM    6  H   UNL     1      -7.006   5.458  65.630  1.00  0.00     0.000 HD 
HETATM    7  C   UNL     1      -8.832   7.038  64.935  1.00  0.00     0.428 C  
HETATM    8  C   UNL     1     -10.686   6.392  66.305  1.00  0.00     0.251 C  
HETATM    9  C   UNL     1      -9.474   8.206  64.099  1.00  0.00     2.177 C  
HETATM   10  O   UNL     1      -8.160   6.222  64.281  1.00  0.00    -0.123 OA 
HETATM   11  O   UNL     1      -8.738   8.437  62.888  1.00  0.00    -0.423 OA 
HETATM   12  C   UNL     1      -9.521   9.536  64.760  1.00  0.00    -0.178 C  
HETATM   13  C   UNL     1     -10.552  10.414  64.817  1.00  0.00     0.068 C  
HETATM   14  H   UNL     1      -9.126   9.143  62.383  1.00  0.00     0.000 HD 
HETATM   15  C   UNL     1     -10.429  11.931  65.616  1.00  0.00    -0.262 C  
HETATM   16  C   UNL     1     -11.951   9.972  64.389  1.00  0.00     6.765 C  
HETATM   17  C   UNL     1     -10.621  11.158  66.878  1.00  0.00    -0.304 C  
HETATM   18  C   UNL     1      -8.131   8.065  69.110  1.00  0.00    -0.119 C  
HETATM   19  C   UNL     1      -6.693   7.810  69.925  1.00  0.00    -0.042 C  
HETATM   20  C   UNL     1      -9.361  10.187  67.170  1.00  0.00    -0.153 C  
HETATM   21  O   UNL     1      -7.255   6.495  70.357  1.00  0.00    -0.075 OA 
HETATM   22  C   UNL     1     -10.151   8.656  67.928  1.00  0.00    -0.203 C  
HETATM   23  C   UNL     1      -7.023   9.115  65.594  1.00  0.00    -0.081 C  
HETATM   24  C   UNL     1      -8.381   9.965  65.602  1.00  0.00    -0.140 C  
HETATM   25  O   UNL     1      -8.399  10.830  68.026  1.00  0.00    -0.115 OA 
HETATM   26  C   UNL     1      -8.901   7.930  67.667  1.00  0.00    -0.128 C  
HETATM   27  H   UNL     1      -7.659  10.259  68.198  1.00  0.00     0.000 HD 
HETATM   28  C   UNL     1      -7.692  11.113  64.731  1.00  0.00     0.682 C  
ENDROOT
BRANCH  15  29
HETATM   29  O   UNL     1      -9.124  12.596  66.044  1.00  0.00    -0.064 OA 
BRANCH  29  30
HETATM   30  C   UNL     1      -8.886  13.037  67.326  1.00  0.00    -0.208 C  
HETATM   31  O   UNL     1      -7.826  12.838  67.905  1.00  0.00    -0.129 OA 
BRANCH  30  32
HETATM   32  C   UNL     1     -10.166  13.764  67.971  1.00  0.00    -0.248 C  
HETATM   33  O   UNL     1     -10.397  15.105  67.525  1.00  0.00    -0.238 OA 
HETATM   34  H   UNL     1     -11.154  15.535  67.905  1.00  0.00     0.000 HD 
BRANCH  32  35
HETATM   35  C   UNL     1     -10.103  13.723  69.544  1.00  0.00     0.556 C  
BRANCH  35  36
HETATM   36  N   UNL     1      -8.847  14.377  69.998  1.00  0.00     0.362 N  
HETATM   37  C   UNL     1      -8.515  15.550  69.434  1.00  0.00    -0.256 C  
HETATM   38  O   UNL     1      -8.995  16.030  68.475  1.00  0.00    -0.185 OA 
HETATM   39  H   UNL     1      -8.258  13.950  70.712  1.00  0.00     0.000 HD 
BRANCH  37  40
HETATM   40  O   UNL     1      -7.538  16.166  70.224  1.00  0.00     0.767 OA 
HETATM   41  C   UNL     1      -6.209  15.624  70.156  1.00  0.00    -0.084 C  
HETATM   42  C   UNL     1      -5.657  15.716  68.721  1.00  0.00    -0.096 C  
HETATM   43  C   UNL     1      -6.158  14.193  70.711  1.00  0.00    -0.165 C  
HETATM   44  C   UNL     1      -5.351  16.528  71.056  1.00  0.00    -0.034 C  
ENDBRANCH  37  40
ENDBRANCH  35  36
BRANCH  35  45
HETATM   45  C   UNL     1     -11.275  14.202  70.417  1.00  0.00     0.069 A  
HETATM   46  C   UNL     1     -11.171  14.996  71.567  1.00  0.00    -0.246 A  
HETATM   47  C   UNL     1     -13.586  14.903  71.946  1.00  0.00    -0.505 A  
HETATM   48  C   UNL     1     -12.581  13.766  70.070  1.00  0.00    -0.207 A  
HETATM   49  C   UNL     1     -12.317  15.347  72.318  1.00  0.00    -0.465 A  
HETATM   50  C   UNL     1     -13.717  14.107  70.819  1.00  0.00     0.185 A  
ENDBRANCH  35  45
ENDBRANCH  32  35
ENDBRANCH  30  32
ENDBRANCH  29  30
ENDBRANCH  15  29
BRANCH  22  51
HETATM   51  O   UNL     1     -10.374   7.759  69.454  1.00  0.00    -0.210 OA 
BRANCH  51  52
HETATM   52  C   UNL     1     -11.075   6.708  70.134  1.00  0.00    -0.329 C  
HETATM   53  O   UNL     1     -12.299   6.774  70.228  1.00  0.00    -0.220 OA 
BRANCH  52  54
HETATM   54  C   UNL     1     -10.407   5.434  71.022  1.00  0.00    -0.307 A  
HETATM   55  C   UNL     1      -9.492   3.141  71.569  1.00  0.00    -0.215 A  
HETATM   56  C   UNL     1      -9.741   4.661  73.371  1.00  0.00    -0.152 A  
HETATM   57  C   UNL     1     -10.229   5.631  72.429  1.00  0.00    -0.232 A  
HETATM   58  C   UNL     1      -9.992   4.132  70.648  1.00  0.00    -0.185 A  
HETATM   59  C   UNL     1      -9.357   3.386  72.942  1.00  0.00    -0.130 A  
ENDBRANCH  52  54
ENDBRANCH  51  52
ENDBRANCH  22  51
BRANCH  18  60
HETATM   60  O   UNL     1      -8.714   9.081  70.234  1.00  0.00    -0.149 OA 
BRANCH  60  61
HETATM   61  C   UNL     1      -9.960   9.187  70.905  1.00  0.00    -0.288 C  
HETATM   62  C   UNL     1     -10.970  10.158  70.364  1.00  0.00    -0.386 C  
HETATM   63  O   UNL     1     -10.351   8.659  71.951  1.00  0.00    -0.278 OA 
ENDBRANCH  60  61
ENDBRANCH  18  60
TORSDOF 12
ENDMDL
MODEL       62
REMARK 921   NORMALIZED FREE ENERGY PREDICTED BY IDOCK:   13.65 KCAL/MOL
REMARK 922        TOTAL FREE ENERGY PREDICTED BY IDOCK:   20.56 KCAL/MOL
REMARK 923 INTER-LIGAND FREE ENERGY PREDICTED BY IDOCK:    5.46 KCAL/MOL
REMARK 924 INTRA-LIGAND FREE ENERGY PREDICTED BY IDOCK:   15.10 KCAL/MOL
REMARK 927      BINDING AFFINITY PREDICTED BY RF-SCORE:    0.00 PKD
ROOT
HETATM    1  C   UNL     1      -8.155  14.865  67.230  1.00  0.00    -0.208 C  
HETATM    2  C   UNL     1      -6.672  15.085  67.538  1.00  0.00    -0.178 C  
HETATM    3  C   UNL     1      -5.946  13.812  67.026  1.00  0.00     1.140 C  
HETATM    4  O   UNL     1      -6.141  13.721  65.607  1.00  0.00     6.231 OA 
HETATM    5  C   UNL     1      -6.461  12.605  67.838  1.00  0.00    -0.113 C  
HETATM    6  H   UNL     1      -5.697  12.942  65.293  1.00  0.00     0.000 HD 
HETATM    7  C   UNL     1      -5.897  11.245  67.136  1.00  0.00    -0.082 C  
HETATM    8  C   UNL     1      -5.570  12.536  69.126  1.00  0.00    -0.072 C  
HETATM    9  C   UNL     1      -6.096   9.808  67.744  1.00  0.00    -0.051 C  
HETATM   10  O   UNL     1      -5.132  11.308  66.158  1.00  0.00    -0.121 OA 
HETATM   11  O   UNL     1      -5.829   8.792  66.764  1.00  0.00    -0.050 OA 
HETATM   12  C   UNL     1      -7.460   9.489  68.242  1.00  0.00    -0.078 C  
HETATM   13  C   UNL     1      -7.816   8.889  69.404  1.00  0.00    -0.098 C  
HETATM   14  H   UNL     1      -5.949   7.924  67.132  1.00  0.00     0.000 HD 
HETATM   15  C   UNL     1      -9.454   8.578  69.817  1.00  0.00    -0.166 C  
HETATM   16  C   UNL     1      -6.777   8.699  70.508  1.00  0.00    -0.040 C  
HETATM   17  C   UNL     1      -9.519  10.022  70.191  1.00  0.00    -0.124 C  
HETATM   18  C   UNL     1      -9.263  13.917  67.843  1.00  0.00    -0.198 C  
HETATM   19  C   UNL     1     -10.006  14.845  66.667  1.00  0.00    -0.258 C  
HETATM   20  C   UNL     1      -9.367  10.972  68.892  1.00  0.00    -0.145 C  
HETATM   21  O   UNL     1      -9.070  15.946  67.048  1.00  0.00    -0.201 OA 
HETATM   22  C   UNL     1      -8.376  12.439  69.533  1.00  0.00     1.377 C  
HETATM   23  C   UNL     1      -8.437  10.637  66.041  1.00  0.00    -0.165 C  
HETATM   24  C   UNL     1      -8.636   9.986  67.491  1.00  0.00    -0.122 C  
HETATM   25  O   UNL     1     -10.653  11.329  68.356  1.00  0.00    -0.179 OA 
HETATM   26  C   UNL     1      -8.092  12.806  68.139  1.00  0.00    -0.158 C  
HETATM   27  H   UNL     1     -10.563  11.888  67.592  1.00  0.00     0.000 HD 
HETATM   28  C   UNL     1      -9.239   8.660  66.835  1.00  0.00    -0.198 C  
ENDROOT
BRANCH  15  29
HETATM   29  O   UNL     1     -10.630   8.621  68.845  1.00  0.00    -0.209 OA 
BRANCH  29  30
HETATM   30  C   UNL     1     -10.678   7.881  67.685  1.00  0.00    -0.145 C  
HETATM   31  O   UNL     1     -11.642   7.903  66.930  1.00  0.00     1.280 OA 
BRANCH  30  32
HETATM   32  C   UNL     1      -9.377   6.960  67.491  1.00  0.00    -0.122 C  
HETATM   33  O   UNL     1      -9.154   6.486  66.158  1.00  0.00    -0.157 OA 
HETATM   34  H   UNL     1      -8.384   5.942  66.043  1.00  0.00     0.000 HD 
BRANCH  32  35
HETATM   35  C   UNL     1      -9.390   5.749  68.497  1.00  0.00    -0.121 C  
BRANCH  35  36
HETATM   36  N   UNL     1     -10.585   5.858  69.375  1.00  0.00    -0.276 N  
HETATM   37  C   UNL     1     -10.392   5.801  70.702  1.00  0.00    -0.245 C  
HETATM   38  O   UNL     1      -9.408   5.472  71.256  1.00  0.00    -0.144 OA 
HETATM   39  H   UNL     1     -11.519   5.972  68.982  1.00  0.00     0.000 HD 
BRANCH  37  40
HETATM   40  O   UNL     1     -11.541   6.277  71.344  1.00  0.00    -0.301 OA 
HETATM   41  C   UNL     1     -11.370   6.832  72.658  1.00  0.00    -0.222 C  
HETATM   42  C   UNL     1     -10.424   8.046  72.616  1.00  0.00    -0.408 C  
HETATM   43  C   UNL     1     -10.908   5.765  73.661  1.00  0.00    -0.228 C  
HETATM   44  C   UNL     1     -12.764   7.327  73.079  1.00  0.00     1.257 C  
ENDBRANCH  37  40
ENDBRANCH  35  36
BRANCH  35  45
HETATM   45  C   UNL     1      -9.233   4.294  68.021  1.00  0.00    -0.182 A  
HETATM   46  C   UNL     1      -9.639   3.789  66.779  1.00  0.00    -0.205 A  
HETATM   47  C   UNL     1      -8.924   1.527  67.375  1.00  0.00    -0.152 A  
HETATM   48  C   UNL     1      -8.675   3.357  68.929  1.00  0.00    -0.140 A  
HETATM   49  C   UNL     1      -9.480   2.421  66.460  1.00  0.00     0.154 A  
HETATM   50  C   UNL     1      -8.524   1.998  68.616  1.00  0.00    -0.086 A  
ENDBRANCH  35  45
ENDBRANCH  32  35
ENDBRANCH  30  32
ENDBRANCH  29  30
ENDBRANCH  15  29
BRANCH  22  51
HETATM   51  O   UNL     1      -8.486  14.162  69.983  1.00  0.00     0.992 OA 
BRANCH  51  52
HETATM   52  C   UNL     1      -7.815  15.428  70.048  1.00  0.00     0.248 C  
HETATM   53  O   UNL     1      -6.806  15.531  70.742  1.00  0.00     0.481 OA 
BRANCH  52  54
HETATM   54  C   UNL     1      -8.347  16.906  69.425  1.00  0.00     0.245 A  
HETATM   55  C   UNL     1      -8.279  19.212  68.388  1.00  0.00    -0.384 A  
HETATM   56  C   UNL     1     -10.389  18.423  69.127  1.00  0.00     0.034 A  
HETATM   57  C   UNL     1      -9.744  17.204  69.532  1.00  0.00     0.182 A  
HETATM   58  C   UNL     1      -7.658  17.982  68.811  1.00  0.00    -0.277 A  
HETATM   59  C   UNL     1      -9.651  19.455  68.537  1.00  0.00    -0.472 A  
ENDBRANCH  52  54
ENDBRANCH  51  52
ENDBRANCH  22  51
BRANCH  18  60
HETATM   60  O   UNL     1     -10.474  14.104  68.909  1.00  0.00    -0.242 OA 
BRANCH  60  61
HETATM   61  C   UNL     1     -11.877  13.898  68.842  1.00  0.00    -0.358 C  
HETATM   62  C   UNL     1     -12.677  14.091  70.098  1.00  0.00    -0.207 C  
HETATM   63  O   UNL     1     -12.580  13.489  67.913  1.00  0.00     0.125 OA 
ENDBRANCH  60  61
ENDBRANCH  18  60
TORSDOF 12
ENDMDL
MODEL       63
REMARK 921   NORMALIZED FREE ENERGY PREDICTED BY IDOCK:   16.87 KCAL/MOL
REMARK 922        TOTAL FREE ENERGY PREDICTED BY IDOCK:   26.04 KCAL/MOL
REMARK 923 INTER-LIGAND FREE ENERGY PREDICTED BY IDOCK:    7.30 KCAL/MOL
REMARK 924 INTRA-LIGAND FREE ENERGY PREDICTED BY IDOCK:   18.73 KCAL/MOL
REMARK 927      BINDING AFFINITY PREDICTED BY RF-SCORE:    0.00 PKD
ROOT
HETATM    1  C   UNL     1     -10.277  16.305  67.390  1.00  0.00    -0.275 C  
HETATM    2  C   UNL     1      -9.904  16.772  65.980  1.00  0.00    -0.311 C  
HETATM    3  C   UNL     1     -10.273  15.594  65.040  1.00  0.00    -0.167 C  
HETATM    4  O   UNL     1     -11.689  15.376  65.122  1.00  0.00    -0.188 OA 
HETATM    5  C   UNL     1      -9.398  14.381  65.422  1.00  0.00     0.422 C  
HETATM    6  H   UNL     1     -11.915  14.655  64.547  1.00  0.00     0.000 HD 
HETATM    7  C   UNL     1      -9.959  13.079  64.615  1.00  0.00    -0.126 C  
HETATM    8  C   UNL     1      -8.061  14.539  64.620  1.00  0.00     9.754 C  
HETATM    9  C   UNL     1      -9.252  11.674  64.637  1.00  0.00     0.136 C  
HETATM   10  O   UNL     1     -10.893  13.191  63.804  1.00  0.00    -0.330 OA 
HETATM   11  O   UNL     1     -10.132  10.646  64.156  1.00  0.00    -0.333 OA 
HETATM   12  C   UNL     1      -8.808  11.184  65.969  1.00  0.00    -0.196 C  
HETATM   13  C   UNL     1      -7.624  10.619  66.309  1.00  0.00    -0.137 C  
HETATM   14  H   UNL     1      -9.705   9.798  64.170  1.00  0.00     0.000 HD 
HETATM   15  C   UNL     1      -7.281  10.088  67.907  1.00  0.00    -0.087 C  
HETATM   16  C   UNL     1      -6.451  10.667  65.331  1.00  0.00    -0.034 C  
HETATM   17  C   UNL     1      -7.026  11.527  68.213  1.00  0.00    -0.073 C  
HETATM   18  C   UNL     1      -9.655  15.243  68.383  1.00  0.00    -0.206 C  
HETATM   19  C   UNL     1     -10.940  15.962  69.175  1.00  0.00    -0.284 C  
HETATM   20  C   UNL     1      -8.385  12.397  68.116  1.00  0.00    -0.178 C  
HETATM   21  O   UNL     1     -10.595  17.218  68.442  1.00  0.00    -0.360 OA 
HETATM   22  C   UNL     1      -7.807  14.040  67.401  1.00  0.00    -0.170 C  
HETATM   23  C   UNL     1     -11.144  12.012  66.955  1.00  0.00    -0.351 C  
HETATM   24  C   UNL     1      -9.660  11.440  67.153  1.00  0.00    -0.193 C  
HETATM   25  O   UNL     1      -9.019  12.514  69.402  1.00  0.00     0.226 OA 
HETATM   26  C   UNL     1      -9.207  14.349  67.081  1.00  0.00    -0.230 C  
HETATM   27  H   UNL     1      -9.818  13.026  69.345  1.00  0.00     0.000 HD 
HETATM   28  C   UNL     1     -10.243   9.995  67.506  1.00  0.00    -0.260 C  
ENDROOT
BRANCH  15  29
HETATM   29  O   UNL     1      -8.318   9.882  69.007  1.00  0.00    -0.114 OA 
BRANCH  29  30
HETATM   30  C   UNL     1      -8.135   9.019  70.065  1.00  0.00    -0.124 C  
HETATM   31  O   UNL     1      -7.076   8.938  70.674  1.00  0.00    -0.054 OA 
BRANCH  30  32
HETATM   32  C   UNL     1      -9.430   8.110  70.343  1.00  0.00    -0.163 C  
HETATM   33  O   UNL     1      -9.425   7.401  71.588  1.00  0.00    -0.151 OA 
HETATM   34  H   UNL     1     -10.191   6.864  71.753  1.00  0.00     0.000 HD 
BRANCH  32  35
HETATM   35  C   UNL     1      -9.680   7.108  69.155  1.00  0.00    -0.158 C  
BRANCH  35  36
HETATM   36  N   UNL     1      -8.745   7.428  68.044  1.00  0.00    -0.125 N  
HETATM   37  C   UNL     1      -8.697   6.578  67.005  1.00  0.00    -0.112 C  
HETATM   38  O   UNL     1      -9.160   5.499  66.957  1.00  0.00    -0.113 OA 
HETATM   39  H   UNL     1      -8.160   8.263  68.070  1.00  0.00     0.000 HD 
BRANCH  37  40
HETATM   40  O   UNL     1      -8.060   7.215  65.934  1.00  0.00    -0.108 OA 
HETATM   41  C   UNL     1      -6.667   6.923  65.738  1.00  0.00    -0.052 C  
HETATM   42  C   UNL     1      -6.459   5.421  65.469  1.00  0.00    -0.040 C  
HETATM   43  C   UNL     1      -5.817   7.430  66.912  1.00  0.00    -0.034 C  
HETATM   44  C   UNL     1      -6.260   7.695  64.471  1.00  0.00    -0.044 C  
ENDBRANCH  37  40
ENDBRANCH  35  36
BRANCH  35  45
HETATM   45  C   UNL     1      -9.721   5.585  69.369  1.00  0.00    -0.216 A  
HETATM   46  C   UNL     1      -9.194   4.620  68.502  1.00  0.00    -0.173 A  
HETATM   47  C   UNL     1      -9.988   2.794  69.923  1.00  0.00     0.490 A  
HETATM   48  C   UNL     1     -10.395   5.097  70.519  1.00  0.00    -0.314 A  
HETATM   49  C   UNL     1      -9.322   3.239  68.781  1.00  0.00    -0.235 A  
HETATM   50  C   UNL     1     -10.530   3.727  70.793  1.00  0.00     0.812 A  
ENDBRANCH  35  45
ENDBRANCH  32  35
ENDBRANCH  30  32
ENDBRANCH  29  30
ENDBRANCH  15  29
BRANCH  22  51
HETATM   51  O   UNL     1      -7.500  15.752  67.798  1.00  0.00    -0.126 OA 
BRANCH  51  52
HETATM   52  C   UNL     1      -6.704  16.918  67.539  1.00  0.00    -0.149 C  
HETATM   53  O   UNL     1      -5.481  16.833  67.626  1.00  0.00    -0.120 OA 
BRANCH  52  54
HETATM   54  C   UNL     1      -7.247  18.501  67.303  1.00  0.00    -0.215 A  
HETATM   55  C   UNL     1      -7.303  21.028  67.363  1.00  0.00    -0.311 A  
HETATM   56  C   UNL     1      -9.228  19.926  66.527  1.00  0.00    -0.483 A  
HETATM   57  C   UNL     1      -8.556  18.675  66.748  1.00  0.00    -0.291 A  
HETATM   58  C   UNL     1      -6.656  19.758  67.581  1.00  0.00    -0.263 A  
HETATM   59  C   UNL     1      -8.596  21.136  66.834  1.00  0.00     0.395 A  
ENDBRANCH  52  54
ENDBRANCH  51  52
ENDBRANCH  22  51
BRANCH  18  60
HETATM   60  O   UNL     1      -8.677  15.314  69.678  1.00  0.00    -0.235 OA 
BRANCH  60  61
HETATM   61  C   UNL     1      -7.863  14.361  70.342  1.00  0.00     1.358 C  
HETATM   62  C   UNL     1      -7.265  13.252  69.524  1.00  0.00     0.333 C  
HETATM   63  O   UNL     1      -7.612  14.225  71.544  1.00  0.00     2.387 OA 
ENDBRANCH  60  61
ENDBRANCH  18  60
TORSDOF 12
ENDMDL
MODEL       64
REMARK 921   NORMALIZED FREE ENERGY PREDICTED BY IDOCK:   17.02 KCAL/MOL
REMARK 922        TOTAL FREE ENERGY PREDICTED BY IDOCK:   26.29 KCAL/MOL
REMARK 923 INTER-LIGAND FREE ENERGY PREDICTED BY IDOCK:    6.19 KCAL/MOL
REMARK 924 INTRA-LIGAND FREE ENERGY PREDICTED BY IDOCK:   20.11 KCAL/MOL
REMARK 927      BINDING AFFINITY PREDICTED BY RF-SCORE:    0.00 PKD
ROOT
HETATM    1  C   UNL     1      -7.392  11.701  69.221  1.00  0.00     0.025 C  
HETATM    2  C   UNL     1      -6.762  12.035  70.577  1.00  0.00     1.157 C  
HETATM    3  C   UNL     1      -6.283  10.678  71.159  1.00  0.00     0.341 C  
HETATM    4  O   UNL     1      -5.287  10.136  70.279  1.00  0.00    -0.040 OA 
HETATM    5  C   UNL     1      -7.521   9.784  71.379  1.00  0.00     0.776 C  
HETATM    6  H   UNL     1      -4.993   9.306  70.634  1.00  0.00     0.000 HD 
HETATM    7  C   UNL     1      -7.001   8.281  71.745  1.00  0.00    -0.082 C  
HETATM    8  C   UNL     1      -8.070  10.145  72.802  1.00  0.00     6.186 C  
HETATM    9  C   UNL     1      -7.962   7.109  72.167  1.00  0.00    -0.091 C  
HETATM   10  O   UNL     1      -5.787   8.043  71.864  1.00  0.00    -0.035 OA 
HETATM   11  O   UNL     1      -7.298   5.840  72.075  1.00  0.00    -0.089 OA 
HETATM   12  C   UNL     1      -9.191   6.942  71.347  1.00  0.00    -0.156 C  
HETATM   13  C   UNL     1     -10.464   6.737  71.766  1.00  0.00    -0.228 C  
HETATM   14  H   UNL     1      -7.878   5.132  72.330  1.00  0.00     0.000 HD 
HETATM   15  C   UNL     1     -11.774   6.544  70.672  1.00  0.00    -0.374 C  
HETATM   16  C   UNL     1     -10.817   6.928  73.240  1.00  0.00    -0.321 C  
HETATM   17  C   UNL     1     -11.737   8.030  70.537  1.00  0.00    -0.080 C  
HETATM   18  C   UNL     1      -8.733  10.978  68.795  1.00  0.00    -0.145 C  
HETATM   19  C   UNL     1      -7.970  11.470  67.390  1.00  0.00    -0.143 C  
HETATM   20  C   UNL     1     -10.378   8.520  69.811  1.00  0.00    -0.212 C  
HETATM   21  O   UNL     1      -7.474  12.651  68.158  1.00  0.00    -0.102 OA 
HETATM   22  C   UNL     1      -9.964  10.132  70.691  1.00  0.00     0.325 C  
HETATM   23  C   UNL     1      -7.688   7.310  69.174  1.00  0.00    -0.108 C  
HETATM   24  C   UNL     1      -9.116   7.152  69.883  1.00  0.00    -0.141 C  
HETATM   25  O   UNL     1     -10.570   8.664  68.392  1.00  0.00    -0.325 OA 
HETATM   26  C   UNL     1      -8.607  10.041  70.136  1.00  0.00    -0.046 C  
HETATM   27  H   UNL     1      -9.770   8.952  67.966  1.00  0.00     0.000 HD 
HETATM   28  C   UNL     1      -9.268   5.675  69.292  1.00  0.00    -0.139 C  
ENDROOT
BRANCH  15  29
HETATM   29  O   UNL     1     -11.640   6.254  69.180  1.00  0.00    -0.324 OA 
BRANCH  29  30
HETATM   30  C   UNL     1     -10.560   5.599  68.632  1.00  0.00    -0.198 C  
HETATM   31  O   UNL     1      -9.995   4.672  69.199  1.00  0.00    -0.189 OA 
BRANCH  30  32
HETATM   32  C   UNL     1     -10.107   6.234  67.228  1.00  0.00    -0.163 C  
HETATM   33  O   UNL     1     -11.065   6.124  66.169  1.00  0.00    -0.555 OA 
HETATM   34  H   UNL     1     -10.797   6.500  65.338  1.00  0.00     0.000 HD 
BRANCH  32  35
HETATM   35  C   UNL     1      -8.722   5.645  66.765  1.00  0.00    -0.115 C  
BRANCH  35  36
HETATM   36  N   UNL     1      -8.566   4.274  67.320  1.00  0.00    -0.103 N  
HETATM   37  C   UNL     1      -7.328   3.756  67.362  1.00  0.00    -0.067 C  
HETATM   38  O   UNL     1      -6.371   4.176  66.824  1.00  0.00    -0.035 OA 
HETATM   39  H   UNL     1      -9.371   3.747  67.658  1.00  0.00     0.000 HD 
BRANCH  37  40
HETATM   40  O   UNL     1      -7.332   2.653  68.224  1.00  0.00    -0.048 OA 
HETATM   41  C   UNL     1      -6.738   2.838  69.519  1.00  0.00    -0.034 C  
HETATM   42  C   UNL     1      -7.473   3.942  70.303  1.00  0.00    -0.045 C  
HETATM   43  C   UNL     1      -5.229   3.105  69.410  1.00  0.00    -0.011 C  
HETATM   44  C   UNL     1      -6.946   1.507  70.260  1.00  0.00    -0.033 C  
ENDBRANCH  37  40
ENDBRANCH  35  36
BRANCH  35  45
HETATM   45  C   UNL     1      -8.287   5.654  65.289  1.00  0.00    -0.146 A  
HETATM   46  C   UNL     1      -7.861   6.776  64.566  1.00  0.00    -0.115 A  
HETATM   47  C   UNL     1      -7.607   5.460  62.520  1.00  0.00    -0.063 A  
HETATM   48  C   UNL     1      -8.368   4.434  64.568  1.00  0.00    -0.111 A  
HETATM   49  C   UNL     1      -7.519   6.676  63.198  1.00  0.00    -0.078 A  
HETATM   50  C   UNL     1      -8.037   4.335  63.208  1.00  0.00    -0.087 A  
ENDBRANCH  35  45
ENDBRANCH  32  35
ENDBRANCH  30  32
ENDBRANCH  29  30
ENDBRANCH  15  29
BRANCH  22  51
HETATM   51  O   UNL     1      -9.941  11.906  70.504  1.00  0.00     3.107 OA 
BRANCH  51  52
HETATM   52  C   UNL     1     -10.716  13.108  70.380  1.00  0.00     1.957 C  
HETATM   53  O   UNL     1     -11.826  13.155  70.906  1.00  0.00    -0.111 OA 
BRANCH  52  54
HETATM   54  C   UNL     1     -10.378  14.453  69.415  1.00  0.00    -0.047 A  
HETATM   55  C   UNL     1      -9.131  16.013  67.864  1.00  0.00    -0.187 A  
HETATM   56  C   UNL     1     -11.202  16.779  68.728  1.00  0.00    -0.148 A  
HETATM   57  C   UNL     1     -11.326  15.526  69.422  1.00  0.00    -0.321 A  
HETATM   58  C   UNL     1      -9.280  14.769  68.577  1.00  0.00    -0.194 A  
HETATM   59  C   UNL     1     -10.086  17.037  67.924  1.00  0.00    -0.306 A  
ENDBRANCH  52  54
ENDBRANCH  51  52
ENDBRANCH  22  51
BRANCH  18  60
HETATM   60  O   UNL     1     -10.198  11.473  68.301  1.00  0.00    -0.183 OA 
BRANCH  60  61
HETATM   61  C   UNL     1     -10.873  11.439  67.053  1.00  0.00    -0.282 C  
HETATM   62  C   UNL     1     -11.705  12.629  66.670  1.00  0.00    -0.464 C  
HETATM   63  O   UNL     1     -10.971  10.530  66.223  1.00  0.00    -0.063 OA 
ENDBRANCH  60  61
ENDBRANCH  18  60
TORSDOF 12
ENDMDL
MODEL       65
REMARK 921   NORMALIZED FREE ENERGY PREDICTED BY IDOCK:   18.91 KCAL/MOL
REMARK 922        TOTAL FREE ENERGY PREDICTED BY IDOCK:   29.50 KCAL/MOL
REMARK 923 INTER-LIGAND FREE ENERGY PREDICTED BY IDOCK:    2.71 KCAL/MOL
REMARK 924 INTRA-LIGAND FREE ENERGY PREDICTED BY IDOCK:   26.79 KCAL/MOL
REMARK 927      BINDING AFFINITY PREDICTED BY RF-SCORE:    0.00 PKD
ROOT
HETATM    1  C   UNL     1     -12.030  11.172  67.039  1.00  0.00     0.896 C  
HETATM    2  C   UNL     1     -11.992  11.877  65.680  1.00  0.00    -0.005 C  
HETATM    3  C   UNL     1     -10.804  11.238  64.913  1.00  0.00    -0.229 C  
HETATM    4  O   UNL     1     -11.082   9.842  64.730  1.00  0.00     1.303 OA 
HETATM    5  C   UNL     1      -9.506  11.554  65.686  1.00  0.00    -0.244 C  
HETATM    6  H   UNL     1     -10.354   9.451  64.261  1.00  0.00     0.000 HD 
HETATM    7  C   UNL     1      -8.299  10.676  65.028  1.00  0.00    -0.106 C  
HETATM    8  C   UNL     1      -9.023  12.954  65.172  1.00  0.00     1.213 C  
HETATM    9  C   UNL     1      -6.792  10.816  65.456  1.00  0.00     0.015 C  
HETATM   10  O   UNL     1      -8.505   9.964  64.031  1.00  0.00    -0.152 OA 
HETATM   11  O   UNL     1      -6.018   9.698  64.993  1.00  0.00    -0.067 OA 
HETATM   12  C   UNL     1      -6.526  10.868  66.917  1.00  0.00    -0.097 C  
HETATM   13  C   UNL     1      -5.710  11.708  67.599  1.00  0.00    -0.060 C  
HETATM   14  H   UNL     1      -5.108   9.783  65.252  1.00  0.00     0.000 HD 
HETATM   15  C   UNL     1      -5.505  11.616  69.302  1.00  0.00    -0.049 C  
HETATM   16  C   UNL     1      -5.137  12.941  66.900  1.00  0.00     0.601 C  
HETATM   17  C   UNL     1      -6.813  12.330  69.388  1.00  0.00     0.007 C  
HETATM   18  C   UNL     1     -11.101  11.227  68.318  1.00  0.00    -0.240 C  
HETATM   19  C   UNL     1     -12.367  10.194  68.674  1.00  0.00     1.546 C  
HETATM   20  C   UNL     1      -8.024  11.405  68.848  1.00  0.00    -0.085 C  
HETATM   21  O   UNL     1     -13.224  11.066  67.816  1.00  0.00     4.418 OA 
HETATM   22  C   UNL     1      -9.164  12.629  67.986  1.00  0.00    -0.208 C  
HETATM   23  C   UNL     1      -8.278   8.879  67.217  1.00  0.00    -0.104 C  
HETATM   24  C   UNL     1      -7.325  10.013  67.826  1.00  0.00    -0.089 C  
HETATM   25  O   UNL     1      -8.650  10.687  69.927  1.00  0.00    -0.353 OA 
HETATM   26  C   UNL     1      -9.821  11.493  67.326  1.00  0.00    -0.208 C  
HETATM   27  H   UNL     1      -9.361  10.143  69.609  1.00  0.00     0.000 HD 
HETATM   28  C   UNL     1      -6.277   8.905  68.304  1.00  0.00    -0.054 C  
ENDROOT
BRANCH  15  29
HETATM   29  O   UNL     1      -5.920  10.436  70.175  1.00  0.00    -0.060 OA 
BRANCH  29  30
HETATM   30  C   UNL     1      -6.683   9.386  69.715  1.00  0.00    -0.053 C  
HETATM   31  O   UNL     1      -7.521   9.519  68.832  1.00  0.00    -0.072 OA 
BRANCH  30  32
HETATM   32  C   UNL     1      -6.389   8.022  70.509  1.00  0.00    -0.036 C  
HETATM   33  O   UNL     1      -5.277   7.259  70.027  1.00  0.00    -0.022 OA 
HETATM   34  H   UNL     1      -5.103   6.452  70.497  1.00  0.00     0.000 HD 
BRANCH  32  35
HETATM   35  C   UNL     1      -7.677   7.117  70.568  1.00  0.00    -0.094 C  
BRANCH  35  36
HETATM   36  N   UNL     1      -7.347   5.766  70.039  1.00  0.00    -0.072 N  
HETATM   37  C   UNL     1      -8.258   5.162  69.260  1.00  0.00    -0.084 C  
HETATM   38  O   UNL     1      -9.378   5.486  69.106  1.00  0.00    -0.119 OA 
HETATM   39  H   UNL     1      -6.459   5.316  70.260  1.00  0.00     0.000 HD 
BRANCH  37  40
HETATM   40  O   UNL     1      -7.639   4.105  68.583  1.00  0.00    -0.059 OA 
HETATM   41  C   UNL     1      -7.635   4.166  67.147  1.00  0.00    -0.077 C  
HETATM   42  C   UNL     1      -6.892   5.423  66.658  1.00  0.00    -0.063 C  
HETATM   43  C   UNL     1      -9.059   4.070  66.579  1.00  0.00    -0.144 C  
HETATM   44  C   UNL     1      -6.841   2.933  66.686  1.00  0.00    -0.048 C  
ENDBRANCH  37  40
ENDBRANCH  35  36
BRANCH  35  45
HETATM   45  C   UNL     1      -8.514   6.975  71.851  1.00  0.00    -0.109 A  
HETATM   46  C   UNL     1      -9.224   5.833  72.246  1.00  0.00    -0.151 A  
HETATM   47  C   UNL     1     -10.084   6.960  74.239  1.00  0.00    -0.287 A  
HETATM   48  C   UNL     1      -8.631   8.111  72.694  1.00  0.00    -0.262 A  
HETATM   49  C   UNL     1      -9.995   5.827  73.431  1.00  0.00    -0.186 A  
HETATM   50  C   UNL     1      -9.402   8.108  73.866  1.00  0.00     0.222 A  
ENDBRANCH  35  45
ENDBRANCH  32  35
ENDBRANCH  30  32
ENDBRANCH  29  30
ENDBRANCH  15  29
BRANCH  22  51
HETATM   51  O   UNL     1     -10.728  13.478  68.122  1.00  0.00    -0.239 OA 
BRANCH  51  52
HETATM   52  C   UNL     1     -11.439  14.713  67.953  1.00  0.00    -0.329 C  
HETATM   53  O   UNL     1     -12.635  14.676  67.674  1.00  0.00     0.133 OA 
BRANCH  52  54
HETATM   54  C   UNL     1     -10.791  16.273  67.899  1.00  0.00    -0.330 A  
HETATM   55  C   UNL     1      -9.708  18.425  68.667  1.00  0.00    -0.387 A  
HETATM   56  C   UNL     1     -10.478  18.345  66.426  1.00  0.00    -0.412 A  
HETATM   57  C   UNL     1     -10.903  16.992  66.666  1.00  0.00     0.034 A  
HETATM   58  C   UNL     1     -10.151  17.070  68.880  1.00  0.00    -0.307 A  
HETATM   59  C   UNL     1      -9.862  19.086  67.441  1.00  0.00    -0.386 A  
ENDBRANCH  52  54
ENDBRANCH  51  52
ENDBRANCH  22  51
BRANCH  18  60
HETATM   60  O   UNL     1     -11.167  11.979  69.756  1.00  0.00    -0.166 OA 
BRANCH  60  61
HETATM   61  C   UNL     1     -12.128  12.012  70.799  1.00  0.00    -0.198 C  
HETATM   62  C   UNL     1     -12.410  13.334  71.454  1.00  0.00    -0.172 C  
HETATM   63  O   UNL     1     -12.744  11.092  71.347  1.00  0.00    -0.405 OA 
ENDBRANCH  60  61
ENDBRANCH  18  60
TORSDOF 12
ENDMDL
MODEL       66
REMARK 921   NORMALIZED FREE ENERGY PREDICTED BY IDOCK:   19.29 KCAL/MOL
REMARK 922        TOTAL FREE ENERGY PREDICTED BY IDOCK:   30.15 KCAL/MOL
REMARK 923 INTER-LIGAND FREE ENERGY PREDICTED BY IDOCK:   13.09 KCAL/MOL
REMARK 924 INTRA-LIGAND FREE ENERGY PREDICTED BY IDOCK:   17.06 KCAL/MOL
REMARK 927      BINDING AFFINITY PREDICTED BY RF-SCORE:    0.00 PKD
ROOT
HETATM    1  C   UNL     1      -5.897   9.042  69.342  1.00  0.00    -0.034 C  
HETATM    2  C   UNL     1      -5.555   7.757  68.583  1.00  0.00    -0.027 C  
HETATM    3  C   UNL     1      -6.081   7.973  67.140  1.00  0.00    -0.054 C  
HETATM    4  O   UNL     1      -5.376   9.082  66.562  1.00  0.00    -0.037 OA 
HETATM    5  C   UNL     1      -7.615   8.133  67.205  1.00  0.00    -0.097 C  
HETATM    6  H   UNL     1      -5.698   9.215  65.679  1.00  0.00     0.000 HD 
HETATM    7  C   UNL     1      -8.137   8.612  65.736  1.00  0.00    -0.114 C  
HETATM    8  C   UNL     1      -8.206   6.681  67.152  1.00  0.00    -0.113 C  
HETATM    9  C   UNL     1      -9.658   8.758  65.361  1.00  0.00     0.179 C  
HETATM   10  O   UNL     1      -7.342   8.724  64.787  1.00  0.00    -0.090 OA 
HETATM   11  O   UNL     1      -9.820   9.526  64.158  1.00  0.00    -0.369 OA 
HETATM   12  C   UNL     1     -10.516   9.451  66.358  1.00  0.00    -0.165 C  
HETATM   13  C   UNL     1     -11.740   9.091  66.813  1.00  0.00     3.762 C  
HETATM   14  H   UNL     1     -10.739   9.615  63.932  1.00  0.00     0.000 HD 
HETATM   15  C   UNL     1     -12.607  10.026  67.965  1.00  0.00     4.794 C  
HETATM   16  C   UNL     1     -12.285   7.697  66.506  1.00  0.00     7.135 C  
HETATM   17  C   UNL     1     -11.712   9.402  68.983  1.00  0.00     0.671 C  
HETATM   18  C   UNL     1      -7.252   9.665  69.868  1.00  0.00    -0.106 C  
HETATM   19  C   UNL     1      -6.021  10.690  70.347  1.00  0.00    -0.119 C  
HETATM   20  C   UNL     1     -10.182   9.890  68.799  1.00  0.00    -0.189 C  
HETATM   21  O   UNL     1      -5.162   9.476  70.488  1.00  0.00    -0.029 OA 
HETATM   22  C   UNL     1      -9.176   8.357  69.225  1.00  0.00    -0.154 C  
HETATM   23  C   UNL     1      -8.574  11.259  66.643  1.00  0.00    -0.167 C  
HETATM   24  C   UNL     1      -9.970  10.614  67.096  1.00  0.00    -0.234 C  
HETATM   25  O   UNL     1      -9.895  11.025  69.635  1.00  0.00    -0.423 OA 
HETATM   26  C   UNL     1      -8.015   8.989  68.583  1.00  0.00    -0.102 C  
HETATM   27  H   UNL     1      -8.996  11.312  69.526  1.00  0.00     0.000 HD 
HETATM   28  C   UNL     1     -10.767  11.850  66.473  1.00  0.00    -0.293 C  
ENDROOT
BRANCH  15  29
HETATM   29  O   UNL     1     -12.288  11.468  68.348  1.00  0.00    -0.461 OA 
BRANCH  29  30
HETATM   30  C   UNL     1     -11.877  12.418  67.439  1.00  0.00    -0.289 C  
HETATM   31  O   UNL     1     -12.184  12.373  66.255  1.00  0.00    -0.620 OA 
BRANCH  30  32
HETATM   32  C   UNL     1     -10.913  13.520  68.100  1.00  0.00    -0.254 C  
HETATM   33  O   UNL     1     -10.898  13.541  69.532  1.00  0.00    -0.443 OA 
HETATM   34  H   UNL     1     -10.328  14.193  69.923  1.00  0.00     0.000 HD 
BRANCH  32  35
HETATM   35  C   UNL     1     -11.238  14.957  67.544  1.00  0.00    -0.328 C  
BRANCH  35  36
HETATM   36  N   UNL     1     -10.113  15.872  67.873  1.00  0.00    -0.232 N  
HETATM   37  C   UNL     1      -9.804  16.039  69.169  1.00  0.00    -0.247 C  
HETATM   38  O   UNL     1     -10.447  15.705  70.094  1.00  0.00    -0.305 OA 
HETATM   39  H   UNL     1      -9.595  16.355  67.140  1.00  0.00     0.000 HD 
BRANCH  37  40
HETATM   40  O   UNL     1      -8.533  16.620  69.255  1.00  0.00    -0.171 OA 
HETATM   41  C   UNL     1      -7.415  15.724  69.355  1.00  0.00    -0.216 C  
HETATM   42  C   UNL     1      -7.336  14.812  68.116  1.00  0.00    -0.122 C  
HETATM   43  C   UNL     1      -7.450  14.926  70.666  1.00  0.00     0.981 C  
HETATM   44  C   UNL     1      -6.168  16.624  69.364  1.00  0.00    -0.205 C  
ENDBRANCH  37  40
ENDBRANCH  35  36
BRANCH  35  45
HETATM   45  C   UNL     1     -11.678  15.186  66.088  1.00  0.00     0.007 A  
HETATM   46  C   UNL     1     -12.401  14.283  65.297  1.00  0.00    -0.427 A  
HETATM   47  C   UNL     1     -12.314  15.781  63.365  1.00  0.00     1.986 A  
HETATM   48  C   UNL     1     -11.278  16.393  65.457  1.00  0.00     0.147 A  
HETATM   49  C   UNL     1     -12.720  14.583  63.952  1.00  0.00     0.438 A  
HETATM   50  C   UNL     1     -11.587  16.688  64.121  1.00  0.00     0.729 A  
ENDBRANCH  35  45
ENDBRANCH  32  35
ENDBRANCH  30  32
ENDBRANCH  29  30
ENDBRANCH  15  29
BRANCH  22  51
HETATM   51  O   UNL     1      -8.118   7.631  70.464  1.00  0.00    -0.102 OA 
BRANCH  51  52
HETATM   52  C   UNL     1      -7.246   6.544  70.807  1.00  0.00    -0.071 C  
HETATM   53  O   UNL     1      -6.093   6.794  71.150  1.00  0.00    -0.035 OA 
BRANCH  52  54
HETATM   54  C   UNL     1      -7.541   4.891  70.617  1.00  0.00    -0.066 A  
HETATM   55  C   UNL     1      -7.339   2.389  70.927  1.00  0.00    -0.033 A  
HETATM   56  C   UNL     1      -8.819   3.151  69.239  1.00  0.00    -0.154 A  
HETATM   57  C   UNL     1      -8.474   4.498  69.605  1.00  0.00    -0.087 A  
HETATM   58  C   UNL     1      -7.008   3.750  71.267  1.00  0.00    -0.032 A  
HETATM   59  C   UNL     1      -8.248   2.065  69.910  1.00  0.00    -0.061 A  
ENDBRANCH  52  54
ENDBRANCH  51  52
ENDBRANCH  22  51
BRANCH  18  60
HETATM   60  O   UNL     1      -8.008   9.727  71.304  1.00  0.00    -0.116 OA 
BRANCH  60  61
HETATM   61  C   UNL     1      -7.759   9.130  72.567  1.00  0.00     0.763 C  
HETATM   62  C   UNL     1      -8.904   8.453  73.264  1.00  0.00    -0.196 C  
HETATM   63  O   UNL     1      -6.742   9.139  73.268  1.00  0.00    -0.316 OA 
ENDBRANCH  60  61
ENDBRANCH  18  60
TORSDOF 12
ENDMDL
MODEL       67
REMARK 921   NORMALIZED FREE ENERGY PREDICTED BY IDOCK:   22.00 KCAL/MOL
REMARK 922        TOTAL FREE ENERGY PREDICTED BY IDOCK:   34.76 KCAL/MOL
REMARK 923 INTER-LIGAND FREE ENERGY PREDICTED BY IDOCK:   24.71 KCAL/MOL
REMARK 924 INTRA-LIGAND FREE ENERGY PREDICTED BY IDOCK:   10.06 KCAL/MOL
REMARK 927      BINDING AFFINITY PREDICTED BY RF-SCORE:    0.00 PKD
ROOT
HETATM    1  C   UNL     1     -12.188  10.180  69.295  1.00  0.00     0.419 C  
HETATM    2  C   UNL     1     -12.035   9.057  70.326  1.00  0.00     0.167 C  
HETATM    3  C   UNL     1     -10.888   9.510  71.268  1.00  0.00    -0.343 C  
HETATM    4  O   UNL     1     -11.293  10.722  71.923  1.00  0.00     1.067 OA 
HETATM    5  C   UNL     1      -9.594   9.616  70.435  1.00  0.00    -0.292 C  
HETATM    6  H   UNL     1     -10.592  10.999  72.500  1.00  0.00     0.000 HD 
HETATM    7  C   UNL     1      -8.455  10.332  71.358  1.00  0.00     3.348 C  
HETATM    8  C   UNL     1      -8.960   8.182  70.432  1.00  0.00    -0.146 C  
HETATM    9  C   UNL     1      -6.957  10.503  70.910  1.00  0.00     0.836 C  
HETATM   10  O   UNL     1      -8.694  10.630  72.540  1.00  0.00     8.123 OA 
HETATM   11  O   UNL     1      -6.280  11.466  71.732  1.00  0.00     0.491 OA 
HETATM   12  C   UNL     1      -6.738  10.987  69.521  1.00  0.00    -0.126 C  
HETATM   13  C   UNL     1      -5.869  10.521  68.591  1.00  0.00    -0.040 C  
HETATM   14  H   UNL     1      -5.375  11.569  71.461  1.00  0.00     0.000 HD 
HETATM   15  C   UNL     1      -5.733  11.216  67.026  1.00  0.00    -0.078 C  
HETATM   16  C   UNL     1      -5.156   9.189  68.820  1.00  0.00    -0.034 C  
HETATM   17  C   UNL     1      -6.968  10.445  66.696  1.00  0.00    -0.111 C  
HETATM   18  C   UNL     1     -11.303  10.665  68.078  1.00  0.00    -0.278 C  
HETATM   19  C   UNL     1     -12.674  11.621  68.101  1.00  0.00     2.140 C  
HETATM   20  C   UNL     1      -8.243  10.998  67.522  1.00  0.00    -0.117 C  
HETATM   21  O   UNL     1     -13.413  10.424  68.602  1.00  0.00     3.422 OA 
HETATM   22  C   UNL     1      -9.229   9.441  67.905  1.00  0.00    -0.129 C  
HETATM   23  C   UNL     1      -8.684  12.766  69.928  1.00  0.00     2.945 C  
HETATM   24  C   UNL     1      -7.647  12.015  68.964  1.00  0.00     0.056 C  
HETATM   25  O   UNL     1      -8.972  11.975  66.758  1.00  0.00    -0.189 OA 
HETATM   26  C   UNL     1      -9.969  10.205  68.918  1.00  0.00    -0.207 C  
HETATM   27  H   UNL     1      -9.722  12.300  67.244  1.00  0.00     0.000 HD 
HETATM   28  C   UNL     1      -6.729  13.322  68.902  1.00  0.00    -0.110 C  
ENDROOT
BRANCH  15  29
HETATM   29  O   UNL     1      -6.290  12.576  66.616  1.00  0.00     0.015 OA 
BRANCH  29  30
HETATM   30  C   UNL     1      -5.946  13.753  67.242  1.00  0.00     0.451 C  
HETATM   31  O   UNL     1      -5.233  13.787  68.236  1.00  0.00    -0.093 OA 
BRANCH  30  32
HETATM   32  C   UNL     1      -6.639  15.033  66.561  1.00  0.00     2.337 C  
HETATM   33  O   UNL     1      -5.786  16.171  66.386  1.00  0.00     0.068 OA 
HETATM   34  H   UNL     1      -6.196  16.927  65.984  1.00  0.00     0.000 HD 
BRANCH  32  35
HETATM   35  C   UNL     1      -7.941  15.451  67.343  1.00  0.00    -0.188 C  
BRANCH  35  36
HETATM   36  N   UNL     1      -7.796  16.854  67.813  1.00  0.00    -0.176 N  
HETATM   37  C   UNL     1      -8.919  17.559  68.025  1.00  0.00    -0.258 C  
HETATM   38  O   UNL     1     -10.007  17.266  67.691  1.00  0.00    -0.278 OA 
HETATM   39  H   UNL     1      -6.877  17.266  67.969  1.00  0.00     0.000 HD 
BRANCH  37  40
HETATM   40  O   UNL     1      -8.602  18.688  68.790  1.00  0.00    -0.324 OA 
HETATM   41  C   UNL     1      -8.318  19.900  68.072  1.00  0.00    -0.261 C  
HETATM   42  C   UNL     1      -9.534  20.334  67.233  1.00  0.00    -0.557 C  
HETATM   43  C   UNL     1      -7.043  19.764  67.227  1.00  0.00    -0.250 C  
HETATM   44  C   UNL     1      -8.077  20.968  69.152  1.00  0.00     2.305 C  
ENDBRANCH  37  40
ENDBRANCH  35  36
BRANCH  35  45
HETATM   45  C   UNL     1      -9.346  15.249  66.750  1.00  0.00    -0.265 A  
HETATM   46  C   UNL     1      -9.722  15.508  65.426  1.00  0.00    -0.232 A  
HETATM   47  C   UNL     1     -12.044  14.887  65.880  1.00  0.00     0.017 A  
HETATM   48  C   UNL     1     -10.376  14.811  67.623  1.00  0.00    -0.237 A  
HETATM   49  C   UNL     1     -11.057  15.322  64.996  1.00  0.00    -0.436 A  
HETATM   50  C   UNL     1     -11.702  14.634  67.199  1.00  0.00    -0.392 A  
ENDBRANCH  35  45
ENDBRANCH  32  35
ENDBRANCH  30  32
ENDBRANCH  29  30
ENDBRANCH  15  29
BRANCH  22  51
HETATM   51  O   UNL     1     -10.707   8.536  67.482  1.00  0.00    -0.248 OA 
BRANCH  51  52
HETATM   52  C   UNL     1     -11.260   7.299  67.007  1.00  0.00     0.229 C  
HETATM   53  O   UNL     1     -12.399   6.989  67.347  1.00  0.00     2.820 OA 
BRANCH  52  54
HETATM   54  C   UNL     1     -10.459   6.073  66.163  1.00  0.00     0.097 A  
HETATM   55  C   UNL     1      -9.719   3.756  65.472  1.00  0.00    -0.151 A  
HETATM   56  C   UNL     1      -8.653   5.590  64.414  1.00  0.00    -0.025 A  
HETATM   57  C   UNL     1      -9.486   6.467  65.190  1.00  0.00     0.906 A  
HETATM   58  C   UNL     1     -10.535   4.660  66.243  1.00  0.00    -0.249 A  
HETATM   59  C   UNL     1      -8.766   4.202  64.546  1.00  0.00    -0.129 A  
ENDBRANCH  52  54
ENDBRANCH  51  52
ENDBRANCH  22  51
BRANCH  18  60
HETATM   60  O   UNL     1     -11.345  10.453  66.469  1.00  0.00     0.045 OA 
BRANCH  60  61
HETATM   61  C   UNL     1     -11.480  11.339  65.368  1.00  0.00     0.215 C  
HETATM   62  C   UNL     1     -10.609  11.108  64.168  1.00  0.00    -0.436 C  
HETATM   63  O   UNL     1     -12.160  12.364  65.248  1.00  0.00    -0.429 OA 
ENDBRANCH  60  61
ENDBRANCH  18  60
TORSDOF 12
ENDMDL
MODEL       68
REMARK 921   NORMALIZED FREE ENERGY PREDICTED BY IDOCK:   23.80 KCAL/MOL
REMARK 922        TOTAL FREE ENERGY PREDICTED BY IDOCK:   37.83 KCAL/MOL
REMARK 923 INTER-LIGAND FREE ENERGY PREDICTED BY IDOCK:   26.68 KCAL/MOL
REMARK 924 INTRA-LIGAND FREE ENERGY PREDICTED BY IDOCK:   11.15 KCAL/MOL
REMARK 927      BINDING AFFINITY PREDICTED BY RF-SCORE:    0.00 PKD
ROOT
HETATM    1  C   UNL     1      -7.393   6.986  68.440  1.00  0.00    -0.100 C  
HETATM    2  C   UNL     1      -7.345   5.963  69.578  1.00  0.00    -0.075 C  
HETATM    3  C   UNL     1      -8.807   5.474  69.761  1.00  0.00    -0.119 C  
HETATM    4  O   UNL     1      -9.225   4.833  68.547  1.00  0.00    -0.112 OA 
HETATM    5  C   UNL     1      -9.667   6.679  70.196  1.00  0.00    -0.174 C  
HETATM    6  H   UNL     1     -10.119   4.534  68.658  1.00  0.00     0.000 HD 
HETATM    7  C   UNL     1     -11.234   6.229  70.140  1.00  0.00    -0.403 C  
HETATM    8  C   UNL     1      -9.549   6.757  71.758  1.00  0.00    -0.157 C  
HETATM    9  C   UNL     1     -12.416   7.141  70.636  1.00  0.00    -0.101 C  
HETATM   10  O   UNL     1     -11.548   5.063  69.849  1.00  0.00     1.992 OA 
HETATM   11  O   UNL     1     -13.678   6.662  70.145  1.00  0.00     1.511 OA 
HETATM   12  C   UNL     1     -12.372   8.564  70.209  1.00  0.00     0.633 C  
HETATM   13  C   UNL     1     -12.589   9.676  70.952  1.00  0.00    -0.299 C  
HETATM   14  H   UNL     1     -14.392   7.212  70.445  1.00  0.00     0.000 HD 
HETATM   15  C   UNL     1     -12.515  11.259  70.288  1.00  0.00    -0.250 C  
HETATM   16  C   UNL     1     -12.657   9.569  72.475  1.00  0.00    -0.136 C  
HETATM   17  C   UNL     1     -11.033  11.113  70.390  1.00  0.00     0.333 C  
HETATM   18  C   UNL     1      -7.960   8.458  68.326  1.00  0.00    -0.119 C  
HETATM   19  C   UNL     1      -7.255   8.087  66.856  1.00  0.00    -0.082 C  
HETATM   20  C   UNL     1     -10.483   9.978  69.378  1.00  0.00    -0.232 C  
HETATM   21  O   UNL     1      -6.261   7.275  67.620  1.00  0.00    -0.043 OA 
HETATM   22  C   UNL     1      -9.082   9.170  70.341  1.00  0.00    -0.233 C  
HETATM   23  C   UNL     1     -11.681   7.720  67.774  1.00  0.00     1.934 C  
HETATM   24  C   UNL     1     -11.899   8.893  68.845  1.00  0.00     1.539 C  
HETATM   25  O   UNL     1     -10.070  10.555  68.126  1.00  0.00    -0.152 OA 
HETATM   26  C   UNL     1      -9.134   8.046  69.397  1.00  0.00    -0.148 C  
HETATM   27  H   UNL     1      -9.748   9.887  67.532  1.00  0.00     0.000 HD 
HETATM   28  C   UNL     1     -13.233   9.356  68.096  1.00  0.00    10.794 C  
ENDROOT
BRANCH  15  29
HETATM   29  O   UNL     1     -12.531  11.589  68.799  1.00  0.00    -0.331 OA 
BRANCH  29  30
HETATM   30  C   UNL     1     -12.617  12.874  68.311  1.00  0.00     0.914 C  
HETATM   31  O   UNL     1     -12.720  13.119  67.115  1.00  0.00     0.050 OA 
BRANCH  30  32
HETATM   32  C   UNL     1     -12.496  13.978  69.471  1.00  0.00    -0.115 C  
HETATM   33  O   UNL     1     -13.417  15.072  69.374  1.00  0.00     0.589 OA 
HETATM   34  H   UNL     1     -13.346  15.725  70.060  1.00  0.00     0.000 HD 
BRANCH  32  35
HETATM   35  C   UNL     1     -11.023  14.524  69.577  1.00  0.00    -0.224 C  
BRANCH  35  36
HETATM   36  N   UNL     1     -10.280  14.166  68.339  1.00  0.00    -0.241 N  
HETATM   37  C   UNL     1     -10.969  14.129  67.188  1.00  0.00    -0.299 C  
HETATM   38  O   UNL     1     -12.138  14.149  67.067  1.00  0.00    -0.427 OA 
HETATM   39  H   UNL     1      -9.283  13.956  68.365  1.00  0.00     0.000 HD 
BRANCH  37  40
HETATM   40  O   UNL     1     -10.062  14.138  66.122  1.00  0.00    -0.291 OA 
HETATM   41  C   UNL     1      -9.919  15.373  65.401  1.00  0.00    -0.321 C  
HETATM   42  C   UNL     1      -9.426  16.494  66.335  1.00  0.00    -0.314 C  
HETATM   43  C   UNL     1     -11.217  15.749  64.671  1.00  0.00    -0.373 C  
HETATM   44  C   UNL     1      -8.826  15.111  64.352  1.00  0.00     6.733 C  
ENDBRANCH  37  40
ENDBRANCH  35  36
BRANCH  35  45
HETATM   45  C   UNL     1     -10.721  15.985  69.952  1.00  0.00    -0.334 A  
HETATM   46  C   UNL     1     -11.105  16.624  71.138  1.00  0.00     0.323 A  
HETATM   47  C   UNL     1     -10.131  18.745  70.406  1.00  0.00     1.564 A  
HETATM   48  C   UNL     1     -10.039  16.786  68.999  1.00  0.00    -0.283 A  
HETATM   49  C   UNL     1     -10.806  17.988  71.363  1.00  0.00     2.738 A  
HETATM   50  C   UNL     1      -9.748  18.141  69.218  1.00  0.00     0.007 A  
ENDBRANCH  35  45
ENDBRANCH  32  35
ENDBRANCH  30  32
ENDBRANCH  29  30
ENDBRANCH  15  29
BRANCH  22  51
HETATM   51  O   UNL     1      -7.307   9.024  70.446  1.00  0.00    -0.063 OA 
BRANCH  51  52
HETATM   52  C   UNL     1      -6.073   9.655  70.818  1.00  0.00    -0.086 C  
HETATM   53  O   UNL     1      -5.135   8.953  71.189  1.00  0.00    -0.028 OA 
BRANCH  52  54
HETATM   54  C   UNL     1      -5.780  11.310  71.002  1.00  0.00     0.039 A  
HETATM   55  C   UNL     1      -5.177  13.696  70.422  1.00  0.00    -0.109 A  
HETATM   56  C   UNL     1      -5.544  13.202  72.711  1.00  0.00     0.575 A  
HETATM   57  C   UNL     1      -5.824  11.845  72.330  1.00  0.00     1.766 A  
HETATM   58  C   UNL     1      -5.455  12.326  70.070  1.00  0.00    -0.111 A  
HETATM   59  C   UNL     1      -5.216  14.158  71.744  1.00  0.00    -0.193 A  
ENDBRANCH  52  54
ENDBRANCH  51  52
ENDBRANCH  22  51
BRANCH  18  60
HETATM   60  O   UNL     1      -7.314   9.946  68.383  1.00  0.00    -0.076 OA 
BRANCH  60  61
HETATM   61  C   UNL     1      -6.683  10.777  67.421  1.00  0.00    -0.076 C  
HETATM   62  C   UNL     1      -7.419  11.060  66.143  1.00  0.00    -0.076 C  
HETATM   63  O   UNL     1      -5.547  11.264  67.410  1.00  0.00    -0.046 OA 
ENDBRANCH  60  61
ENDBRANCH  18  60
TORSDOF 12
ENDMDL
MODEL       69
REMARK 921   NORMALIZED FREE ENERGY PREDICTED BY IDOCK:   31.45 KCAL/MOL
REMARK 922        TOTAL FREE ENERGY PREDICTED BY IDOCK:   50.85 KCAL/MOL
REMARK 923 INTER-LIGAND FREE ENERGY PREDICTED BY IDOCK:   10.62 KCAL/MOL
REMARK 924 INTRA-LIGAND FREE ENERGY PREDICTED BY IDOCK:   40.23 KCAL/MOL
REMARK 927      BINDING AFFINITY PREDICTED BY RF-SCORE:    0.00 PKD
ROOT
HETATM    1  C   UNL     1      -8.061   9.293  64.483  1.00  0.00    -0.139 C  
HETATM    2  C   UNL     1      -9.371   9.116  63.708  1.00  0.00     0.534 C  
HETATM    3  C   UNL     1     -10.253  10.331  64.099  1.00  0.00     0.094 C  
HETATM    4  O   UNL     1      -9.590  11.529  63.668  1.00  0.00    -0.353 OA 
HETATM    5  C   UNL     1     -10.542  10.250  65.613  1.00  0.00    -0.044 C  
HETATM    6  H   UNL     1     -10.130  12.273  63.907  1.00  0.00     0.000 HD 
HETATM    7  C   UNL     1     -11.247  11.649  66.070  1.00  0.00    -0.240 C  
HETATM    8  C   UNL     1     -11.811   9.341  65.765  1.00  0.00     6.935 C  
HETATM    9  C   UNL     1     -11.812  11.903  67.516  1.00  0.00    -0.179 C  
HETATM   10  O   UNL     1     -11.516  12.525  65.231  1.00  0.00    -0.309 OA 
HETATM   11  O   UNL     1     -12.036  13.304  67.742  1.00  0.00    -0.349 OA 
HETATM   12  C   UNL     1     -10.941  11.483  68.644  1.00  0.00    -0.270 C  
HETATM   13  C   UNL     1     -11.280  10.802  69.765  1.00  0.00    -0.365 C  
HETATM   14  H   UNL     1     -12.377  13.457  68.615  1.00  0.00     0.000 HD 
HETATM   15  C   UNL     1     -10.139  10.411  70.989  1.00  0.00     1.497 C  
HETATM   16  C   UNL     1     -12.650  10.131  69.859  1.00  0.00     0.122 C  
HETATM   17  C   UNL     1      -9.711   9.305  70.083  1.00  0.00    -0.252 C  
HETATM   18  C   UNL     1      -7.675   9.156  66.010  1.00  0.00    -0.095 C  
HETATM   19  C   UNL     1      -6.271   9.522  65.180  1.00  0.00    -0.073 C  
HETATM   20  C   UNL     1      -9.021   9.881  68.738  1.00  0.00    -0.140 C  
HETATM   21  O   UNL     1      -6.825   8.732  64.039  1.00  0.00    -0.082 OA 
HETATM   22  C   UNL     1      -9.590   8.683  67.403  1.00  0.00    -0.159 C  
HETATM   23  C   UNL     1      -8.876  12.547  67.332  1.00  0.00    -0.187 C  
HETATM   24  C   UNL     1      -9.476  11.676  68.535  1.00  0.00    -0.175 C  
HETATM   25  O   UNL     1      -7.591   9.958  68.881  1.00  0.00    -0.077 OA 
HETATM   26  C   UNL     1      -9.184   9.673  66.396  1.00  0.00    -0.205 C  
HETATM   27  H   UNL     1      -7.186  10.297  68.090  1.00  0.00     0.000 HD 
HETATM   28  C   UNL     1      -9.184  12.862  69.566  1.00  0.00     1.570 C  
ENDROOT
BRANCH  15  29
HETATM   29  O   UNL     1      -8.754  11.034  71.131  1.00  0.00     4.096 OA 
BRANCH  29  30
HETATM   30  C   UNL     1      -7.739  10.835  70.223  1.00  0.00     0.893 C  
HETATM   31  O   UNL     1      -7.072  11.755  69.768  1.00  0.00     0.065 OA 
BRANCH  30  32
HETATM   32  C   UNL     1      -7.592   9.293  69.798  1.00  0.00    -0.082 C  
HETATM   33  O   UNL     1      -8.421   8.876  68.707  1.00  0.00    -0.128 OA 
HETATM   34  H   UNL     1      -8.335   7.964  68.456  1.00  0.00     0.000 HD 
BRANCH  32  35
HETATM   35  C   UNL     1      -7.816   8.345  71.036  1.00  0.00    -0.100 C  
BRANCH  35  36
HETATM   36  N   UNL     1      -7.911   6.939  70.561  1.00  0.00    -0.103 N  
HETATM   37  C   UNL     1      -8.864   6.162  71.100  1.00  0.00    -0.139 C  
HETATM   38  O   UNL     1      -9.509   6.399  72.054  1.00  0.00    -0.152 OA 
HETATM   39  H   UNL     1      -7.274   6.578  69.851  1.00  0.00     0.000 HD 
BRANCH  37  40
HETATM   40  O   UNL     1      -9.031   5.031  70.292  1.00  0.00    -0.111 OA 
HETATM   41  C   UNL     1      -8.627   3.769  70.848  1.00  0.00    -0.072 C  
HETATM   42  C   UNL     1      -9.434   3.453  72.122  1.00  0.00    -0.192 C  
HETATM   43  C   UNL     1      -7.111   3.722  71.090  1.00  0.00    -0.033 C  
HETATM   44  C   UNL     1      -8.985   2.719  69.784  1.00  0.00    -0.168 C  
ENDBRANCH  37  40
ENDBRANCH  35  36
BRANCH  35  45
HETATM   45  C   UNL     1      -6.914   8.406  72.281  1.00  0.00    -0.106 A  
HETATM   46  C   UNL     1      -6.398   9.572  72.863  1.00  0.00     0.612 A  
HETATM   47  C   UNL     1      -5.179   8.285  74.550  1.00  0.00    -0.075 A  
HETATM   48  C   UNL     1      -6.519   7.179  72.875  1.00  0.00    -0.063 A  
HETATM   49  C   UNL     1      -5.545   9.509  73.990  1.00  0.00     0.031 A  
HETATM   50  C   UNL     1      -5.667   7.116  73.987  1.00  0.00    -0.054 A  
ENDBRANCH  35  45
ENDBRANCH  32  35
ENDBRANCH  30  32
ENDBRANCH  29  30
ENDBRANCH  15  29
BRANCH  22  51
HETATM   51  O   UNL     1      -9.052   7.355  66.339  1.00  0.00    -0.152 OA 
BRANCH  51  52
HETATM   52  C   UNL     1      -9.431   6.188  65.595  1.00  0.00     0.236 C  
HETATM   53  O   UNL     1     -10.514   5.658  65.834  1.00  0.00     0.021 OA 
BRANCH  52  54
HETATM   54  C   UNL     1      -8.475   5.298  64.523  1.00  0.00    -0.133 A  
HETATM   55  C   UNL     1      -6.992   4.757  62.548  1.00  0.00    -0.031 A  
HETATM   56  C   UNL     1      -7.709   2.938  63.888  1.00  0.00    -0.076 A  
HETATM   57  C   UNL     1      -8.408   3.881  64.718  1.00  0.00    -0.101 A  
HETATM   58  C   UNL     1      -7.708   5.678  63.394  1.00  0.00    -0.090 A  
HETATM   59  C   UNL     1      -6.978   3.374  62.778  1.00  0.00    -0.036 A  
ENDBRANCH  52  54
ENDBRANCH  51  52
ENDBRANCH  22  51
BRANCH  18  60
HETATM   60  O   UNL     1      -6.967   8.010  66.918  1.00  0.00    -0.071 OA 
BRANCH  60  61
HETATM   61  C   UNL     1      -6.534   6.685  66.658  1.00  0.00    -0.043 C  
HETATM   62  C   UNL     1      -6.920   5.613  67.636  1.00  0.00    -0.066 C  
HETATM   63  O   UNL     1      -5.790   6.247  65.774  1.00  0.00    -0.023 OA 
ENDBRANCH  60  61
ENDBRANCH  18  60
TORSDOF 12
ENDMDL
MODEL       70
REMARK 921   NORMALIZED FREE ENERGY PREDICTED BY IDOCK:   31.79 KCAL/MOL
REMARK 922        TOTAL FREE ENERGY PREDICTED BY IDOCK:   51.42 KCAL/MOL
REMARK 923 INTER-LIGAND FREE ENERGY PREDICTED BY IDOCK:   33.42 KCAL/MOL
REMARK 924 INTRA-LIGAND FREE ENERGY PREDICTED BY IDOCK:   18.01 KCAL/MOL
REMARK 927      BINDING AFFINITY PREDICTED BY RF-SCORE:    0.00 PKD
ROOT
HETATM    1  C   UNL     1     -11.832  11.771  69.296  1.00  0.00    -0.326 C  
HETATM    2  C   UNL     1     -12.685  12.872  68.660  1.00  0.00     1.128 C  
HETATM    3  C   UNL     1     -12.817  12.485  67.163  1.00  0.00     2.402 C  
HETATM    4  O   UNL     1     -13.504  11.228  67.080  1.00  0.00     7.043 OA 
HETATM    5  C   UNL     1     -11.407  12.505  66.534  1.00  0.00    -0.387 C  
HETATM    6  H   UNL     1     -13.585  10.990  66.164  1.00  0.00     0.000 HD 
HETATM    7  C   UNL     1     -11.510  11.855  65.042  1.00  0.00    -0.244 C  
HETATM    8  C   UNL     1     -11.155  13.984  66.079  1.00  0.00    -0.303 C  
HETATM    9  C   UNL     1     -10.307  11.815  64.028  1.00  0.00    -0.356 C  
HETATM   10  O   UNL     1     -12.608  11.505  64.577  1.00  0.00     0.043 OA 
HETATM   11  O   UNL     1     -10.561  10.885  62.964  1.00  0.00    -0.752 OA 
HETATM   12  C   UNL     1      -8.995  11.389  64.583  1.00  0.00     0.152 C  
HETATM   13  C   UNL     1      -7.776  11.947  64.391  1.00  0.00     2.945 C  
HETATM   14  H   UNL     1      -9.834  10.861  62.352  1.00  0.00     0.000 HD 
HETATM   15  C   UNL     1      -6.347  11.309  65.101  1.00  0.00     0.878 C  
HETATM   16  C   UNL     1      -7.666  13.324  63.738  1.00  0.00    12.513 C  
HETATM   17  C   UNL     1      -6.796  11.989  66.352  1.00  0.00     0.505 C  
HETATM   18  C   UNL     1     -10.300  11.391  69.200  1.00  0.00    -0.094 C  
HETATM   19  C   UNL     1     -11.003  10.329  70.284  1.00  0.00    -0.309 C  
HETATM   20  C   UNL     1      -8.145  11.315  66.935  1.00  0.00    -0.155 C  
HETATM   21  O   UNL     1     -11.905  11.451  70.686  1.00  0.00    -0.338 OA 
HETATM   22  C   UNL     1      -9.106  12.779  67.627  1.00  0.00    -0.193 C  
HETATM   23  C   UNL     1     -10.278   9.451  65.894  1.00  0.00    -0.123 C  
HETATM   24  C   UNL     1      -8.957  10.308  65.595  1.00  0.00    -0.198 C  
HETATM   25  O   UNL     1      -7.839  10.305  67.914  1.00  0.00    -0.099 OA 
HETATM   26  C   UNL     1     -10.305  11.930  67.650  1.00  0.00    -0.217 C  
HETATM   27  H   UNL     1      -8.632   9.909  68.256  1.00  0.00     0.000 HD 
HETATM   28  C   UNL     1      -8.317   9.080  64.797  1.00  0.00    -0.181 C  
ENDROOT
BRANCH  15  29
HETATM   29  O   UNL     1      -6.217   9.922  65.723  1.00  0.00    -0.071 OA 
BRANCH  29  30
HETATM   30  C   UNL     1      -6.965   8.839  65.317  1.00  0.00    -0.076 C  
HETATM   31  O   UNL     1      -7.400   8.729  64.177  1.00  0.00    -0.096 OA 
BRANCH  30  32
HETATM   32  C   UNL     1      -7.243   7.804  66.513  1.00  0.00    -0.086 C  
HETATM   33  O   UNL     1      -6.074   7.231  67.111  1.00  0.00    -0.038 OA 
HETATM   34  H   UNL     1      -6.239   6.619  67.819  1.00  0.00     0.000 HD 
BRANCH  32  35
HETATM   35  C   UNL     1      -8.227   6.664  66.053  1.00  0.00    -0.128 C  
BRANCH  35  36
HETATM   36  N   UNL     1      -7.551   5.348  66.204  1.00  0.00    -0.086 N  
HETATM   37  C   UNL     1      -7.952   4.346  65.406  1.00  0.00    -0.098 C  
HETATM   38  O   UNL     1      -8.918   4.324  64.735  1.00  0.00    -0.132 OA 
HETATM   39  H   UNL     1      -6.808   5.212  66.889  1.00  0.00     0.000 HD 
BRANCH  37  40
HETATM   40  O   UNL     1      -6.985   3.334  65.435  1.00  0.00    -0.051 OA 
HETATM   41  C   UNL     1      -6.953   2.433  64.317  1.00  0.00    -0.044 C  
HETATM   42  C   UNL     1      -6.668   3.198  63.010  1.00  0.00    -0.030 C  
HETATM   43  C   UNL     1      -8.237   1.594  64.235  1.00  0.00    -0.070 C  
HETATM   44  C   UNL     1      -5.769   1.489  64.585  1.00  0.00    -0.012 C  
ENDBRANCH  37  40
ENDBRANCH  35  36
BRANCH  35  45
HETATM   45  C   UNL     1      -9.666   6.566  66.589  1.00  0.00    -0.201 A  
HETATM   46  C   UNL     1     -10.834   6.617  65.816  1.00  0.00     2.147 A  
HETATM   47  C   UNL     1     -12.251   6.455  67.803  1.00  0.00     3.837 A  
HETATM   48  C   UNL     1      -9.845   6.467  67.993  1.00  0.00    -0.126 A  
HETATM   49  C   UNL     1     -12.112   6.556  66.419  1.00  0.00     3.771 A  
HETATM   50  C   UNL     1     -11.112   6.413  68.593  1.00  0.00    -0.393 A  
ENDBRANCH  35  45
ENDBRANCH  32  35
ENDBRANCH  30  32
ENDBRANCH  29  30
ENDBRANCH  15  29
BRANCH  22  51
HETATM   51  O   UNL     1      -9.619  13.576  69.138  1.00  0.00     0.181 OA 
BRANCH  51  52
HETATM   52  C   UNL     1     -10.063  14.791  69.760  1.00  0.00     0.082 C  
HETATM   53  O   UNL     1      -9.580  15.859  69.389  1.00  0.00    -0.252 OA 
BRANCH  52  54
HETATM   54  C   UNL     1     -11.060  14.946  71.116  1.00  0.00    -0.107 A  
HETATM   55  C   UNL     1     -11.879  15.680  73.393  1.00  0.00    -0.463 A  
HETATM   56  C   UNL     1     -13.195  14.083  72.236  1.00  0.00    -0.558 A  
HETATM   57  C   UNL     1     -12.250  14.150  71.155  1.00  0.00    -0.435 A  
HETATM   58  C   UNL     1     -10.943  15.720  72.297  1.00  0.00     0.510 A  
HETATM   59  C   UNL     1     -13.019  14.864  73.384  1.00  0.00    -0.597 A  
ENDBRANCH  52  54
ENDBRANCH  51  52
ENDBRANCH  22  51
BRANCH  18  60
HETATM   60  O   UNL     1      -8.993  11.644  70.130  1.00  0.00     2.108 OA 
BRANCH  60  61
HETATM   61  C   UNL     1      -7.866  10.851  70.471  1.00  0.00     1.981 C  
HETATM   62  C   UNL     1      -6.512  11.324  70.028  1.00  0.00    -0.114 C  
HETATM   63  O   UNL     1      -7.805   9.747  71.021  1.00  0.00    -0.267 OA 
ENDBRANCH  60  61
ENDBRANCH  18  60
TORSDOF 12
ENDMDL
MODEL       71
REMARK 921   NORMALIZED FREE ENERGY PREDICTED BY IDOCK:   31.90 KCAL/MOL
REMARK 922        TOTAL FREE ENERGY PREDICTED BY IDOCK:   51.61 KCAL/MOL
REMARK 923 INTER-LIGAND FREE ENERGY PREDICTED BY IDOCK:   10.17 KCAL/MOL
REMARK 924 INTRA-LIGAND FREE ENERGY PREDICTED BY IDOCK:   41.45 KCAL/MOL
REMARK 927      BINDING AFFINITY PREDICTED BY RF-SCORE:    0.00 PKD
ROOT
HETATM    1  C   UNL     1     -10.737   7.711  70.622  1.00  0.00    -0.231 C  
HETATM    2  C   UNL     1     -11.388   7.729  72.008  1.00  0.00    -0.332 C  
HETATM    3  C   UNL     1     -12.569   8.730  71.900  1.00  0.00    -0.371 C  
HETATM    4  O   UNL     1     -13.501   8.228  70.930  1.00  0.00    -0.513 OA 
HETATM    5  C   UNL     1     -11.990  10.127  71.592  1.00  0.00    -0.314 C  
HETATM    6  H   UNL     1     -14.224   8.840  70.864  1.00  0.00     0.000 HD 
HETATM    7  C   UNL     1     -13.232  11.120  71.227  1.00  0.00    -0.122 C  
HETATM    8  C   UNL     1     -11.637  10.768  72.979  1.00  0.00     7.313 C  
HETATM    9  C   UNL     1     -13.063  12.665  70.980  1.00  0.00     0.041 C  
HETATM   10  O   UNL     1     -14.405  10.717  71.292  1.00  0.00     1.292 OA 
HETATM   11  O   UNL     1     -14.223  13.213  70.333  1.00  0.00     2.443 OA 
HETATM   12  C   UNL     1     -11.930  13.070  70.107  1.00  0.00    -0.374 C  
HETATM   13  C   UNL     1     -11.029  14.064  70.299  1.00  0.00     0.331 C  
HETATM   14  H   UNL     1     -14.121  14.146  70.184  1.00  0.00     0.000 HD 
HETATM   15  C   UNL     1      -9.783  14.410  69.169  1.00  0.00    -0.002 C  
HETATM   16  C   UNL     1     -10.936  14.750  71.661  1.00  0.00     0.510 C  
HETATM   17  C   UNL     1      -9.071  13.240  69.762  1.00  0.00     2.203 C  
HETATM   18  C   UNL     1      -9.856   8.753  69.823  1.00  0.00    -0.186 C  
HETATM   19  C   UNL     1      -9.983   7.384  68.872  1.00  0.00    -0.169 C  
HETATM   20  C   UNL     1      -9.845  11.857  69.441  1.00  0.00     0.647 C  
HETATM   21  O   UNL     1      -9.992   6.592  70.139  1.00  0.00    -0.172 OA 
HETATM   22  C   UNL     1      -9.600  10.841  71.007  1.00  0.00     3.777 C  
HETATM   23  C   UNL     1     -12.592  11.071  68.468  1.00  0.00     1.164 C  
HETATM   24  C   UNL     1     -11.595  12.238  68.928  1.00  0.00    -0.367 C  
HETATM   25  O   UNL     1      -9.323  11.233  68.255  1.00  0.00    -0.166 OA 
HETATM   26  C   UNL     1     -10.688   9.961  70.559  1.00  0.00    -0.382 C  
HETATM   27  H   UNL     1      -9.779  10.420  68.067  1.00  0.00     0.000 HD 
HETATM   28  C   UNL     1     -12.057  13.145  67.696  1.00  0.00    -0.281 C  
ENDROOT
BRANCH  15  29
HETATM   29  O   UNL     1      -9.733  13.904  67.731  1.00  0.00    -0.215 OA 
BRANCH  29  30
HETATM   30  C   UNL     1     -10.854  13.751  66.945  1.00  0.00    -0.285 C  
HETATM   31  O   UNL     1     -11.669  14.649  66.778  1.00  0.00    -0.373 OA 
BRANCH  30  32
HETATM   32  C   UNL     1     -10.985  12.265  66.349  1.00  0.00    -0.287 C  
HETATM   33  O   UNL     1     -10.381  11.233  67.139  1.00  0.00    -0.195 OA 
HETATM   34  H   UNL     1     -10.459  10.354  66.787  1.00  0.00     0.000 HD 
BRANCH  32  35
HETATM   35  C   UNL     1     -10.442  12.200  64.873  1.00  0.00    -0.288 C  
BRANCH  35  36
HETATM   36  N   UNL     1      -9.694  13.451  64.574  1.00  0.00    -0.447 N  
HETATM   37  C   UNL     1     -10.267  14.616  64.915  1.00  0.00    -0.287 C  
HETATM   38  O   UNL     1     -11.384  14.782  65.242  1.00  0.00    -0.341 OA 
HETATM   39  H   UNL     1      -8.779  13.424  64.126  1.00  0.00     0.000 HD 
BRANCH  37  40
HETATM   40  O   UNL     1      -9.290  15.618  64.896  1.00  0.00     0.260 OA 
HETATM   41  C   UNL     1      -8.844  16.116  66.168  1.00  0.00    -0.332 C  
HETATM   42  C   UNL     1      -8.217  14.986  67.005  1.00  0.00    -0.246 C  
HETATM   43  C   UNL     1      -9.975  16.839  66.915  1.00  0.00    -0.274 C  
HETATM   44  C   UNL     1      -7.741  17.138  65.844  1.00  0.00    -0.011 C  
ENDBRANCH  37  40
ENDBRANCH  35  36
BRANCH  35  45
HETATM   45  C   UNL     1      -9.648  10.990  64.350  1.00  0.00    -0.301 A  
HETATM   46  C   UNL     1      -8.815  10.163  65.115  1.00  0.00    -0.207 A  
HETATM   47  C   UNL     1      -8.192   8.841  63.153  1.00  0.00    -0.182 A  
HETATM   48  C   UNL     1      -9.715  10.704  62.961  1.00  0.00    -0.362 A  
HETATM   49  C   UNL     1      -8.101   9.097  64.521  1.00  0.00    -0.139 A  
HETATM   50  C   UNL     1      -9.001   9.651  62.370  1.00  0.00    -0.282 A  
ENDBRANCH  35  45
ENDBRANCH  32  35
ENDBRANCH  30  32
ENDBRANCH  29  30
ENDBRANCH  15  29
BRANCH  22  51
HETATM   51  O   UNL     1      -8.727   9.444  71.691  1.00  0.00    -0.238 OA 
BRANCH  51  52
HETATM   52  C   UNL     1      -7.451   8.853  71.980  1.00  0.00     0.115 C  
HETATM   53  O   UNL     1      -6.755   9.348  72.864  1.00  0.00    -0.116 OA 
BRANCH  52  54
HETATM   54  C   UNL     1      -6.661   7.638  71.112  1.00  0.00    -0.038 A  
HETATM   55  C   UNL     1      -5.195   6.524  69.378  1.00  0.00    -0.013 A  
HETATM   56  C   UNL     1      -6.464   5.105  70.791  1.00  0.00    -0.027 A  
HETATM   57  C   UNL     1      -6.972   6.280  71.444  1.00  0.00    -0.076 A  
HETATM   58  C   UNL     1      -5.727   7.685  70.048  1.00  0.00    -0.023 A  
HETATM   59  C   UNL     1      -5.552   5.217  69.736  1.00  0.00    -0.012 A  
ENDBRANCH  52  54
ENDBRANCH  51  52
ENDBRANCH  22  51
BRANCH  18  60
HETATM   60  O   UNL     1      -8.268   8.936  69.537  1.00  0.00    -0.101 OA 
BRANCH  60  61
HETATM   61  C   UNL     1      -7.453  10.053  69.217  1.00  0.00    -0.103 C  
HETATM   62  C   UNL     1      -6.646   9.997  67.952  1.00  0.00    -0.063 C  
HETATM   63  O   UNL     1      -7.215  11.078  69.864  1.00  0.00    -0.081 OA 
ENDBRANCH  60  61
ENDBRANCH  18  60
TORSDOF 12
ENDMDL
MODEL       72
REMARK 921   NORMALIZED FREE ENERGY PREDICTED BY IDOCK:   34.73 KCAL/MOL
REMARK 922        TOTAL FREE ENERGY PREDICTED BY IDOCK:   56.42 KCAL/MOL
REMARK 923 INTER-LIGAND FREE ENERGY PREDICTED BY IDOCK:   39.16 KCAL/MOL
REMARK 924 INTRA-LIGAND FREE ENERGY PREDICTED BY IDOCK:   17.26 KCAL/MOL
REMARK 927      BINDING AFFINITY PREDICTED BY RF-SCORE:    0.00 PKD
ROOT
HETATM    1  C   UNL     1     -11.805  11.803  68.969  1.00  0.00    -0.317 C  
HETATM    2  C   UNL     1     -12.657  12.904  68.333  1.00  0.00     0.830 C  
HETATM    3  C   UNL     1     -12.789  12.517  66.836  1.00  0.00     2.203 C  
HETATM    4  O   UNL     1     -13.476  11.259  66.753  1.00  0.00     7.376 OA 
HETATM    5  C   UNL     1     -11.380  12.537  66.208  1.00  0.00    -0.386 C  
HETATM    6  H   UNL     1     -13.557  11.022  65.837  1.00  0.00     0.000 HD 
HETATM    7  C   UNL     1     -11.482  11.887  64.715  1.00  0.00    -0.260 C  
HETATM    8  C   UNL     1     -11.127  14.016  65.752  1.00  0.00    -0.305 C  
HETATM    9  C   UNL     1     -10.279  11.847  63.701  1.00  0.00    -0.438 C  
HETATM   10  O   UNL     1     -12.580  11.537  64.250  1.00  0.00    -0.006 OA 
HETATM   11  O   UNL     1     -10.533  10.917  62.637  1.00  0.00    -0.760 OA 
HETATM   12  C   UNL     1      -8.968  11.421  64.256  1.00  0.00     0.197 C  
HETATM   13  C   UNL     1      -7.748  11.979  64.065  1.00  0.00     3.544 C  
HETATM   14  H   UNL     1      -9.806  10.893  62.025  1.00  0.00     0.000 HD 
HETATM   15  C   UNL     1      -6.319  11.341  64.775  1.00  0.00     1.223 C  
HETATM   16  C   UNL     1      -7.638  13.356  63.411  1.00  0.00    14.216 C  
HETATM   17  C   UNL     1      -6.768  12.021  66.025  1.00  0.00     1.309 C  
HETATM   18  C   UNL     1     -10.272  11.423  68.874  1.00  0.00    -0.168 C  
HETATM   19  C   UNL     1     -10.975  10.361  69.957  1.00  0.00    -0.308 C  
HETATM   20  C   UNL     1      -8.117  11.347  66.608  1.00  0.00    -0.155 C  
HETATM   21  O   UNL     1     -11.877  11.482  70.359  1.00  0.00    -0.346 OA 
HETATM   22  C   UNL     1      -9.078  12.810  67.300  1.00  0.00    -0.200 C  
HETATM   23  C   UNL     1     -10.250   9.483  65.567  1.00  0.00     0.103 C  
HETATM   24  C   UNL     1      -8.929  10.340  65.268  1.00  0.00    -0.214 C  
HETATM   25  O   UNL     1      -7.811  10.337  67.587  1.00  0.00    -0.098 OA 
HETATM   26  C   UNL     1     -10.277  11.962  67.323  1.00  0.00    -0.220 C  
HETATM   27  H   UNL     1      -8.605   9.941  67.929  1.00  0.00     0.000 HD 
HETATM   28  C   UNL     1      -8.290   9.112  64.470  1.00  0.00    -0.175 C  
ENDROOT
BRANCH  15  29
HETATM   29  O   UNL     1      -6.190   9.954  65.396  1.00  0.00    -0.074 OA 
BRANCH  29  30
HETATM   30  C   UNL     1      -6.937   8.871  64.990  1.00  0.00    -0.073 C  
HETATM   31  O   UNL     1      -7.372   8.761  63.850  1.00  0.00    -0.094 OA 
BRANCH  30  32
HETATM   32  C   UNL     1      -7.215   7.836  66.186  1.00  0.00    -0.074 C  
HETATM   33  O   UNL     1      -6.047   7.263  66.784  1.00  0.00    -0.039 OA 
HETATM   34  H   UNL     1      -6.211   6.651  67.492  1.00  0.00     0.000 HD 
BRANCH  32  35
HETATM   35  C   UNL     1      -8.199   6.696  65.726  1.00  0.00    -0.135 C  
BRANCH  35  36
HETATM   36  N   UNL     1      -7.523   5.380  65.877  1.00  0.00    -0.081 N  
HETATM   37  C   UNL     1      -7.925   4.378  65.079  1.00  0.00    -0.097 C  
HETATM   38  O   UNL     1      -8.890   4.356  64.408  1.00  0.00    -0.137 OA 
HETATM   39  H   UNL     1      -6.780   5.244  66.563  1.00  0.00     0.000 HD 
BRANCH  37  40
HETATM   40  O   UNL     1      -6.958   3.366  65.109  1.00  0.00    -0.051 OA 
HETATM   41  C   UNL     1      -6.913   2.543  66.286  1.00  0.00    -0.045 C  
HETATM   42  C   UNL     1      -8.250   1.802  66.482  1.00  0.00    -0.084 C  
HETATM   43  C   UNL     1      -6.508   3.357  67.524  1.00  0.00    -0.037 C  
HETATM   44  C   UNL     1      -5.823   1.494  66.011  1.00  0.00    -0.018 C  
ENDBRANCH  37  40
ENDBRANCH  35  36
BRANCH  35  45
HETATM   45  C   UNL     1      -9.638   6.598  66.262  1.00  0.00    -0.092 A  
HETATM   46  C   UNL     1     -10.773   7.173  65.673  1.00  0.00     3.036 A  
HETATM   47  C   UNL     1     -12.215   6.366  67.478  1.00  0.00     3.893 A  
HETATM   48  C   UNL     1      -9.844   5.912  67.487  1.00  0.00    -0.139 A  
HETATM   49  C   UNL     1     -12.048   7.051  66.274  1.00  0.00     5.402 A  
HETATM   50  C   UNL     1     -11.107   5.797  68.087  1.00  0.00     0.022 A  
ENDBRANCH  35  45
ENDBRANCH  32  35
ENDBRANCH  30  32
ENDBRANCH  29  30
ENDBRANCH  15  29
BRANCH  22  51
HETATM   51  O   UNL     1      -9.591  13.608  68.811  1.00  0.00    -0.143 OA 
BRANCH  51  52
HETATM   52  C   UNL     1     -10.035  14.823  69.433  1.00  0.00    -0.085 C  
HETATM   53  O   UNL     1     -10.399  14.790  70.607  1.00  0.00     0.213 OA 
BRANCH  52  54
HETATM   54  C   UNL     1     -10.315  16.315  68.691  1.00  0.00    -0.263 A  
HETATM   55  C   UNL     1     -11.466  18.124  67.350  1.00  0.00     0.956 A  
HETATM   56  C   UNL     1      -9.265  18.577  68.107  1.00  0.00    -0.329 A  
HETATM   57  C   UNL     1      -9.257  17.280  68.727  1.00  0.00    -0.238 A  
HETATM   58  C   UNL     1     -11.427  16.826  67.977  1.00  0.00     0.166 A  
HETATM   59  C   UNL     1     -10.390  19.021  67.404  1.00  0.00    -0.504 A  
ENDBRANCH  52  54
ENDBRANCH  51  52
ENDBRANCH  22  51
BRANCH  18  60
HETATM   60  O   UNL     1      -8.965  11.676  69.803  1.00  0.00     1.119 OA 
BRANCH  60  61
HETATM   61  C   UNL     1      -7.839  10.883  70.144  1.00  0.00     0.938 C  
HETATM   62  C   UNL     1      -6.484  11.356  69.701  1.00  0.00    -0.133 C  
HETATM   63  O   UNL     1      -7.777   9.779  70.694  1.00  0.00    -0.270 OA 
ENDBRANCH  60  61
ENDBRANCH  18  60
TORSDOF 12
ENDMDL
MODEL       73
REMARK 921   NORMALIZED FREE ENERGY PREDICTED BY IDOCK:   35.34 KCAL/MOL
REMARK 922        TOTAL FREE ENERGY PREDICTED BY IDOCK:   57.46 KCAL/MOL
REMARK 923 INTER-LIGAND FREE ENERGY PREDICTED BY IDOCK:   52.06 KCAL/MOL
REMARK 924 INTRA-LIGAND FREE ENERGY PREDICTED BY IDOCK:    5.40 KCAL/MOL
REMARK 927      BINDING AFFINITY PREDICTED BY RF-SCORE:    0.00 PKD
ROOT
HETATM    1  C   UNL     1      -9.364   6.811  70.952  1.00  0.00    -0.157 C  
HETATM    2  C   UNL     1      -7.990   6.392  71.484  1.00  0.00    -0.105 C  
HETATM    3  C   UNL     1      -7.426   7.640  72.213  1.00  0.00    -0.078 C  
HETATM    4  O   UNL     1      -8.298   7.955  73.309  1.00  0.00    -0.155 OA 
HETATM    5  C   UNL     1      -7.247   8.766  71.173  1.00  0.00    -0.097 C  
HETATM    6  H   UNL     1      -7.953   8.719  73.756  1.00  0.00     0.000 HD 
HETATM    7  C   UNL     1      -6.902  10.145  71.973  1.00  0.00     1.877 C  
HETATM    8  C   UNL     1      -5.828   8.554  70.542  1.00  0.00    -0.027 C  
HETATM    9  C   UNL     1      -6.522  11.493  71.256  1.00  0.00     1.961 C  
HETATM   10  O   UNL     1      -6.764  10.142  73.208  1.00  0.00     1.365 OA 
HETATM   11  O   UNL     1      -6.627  12.604  72.159  1.00  0.00     2.327 OA 
HETATM   12  C   UNL     1      -7.368  11.880  70.097  1.00  0.00     1.493 C  
HETATM   13  C   UNL     1      -6.978  12.341  68.883  1.00  0.00    -0.098 C  
HETATM   14  H   UNL     1      -6.397  13.418  71.726  1.00  0.00     0.000 HD 
HETATM   15  C   UNL     1      -8.100  12.762  67.652  1.00  0.00    -0.175 C  
HETATM   16  C   UNL     1      -5.507  12.258  68.477  1.00  0.00    -0.054 C  
HETATM   17  C   UNL     1      -8.205  11.295  67.398  1.00  0.00    -0.135 C  
HETATM   18  C   UNL     1      -9.830   7.774  69.787  1.00  0.00    -0.178 C  
HETATM   19  C   UNL     1     -11.210   7.109  70.458  1.00  0.00    -0.290 C  
HETATM   20  C   UNL     1      -8.895  10.531  68.645  1.00  0.00    -0.147 C  
HETATM   21  O   UNL     1     -10.409   5.871  70.700  1.00  0.00    -0.209 OA 
HETATM   22  C   UNL     1      -7.975   8.890  68.719  1.00  0.00    -0.102 C  
HETATM   23  C   UNL     1      -9.504  11.172  71.530  1.00  0.00     8.910 C  
HETATM   24  C   UNL     1      -8.826  11.625  70.150  1.00  0.00     3.077 C  
HETATM   25  O   UNL     1     -10.313  10.394  68.449  1.00  0.00    -0.160 OA 
HETATM   26  C   UNL     1      -8.505   8.699  70.076  1.00  0.00    -0.130 C  
HETATM   27  H   UNL     1     -10.718   9.944  69.182  1.00  0.00     0.000 HD 
HETATM   28  C   UNL     1      -9.449  13.089  70.301  1.00  0.00     4.376 C  
ENDROOT
BRANCH  15  29
HETATM   29  O   UNL     1      -9.594  12.986  67.863  1.00  0.00    -0.201 OA 
BRANCH  29  30
HETATM   30  C   UNL     1     -10.383  13.697  66.987  1.00  0.00    -0.260 C  
HETATM   31  O   UNL     1      -9.991  14.041  65.879  1.00  0.00    -0.300 OA 
BRANCH  30  32
HETATM   32  C   UNL     1     -11.815  14.066  67.614  1.00  0.00    -0.395 C  
HETATM   33  O   UNL     1     -12.848  13.098  67.393  1.00  0.00     0.346 OA 
HETATM   34  H   UNL     1     -13.695  13.315  67.764  1.00  0.00     0.000 HD 
BRANCH  32  35
HETATM   35  C   UNL     1     -12.294  15.484  67.126  1.00  0.00     1.151 C  
BRANCH  35  36
HETATM   36  N   UNL     1     -12.180  16.450  68.251  1.00  0.00     0.330 N  
HETATM   37  C   UNL     1     -11.072  17.204  68.315  1.00  0.00    -0.118 C  
HETATM   38  O   UNL     1     -10.082  17.053  67.700  1.00  0.00    -0.279 OA 
HETATM   39  H   UNL     1     -12.919  16.536  68.950  1.00  0.00     0.000 HD 
BRANCH  37  40
HETATM   40  O   UNL     1     -11.305  18.270  69.192  1.00  0.00     1.614 OA 
HETATM   41  C   UNL     1     -10.152  18.985  69.667  1.00  0.00     0.378 C  
HETATM   42  C   UNL     1      -9.382  19.617  68.492  1.00  0.00    -0.412 C  
HETATM   43  C   UNL     1      -9.258  18.092  70.539  1.00  0.00     3.686 C  
HETATM   44  C   UNL     1     -10.707  20.123  70.540  1.00  0.00     1.974 C  
ENDBRANCH  37  40
ENDBRANCH  35  36
BRANCH  35  45
HETATM   45  C   UNL     1     -11.751  16.129  65.839  1.00  0.00     0.900 A  
HETATM   46  C   UNL     1     -11.748  15.543  64.566  1.00  0.00    -0.253 A  
HETATM   47  C   UNL     1     -10.605  17.474  63.593  1.00  0.00     7.912 A  
HETATM   48  C   UNL     1     -11.149  17.410  65.943  1.00  0.00     0.419 A  
HETATM   49  C   UNL     1     -11.186  16.213  63.455  1.00  0.00     2.460 A  
HETATM   50  C   UNL     1     -10.584  18.072  64.843  1.00  0.00     1.417 A  
ENDBRANCH  35  45
ENDBRANCH  32  35
ENDBRANCH  30  32
ENDBRANCH  29  30
ENDBRANCH  15  29
BRANCH  22  51
HETATM   51  O   UNL     1      -8.125   7.142  68.394  1.00  0.00    -0.121 OA 
BRANCH  51  52
HETATM   52  C   UNL     1      -7.611   6.007  67.682  1.00  0.00    -0.090 C  
HETATM   53  O   UNL     1      -6.435   6.014  67.324  1.00  0.00    -0.043 OA 
BRANCH  52  54
HETATM   54  C   UNL     1      -8.482   4.690  67.080  1.00  0.00    -0.105 A  
HETATM   55  C   UNL     1     -10.369   3.361  66.046  1.00  0.00     0.971 A  
HETATM   56  C   UNL     1      -8.503   2.140  66.852  1.00  0.00    -0.102 A  
HETATM   57  C   UNL     1      -7.904   3.389  67.233  1.00  0.00    -0.078 A  
HETATM   58  C   UNL     1      -9.746   4.598  66.446  1.00  0.00    -0.212 A  
HETATM   59  C   UNL     1      -9.761   2.113  66.240  1.00  0.00     0.552 A  
ENDBRANCH  52  54
ENDBRANCH  51  52
ENDBRANCH  22  51
BRANCH  18  60
HETATM   60  O   UNL     1     -10.341   7.566  68.260  1.00  0.00    -0.188 OA 
BRANCH  60  61
HETATM   61  C   UNL     1     -11.599   7.248  67.684  1.00  0.00     0.989 C  
HETATM   62  C   UNL     1     -11.609   6.473  66.398  1.00  0.00     1.593 C  
HETATM   63  O   UNL     1     -12.739   7.583  68.022  1.00  0.00     5.434 OA 
ENDBRANCH  60  61
ENDBRANCH  18  60
TORSDOF 12
ENDMDL
MODEL       74
REMARK 921   NORMALIZED FREE ENERGY PREDICTED BY IDOCK:   37.07 KCAL/MOL
REMARK 922        TOTAL FREE ENERGY PREDICTED BY IDOCK:   60.41 KCAL/MOL
REMARK 923 INTER-LIGAND FREE ENERGY PREDICTED BY IDOCK:   28.88 KCAL/MOL
REMARK 924 INTRA-LIGAND FREE ENERGY PREDICTED BY IDOCK:   31.53 KCAL/MOL
REMARK 927      BINDING AFFINITY PREDICTED BY RF-SCORE:    0.00 PKD
ROOT
HETATM    1  C   UNL     1      -9.357  14.879  67.564  1.00  0.00    -0.193 C  
HETATM    2  C   UNL     1      -8.541  15.373  68.762  1.00  0.00    -0.190 C  
HETATM    3  C   UNL     1      -7.378  14.358  68.921  1.00  0.00    -0.127 C  
HETATM    4  O   UNL     1      -6.574  14.402  67.733  1.00  0.00    -0.153 OA 
HETATM    5  C   UNL     1      -7.984  12.978  69.253  1.00  0.00     0.605 C  
HETATM    6  H   UNL     1      -5.862  13.781  67.830  1.00  0.00     0.000 HD 
HETATM    7  C   UNL     1      -6.792  11.868  69.168  1.00  0.00    -0.099 C  
HETATM    8  C   UNL     1      -8.163  12.944  70.810  1.00  0.00     7.097 C  
HETATM    9  C   UNL     1      -6.983  10.358  69.566  1.00  0.00    -0.102 C  
HETATM   10  O   UNL     1      -5.621  12.213  68.935  1.00  0.00    -0.050 OA 
HETATM   11  O   UNL     1      -5.909   9.551  69.059  1.00  0.00    -0.036 OA 
HETATM   12  C   UNL     1      -8.213   9.695  69.057  1.00  0.00    -0.113 C  
HETATM   13  C   UNL     1      -9.079   8.895  69.724  1.00  0.00    -0.151 C  
HETATM   14  H   UNL     1      -6.024   8.639  69.300  1.00  0.00     0.000 HD 
HETATM   15  C   UNL     1     -10.453   8.192  68.970  1.00  0.00    -0.198 C  
HETATM   16  C   UNL     1      -9.003   8.798  71.247  1.00  0.00    -0.295 C  
HETATM   17  C   UNL     1     -11.092   9.530  69.133  1.00  0.00    -0.082 C  
HETATM   18  C   UNL     1     -10.324  13.648  67.342  1.00  0.00    -0.244 C  
HETATM   19  C   UNL     1     -10.320  14.532  65.923  1.00  0.00    -0.319 C  
HETATM   20  C   UNL     1     -10.368  10.644  68.211  1.00  0.00    -0.177 C  
HETATM   21  O   UNL     1     -10.159  15.753  66.769  1.00  0.00    -0.257 OA 
HETATM   22  C   UNL     1     -10.425  12.199  69.270  1.00  0.00     0.162 C  
HETATM   23  C   UNL     1      -7.764  10.867  66.703  1.00  0.00    -0.146 C  
HETATM   24  C   UNL     1      -8.693  10.016  67.693  1.00  0.00    -0.121 C  
HETATM   25  O   UNL     1     -11.033  10.779  66.943  1.00  0.00    -0.256 OA 
HETATM   26  C   UNL     1      -9.404  12.787  68.393  1.00  0.00    -0.143 C  
HETATM   27  H   UNL     1     -10.607  11.433  66.401  1.00  0.00     0.000 HD 
HETATM   28  C   UNL     1      -8.381   8.682  66.871  1.00  0.00    -0.108 C  
ENDROOT
BRANCH  15  29
HETATM   29  O   UNL     1     -10.679   8.100  67.464  1.00  0.00    -0.242 OA 
BRANCH  29  30
HETATM   30  C   UNL     1      -9.664   7.884  66.559  1.00  0.00    -0.209 C  
HETATM   31  O   UNL     1      -8.979   8.794  66.109  1.00  0.00    -0.160 OA 
BRANCH  30  32
HETATM   32  C   UNL     1      -9.544   6.341  66.130  1.00  0.00    -0.015 C  
HETATM   33  O   UNL     1     -10.250   5.416  66.965  1.00  0.00    -0.184 OA 
HETATM   34  H   UNL     1     -10.179   4.504  66.711  1.00  0.00     0.000 HD 
BRANCH  32  35
HETATM   35  C   UNL     1      -8.036   5.908  66.002  1.00  0.00    -0.108 C  
BRANCH  35  36
HETATM   36  N   UNL     1      -7.526   5.518  67.343  1.00  0.00    -0.083 N  
HETATM   37  C   UNL     1      -6.203   5.601  67.556  1.00  0.00    -0.030 C  
HETATM   38  O   UNL     1      -5.368   5.755  66.743  1.00  0.00    -0.008 OA 
HETATM   39  H   UNL     1      -8.160   5.198  68.076  1.00  0.00     0.000 HD 
BRANCH  37  40
HETATM   40  O   UNL     1      -5.967   5.551  68.935  1.00  0.00    -0.021 OA 
HETATM   41  C   UNL     1      -6.837   4.714  69.714  1.00  0.00    -0.044 C  
HETATM   42  C   UNL     1      -6.736   3.248  69.254  1.00  0.00    -0.037 C  
HETATM   43  C   UNL     1      -8.281   5.235  69.694  1.00  0.00    -0.095 C  
HETATM   44  C   UNL     1      -6.306   4.800  71.155  1.00  0.00    -0.019 C  
ENDBRANCH  37  40
ENDBRANCH  35  36
BRANCH  35  45
HETATM   45  C   UNL     1      -7.570   4.879  64.956  1.00  0.00    -0.077 A  
HETATM   46  C   UNL     1      -6.869   5.167  63.778  1.00  0.00    -0.046 A  
HETATM   47  C   UNL     1      -6.879   2.816  63.103  1.00  0.00    -0.028 A  
HETATM   48  C   UNL     1      -7.920   3.520  65.164  1.00  0.00    -0.086 A  
HETATM   49  C   UNL     1      -6.522   4.144  62.866  1.00  0.00    -0.022 A  
HETATM   50  C   UNL     1      -7.584   2.505  64.256  1.00  0.00    -0.071 A  
ENDBRANCH  35  45
ENDBRANCH  32  35
ENDBRANCH  30  32
ENDBRANCH  29  30
ENDBRANCH  15  29
BRANCH  22  51
HETATM   51  O   UNL     1     -11.214  13.789  69.447  1.00  0.00    -0.249 OA 
BRANCH  51  52
HETATM   52  C   UNL     1     -11.625  14.829  70.347  1.00  0.00    -0.279 C  
HETATM   53  O   UNL     1     -12.777  14.825  70.773  1.00  0.00    -0.326 OA 
BRANCH  52  54
HETATM   54  C   UNL     1     -10.763  16.219  70.773  1.00  0.00     0.216 A  
HETATM   55  C   UNL     1      -9.932  18.174  72.145  1.00  0.00     6.778 A  
HETATM   56  C   UNL     1      -9.206  18.052  69.891  1.00  0.00     1.427 A  
HETATM   57  C   UNL     1      -9.962  16.836  69.758  1.00  0.00     0.181 A  
HETATM   58  C   UNL     1     -10.686  16.956  71.980  1.00  0.00     2.537 A  
HETATM   59  C   UNL     1      -9.180  18.742  71.108  1.00  0.00     5.089 A  
ENDBRANCH  52  54
ENDBRANCH  51  52
ENDBRANCH  22  51
BRANCH  18  60
HETATM   60  O   UNL     1     -11.934  13.438  67.334  1.00  0.00    -0.365 OA 
BRANCH  60  61
HETATM   61  C   UNL     1     -12.774  12.301  67.462  1.00  0.00     2.203 C  
HETATM   62  C   UNL     1     -12.160  11.026  67.964  1.00  0.00     0.229 C  
HETATM   63  O   UNL     1     -13.956  12.142  67.141  1.00  0.00     8.722 OA 
ENDBRANCH  60  61
ENDBRANCH  18  60
TORSDOF 12
ENDMDL
MODEL       75
REMARK 921   NORMALIZED FREE ENERGY PREDICTED BY IDOCK:   44.15 KCAL/MOL
REMARK 922        TOTAL FREE ENERGY PREDICTED BY IDOCK:   72.46 KCAL/MOL
REMARK 923 INTER-LIGAND FREE ENERGY PREDICTED BY IDOCK:   34.00 KCAL/MOL
REMARK 924 INTRA-LIGAND FREE ENERGY PREDICTED BY IDOCK:   38.45 KCAL/MOL
REMARK 927      BINDING AFFINITY PREDICTED BY RF-SCORE:    0.00 PKD
ROOT
HETATM    1  C   UNL     1      -5.947   9.437  69.332  1.00  0.00    -0.034 C  
HETATM    2  C   UNL     1      -5.218   8.172  68.870  1.00  0.00    -0.024 C  
HETATM    3  C   UNL     1      -5.625   7.975  67.386  1.00  0.00    -0.038 C  
HETATM    4  O   UNL     1      -5.160   9.107  66.635  1.00  0.00    -0.036 OA 
HETATM    5  C   UNL     1      -7.148   7.733  67.332  1.00  0.00    -0.086 C  
HETATM    6  H   UNL     1      -5.409   8.987  65.727  1.00  0.00     0.000 HD 
HETATM    7  C   UNL     1      -7.613   7.781  65.769  1.00  0.00    -0.084 C  
HETATM    8  C   UNL     1      -7.351   6.192  67.541  1.00  0.00    -0.077 C  
HETATM    9  C   UNL     1      -9.074   7.450  65.288  1.00  0.00     0.421 C  
HETATM   10  O   UNL     1      -6.775   7.926  64.863  1.00  0.00    -0.050 OA 
HETATM   11  O   UNL     1      -9.293   7.916  63.948  1.00  0.00     0.917 OA 
HETATM   12  C   UNL     1     -10.178   8.060  66.075  1.00  0.00     0.564 C  
HETATM   13  C   UNL     1     -11.316   7.478  66.524  1.00  0.00     1.841 C  
HETATM   14  H   UNL     1     -10.176   7.716  63.657  1.00  0.00     0.000 HD 
HETATM   15  C   UNL     1     -12.506   8.344  67.412  1.00  0.00     8.753 C  
HETATM   16  C   UNL     1     -11.461   5.958  66.476  1.00  0.00     0.678 C  
HETATM   17  C   UNL     1     -11.598   8.174  68.584  1.00  0.00     1.334 C  
HETATM   18  C   UNL     1      -7.463   9.764  69.645  1.00  0.00    -0.113 C  
HETATM   19  C   UNL     1      -6.583  11.148  69.973  1.00  0.00    -0.104 C  
HETATM   20  C   UNL     1     -10.226   9.008  68.390  1.00  0.00    -0.201 C  
HETATM   21  O   UNL     1      -5.470  10.250  70.405  1.00  0.00    -0.046 OA 
HETATM   22  C   UNL     1      -8.922   7.899  69.174  1.00  0.00    -0.145 C  
HETATM   23  C   UNL     1      -8.789  10.337  66.094  1.00  0.00    -0.166 C  
HETATM   24  C   UNL     1     -10.020   9.440  66.590  1.00  0.00    -0.326 C  
HETATM   25  O   UNL     1     -10.321  10.310  68.993  1.00  0.00    -0.187 OA 
HETATM   26  C   UNL     1      -7.893   8.688  68.482  1.00  0.00    -0.108 C  
HETATM   27  H   UNL     1      -9.514  10.800  68.878  1.00  0.00     0.000 HD 
HETATM   28  C   UNL     1     -11.028  10.287  65.686  1.00  0.00     0.435 C  
ENDROOT
BRANCH  15  29
HETATM   29  O   UNL     1     -12.597   9.863  67.511  1.00  0.00     4.253 OA 
BRANCH  29  30
HETATM   30  C   UNL     1     -11.813  10.718  66.769  1.00  0.00     1.360 C  
HETATM   31  O   UNL     1     -11.735  10.647  65.549  1.00  0.00     0.795 OA 
BRANCH  30  32
HETATM   32  C   UNL     1     -10.984  11.742  67.688  1.00  0.00    -0.233 C  
HETATM   33  O   UNL     1     -11.047  11.490  69.096  1.00  0.00    -0.233 OA 
HETATM   34  H   UNL     1     -10.557  12.095  69.640  1.00  0.00     0.000 HD 
BRANCH  32  35
HETATM   35  C   UNL     1     -11.402  13.230  67.388  1.00  0.00    -0.303 C  
BRANCH  35  36
HETATM   36  N   UNL     1     -10.398  14.148  67.989  1.00  0.00    -0.227 N  
HETATM   37  C   UNL     1     -10.805  14.953  68.983  1.00  0.00    -0.245 C  
HETATM   38  O   UNL     1     -11.915  15.167  69.305  1.00  0.00    -0.312 OA 
HETATM   39  H   UNL     1      -9.434  14.164  67.657  1.00  0.00     0.000 HD 
BRANCH  37  40
HETATM   40  O   UNL     1      -9.678  15.455  69.644  1.00  0.00    -0.266 OA 
HETATM   41  C   UNL     1      -8.624  15.985  68.823  1.00  0.00    -0.223 C  
HETATM   42  C   UNL     1      -9.135  17.170  67.982  1.00  0.00    -0.240 C  
HETATM   43  C   UNL     1      -7.981  14.889  67.960  1.00  0.00    -0.132 C  
HETATM   44  C   UNL     1      -7.567  16.517  69.805  1.00  0.00     0.498 C  
ENDBRANCH  37  40
ENDBRANCH  35  36
BRANCH  35  45
HETATM   45  C   UNL     1     -11.749  13.708  65.967  1.00  0.00    -0.383 A  
HETATM   46  C   UNL     1     -10.913  13.622  64.846  1.00  0.00    -0.372 A  
HETATM   47  C   UNL     1     -12.564  14.742  63.430  1.00  0.00     1.190 A  
HETATM   48  C   UNL     1     -13.004  14.341  65.769  1.00  0.00    -0.149 A  
HETATM   49  C   UNL     1     -11.322  14.129  63.590  1.00  0.00     0.634 A  
HETATM   50  C   UNL     1     -13.407  14.851  64.526  1.00  0.00     1.569 A  
ENDBRANCH  35  45
ENDBRANCH  32  35
ENDBRANCH  30  32
ENDBRANCH  29  30
ENDBRANCH  15  29
BRANCH  22  51
HETATM   51  O   UNL     1      -7.855   7.716  70.592  1.00  0.00    -0.094 OA 
BRANCH  51  52
HETATM   52  C   UNL     1      -7.737   7.793  72.020  1.00  0.00    -0.089 C  
HETATM   53  O   UNL     1      -8.175   6.869  72.702  1.00  0.00    -0.109 OA 
BRANCH  52  54
HETATM   54  C   UNL     1      -7.228   9.117  72.939  1.00  0.00     0.624 A  
HETATM   55  C   UNL     1      -7.317  11.085  74.525  1.00  0.00     5.923 A  
HETATM   56  C   UNL     1      -5.265  10.694  73.404  1.00  0.00     0.419 A  
HETATM   57  C   UNL     1      -5.876   9.557  72.771  1.00  0.00     0.226 A  
HETATM   58  C   UNL     1      -7.906   9.944  73.870  1.00  0.00     4.151 A  
HETATM   59  C   UNL     1      -5.991  11.480  74.306  1.00  0.00     1.856 A  
ENDBRANCH  52  54
ENDBRANCH  51  52
ENDBRANCH  22  51
BRANCH  18  60
HETATM   60  O   UNL     1      -8.359   9.883  70.994  1.00  0.00    -0.020 OA 
BRANCH  60  61
HETATM   61  C   UNL     1      -9.756   9.933  71.239  1.00  0.00     0.933 C  
HETATM   62  C   UNL     1     -10.337   8.945  72.208  1.00  0.00    -0.204 C  
HETATM   63  O   UNL     1     -10.634  10.623  70.712  1.00  0.00     0.288 OA 
ENDBRANCH  60  61
ENDBRANCH  18  60
TORSDOF 12
ENDMDL
MODEL       76
REMARK 921   NORMALIZED FREE ENERGY PREDICTED BY IDOCK:   45.36 KCAL/MOL
REMARK 922        TOTAL FREE ENERGY PREDICTED BY IDOCK:   74.51 KCAL/MOL
REMARK 923 INTER-LIGAND FREE ENERGY PREDICTED BY IDOCK:   36.28 KCAL/MOL
REMARK 924 INTRA-LIGAND FREE ENERGY PREDICTED BY IDOCK:   38.23 KCAL/MOL
REMARK 927      BINDING AFFINITY PREDICTED BY RF-SCORE:    0.00 PKD
ROOT
HETATM    1  C   UNL     1      -5.952   9.439  69.330  1.00  0.00    -0.034 C  
HETATM    2  C   UNL     1      -5.247   8.164  68.857  1.00  0.00    -0.024 C  
HETATM    3  C   UNL     1      -5.659   7.987  67.372  1.00  0.00    -0.038 C  
HETATM    4  O   UNL     1      -5.174   9.117  66.630  1.00  0.00    -0.037 OA 
HETATM    5  C   UNL     1      -7.186   7.773  67.318  1.00  0.00    -0.090 C  
HETATM    6  H   UNL     1      -5.426   9.009  65.721  1.00  0.00     0.000 HD 
HETATM    7  C   UNL     1      -7.652   7.843  65.756  1.00  0.00    -0.083 C  
HETATM    8  C   UNL     1      -7.417   6.235  67.515  1.00  0.00    -0.088 C  
HETATM    9  C   UNL     1      -9.119   7.543  65.274  1.00  0.00     0.406 C  
HETATM   10  O   UNL     1      -6.813   7.980  64.850  1.00  0.00    -0.057 OA 
HETATM   11  O   UNL     1      -9.331   8.024  63.938  1.00  0.00     0.799 OA 
HETATM   12  C   UNL     1     -10.211   8.167  66.067  1.00  0.00     0.510 C  
HETATM   13  C   UNL     1     -11.360   7.603  66.513  1.00  0.00     1.994 C  
HETATM   14  H   UNL     1     -10.218   7.843  63.647  1.00  0.00     0.000 HD 
HETATM   15  C   UNL     1     -12.532   8.483  67.409  1.00  0.00     8.848 C  
HETATM   16  C   UNL     1     -11.533   6.086  66.452  1.00  0.00     0.824 C  
HETATM   17  C   UNL     1     -11.626   8.286  68.579  1.00  0.00     1.416 C  
HETATM   18  C   UNL     1      -7.461   9.791  69.647  1.00  0.00    -0.113 C  
HETATM   19  C   UNL     1      -6.556  11.155  69.986  1.00  0.00    -0.104 C  
HETATM   20  C   UNL     1     -10.239   9.096  68.390  1.00  0.00    -0.200 C  
HETATM   21  O   UNL     1      -5.459  10.234  70.409  1.00  0.00    -0.046 OA 
HETATM   22  C   UNL     1      -8.955   7.958  69.163  1.00  0.00    -0.145 C  
HETATM   23  C   UNL     1      -8.780  10.418  66.103  1.00  0.00    -0.163 C  
HETATM   24  C   UNL     1     -10.027   9.539  66.593  1.00  0.00    -0.314 C  
HETATM   25  O   UNL     1     -10.309  10.396  69.004  1.00  0.00    -0.189 OA 
HETATM   26  C   UNL     1      -7.912   8.733  68.477  1.00  0.00    -0.112 C  
HETATM   27  H   UNL     1      -9.494  10.871  68.892  1.00  0.00     0.000 HD 
HETATM   28  C   UNL     1     -11.020  10.413  65.697  1.00  0.00     0.305 C  
ENDROOT
BRANCH  15  29
HETATM   29  O   UNL     1     -12.595  10.003  67.521  1.00  0.00     3.884 OA 
BRANCH  29  30
HETATM   30  C   UNL     1     -11.794  10.849  66.786  1.00  0.00     1.150 C  
HETATM   31  O   UNL     1     -11.718  10.787  65.565  1.00  0.00     0.595 OA 
BRANCH  30  32
HETATM   32  C   UNL     1     -10.946  11.848  67.713  1.00  0.00    -0.228 C  
HETATM   33  O   UNL     1     -11.013  11.584  69.120  1.00  0.00    -0.220 OA 
HETATM   34  H   UNL     1     -10.511  12.175  69.669  1.00  0.00     0.000 HD 
BRANCH  32  35
HETATM   35  C   UNL     1     -11.337  13.347  67.429  1.00  0.00    -0.309 C  
BRANCH  35  36
HETATM   36  N   UNL     1     -12.040  13.901  68.616  1.00  0.00    -0.458 N  
HETATM   37  C   UNL     1     -12.728  15.043  68.457  1.00  0.00     0.847 C  
HETATM   38  O   UNL     1     -12.678  15.772  67.536  1.00  0.00     1.533 OA 
HETATM   39  H   UNL     1     -12.001  13.430  69.520  1.00  0.00     0.000 HD 
BRANCH  37  40
HETATM   40  O   UNL     1     -13.592  15.201  69.546  1.00  0.00     1.213 OA 
HETATM   41  C   UNL     1     -13.158  14.661  70.805  1.00  0.00    -0.323 C  
HETATM   42  C   UNL     1     -11.844  15.325  71.258  1.00  0.00    -0.416 C  
HETATM   43  C   UNL     1     -13.050  13.129  70.750  1.00  0.00     0.042 C  
HETATM   44  C   UNL     1     -14.256  15.038  71.814  1.00  0.00    -0.649 C  
ENDBRANCH  37  40
ENDBRANCH  35  36
BRANCH  35  45
HETATM   45  C   UNL     1     -10.310  14.372  66.915  1.00  0.00    -0.265 A  
HETATM   46  C   UNL     1     -10.605  15.546  66.210  1.00  0.00    -0.310 A  
HETATM   47  C   UNL     1      -8.233  16.096  65.975  1.00  0.00     0.066 A  
HETATM   48  C   UNL     1      -8.934  14.092  67.123  1.00  0.00    -0.241 A  
HETATM   49  C   UNL     1      -9.575  16.400  65.751  1.00  0.00    -0.227 A  
HETATM   50  C   UNL     1      -7.912  14.934  66.661  1.00  0.00     0.235 A  
ENDBRANCH  35  45
ENDBRANCH  32  35
ENDBRANCH  30  32
ENDBRANCH  29  30
ENDBRANCH  15  29
BRANCH  22  51
HETATM   51  O   UNL     1      -7.890   7.743  70.578  1.00  0.00    -0.093 OA 
BRANCH  51  52
HETATM   52  C   UNL     1      -7.769   7.807  72.007  1.00  0.00    -0.089 C  
HETATM   53  O   UNL     1      -8.219   6.884  72.682  1.00  0.00    -0.109 OA 
BRANCH  52  54
HETATM   54  C   UNL     1      -7.240   9.116  72.936  1.00  0.00     0.624 A  
HETATM   55  C   UNL     1      -7.298  11.072  74.537  1.00  0.00     5.923 A  
HETATM   56  C   UNL     1      -5.253  10.660  73.411  1.00  0.00     0.419 A  
HETATM   57  C   UNL     1      -5.882   9.537  72.770  1.00  0.00     0.226 A  
HETATM   58  C   UNL     1      -7.904   9.944  73.874  1.00  0.00     4.151 A  
HETATM   59  C   UNL     1      -5.966  11.449  74.320  1.00  0.00     1.806 A  
ENDBRANCH  52  54
ENDBRANCH  51  52
ENDBRANCH  22  51
BRANCH  18  60
HETATM   60  O   UNL     1      -8.354   9.915  70.998  1.00  0.00    -0.020 OA 
BRANCH  60  61
HETATM   61  C   UNL     1      -9.706  10.263  71.249  1.00  0.00     2.321 C  
HETATM   62  C   UNL     1     -10.542   9.308  72.052  1.00  0.00    -0.014 C  
HETATM   63  O   UNL     1     -10.375  11.216  70.836  1.00  0.00     1.949 OA 
ENDBRANCH  60  61
ENDBRANCH  18  60
TORSDOF 12
ENDMDL
MODEL       77
REMARK 921   NORMALIZED FREE ENERGY PREDICTED BY IDOCK:   56.60 KCAL/MOL
REMARK 922        TOTAL FREE ENERGY PREDICTED BY IDOCK:   93.64 KCAL/MOL
REMARK 923 INTER-LIGAND FREE ENERGY PREDICTED BY IDOCK:   34.19 KCAL/MOL
REMARK 924 INTRA-LIGAND FREE ENERGY PREDICTED BY IDOCK:   59.45 KCAL/MOL
REMARK 927      BINDING AFFINITY PREDICTED BY RF-SCORE:    0.00 PKD
ROOT
HETATM    1  C   UNL     1     -11.317   8.589  69.696  1.00  0.00     0.210 C  
HETATM    2  C   UNL     1     -12.173   8.408  70.953  1.00  0.00    -0.106 C  
HETATM    3  C   UNL     1     -13.080   9.666  71.024  1.00  0.00    -0.241 C  
HETATM    4  O   UNL     1     -13.920   9.683  69.860  1.00  0.00     0.412 OA 
HETATM    5  C   UNL     1     -12.174  10.903  71.197  1.00  0.00    -0.441 C  
HETATM    6  H   UNL     1     -14.475  10.452  69.903  1.00  0.00     0.000 HD 
HETATM    7  C   UNL     1     -13.098  12.236  71.015  1.00  0.00     0.067 C  
HETATM    8  C   UNL     1     -11.932  11.052  72.739  1.00  0.00     4.660 C  
HETATM    9  C   UNL     1     -12.567  13.698  71.249  1.00  0.00    -0.351 C  
HETATM   10  O   UNL     1     -14.324  12.137  70.840  1.00  0.00     3.073 OA 
HETATM   11  O   UNL     1     -13.459  14.667  70.677  1.00  0.00    -0.547 OA 
HETATM   12  C   UNL     1     -11.244  14.019  70.652  1.00  0.00     0.329 C  
HETATM   13  C   UNL     1     -10.199  14.670  71.216  1.00  0.00     1.931 C  
HETATM   14  H   UNL     1     -13.138  15.551  70.818  1.00  0.00     0.000 HD 
HETATM   15  C   UNL     1      -8.735  14.975  70.369  1.00  0.00     1.164 C  
HETATM   16  C   UNL     1     -10.192  14.933  72.722  1.00  0.00     4.021 C  
HETATM   17  C   UNL     1      -8.397  13.551  70.663  1.00  0.00     5.015 C  
HETATM   18  C   UNL     1     -10.114   9.548  69.329  1.00  0.00    -0.198 C  
HETATM   19  C   UNL     1     -10.367   8.550  68.012  1.00  0.00    -0.217 C  
HETATM   20  C   UNL     1      -9.382  12.539  69.875  1.00  0.00     2.899 C  
HETATM   21  O   UNL     1     -10.756   7.485  68.985  1.00  0.00    -0.207 OA 
HETATM   22  C   UNL     1      -9.624  11.123  71.092  1.00  0.00     6.241 C  
HETATM   23  C   UNL     1     -12.030  12.747  68.442  1.00  0.00    -0.275 C  
HETATM   24  C   UNL     1     -10.900  13.466  69.322  1.00  0.00    -0.085 C  
HETATM   25  O   UNL     1      -8.813  12.134  68.617  1.00  0.00    -0.344 OA 
HETATM   26  C   UNL     1     -10.783  10.691  70.299  1.00  0.00    -0.063 C  
HETATM   27  H   UNL     1      -9.393  11.540  68.155  1.00  0.00     0.000 HD 
HETATM   28  C   UNL     1     -10.946  14.748  68.368  1.00  0.00    -0.259 C  
ENDROOT
BRANCH  15  29
HETATM   29  O   UNL     1      -8.554  14.864  68.859  1.00  0.00    -0.169 OA 
BRANCH  29  30
HETATM   30  C   UNL     1      -9.530  15.217  67.953  1.00  0.00    -0.194 C  
HETATM   31  O   UNL     1      -9.870  16.378  67.771  1.00  0.00    -0.233 OA 
BRANCH  30  32
HETATM   32  C   UNL     1     -10.191  13.939  67.238  1.00  0.00    -0.249 C  
HETATM   33  O   UNL     1      -9.785  12.668  67.758  1.00  0.00    -0.195 OA 
HETATM   34  H   UNL     1     -10.177  11.912  67.336  1.00  0.00     0.000 HD 
BRANCH  32  35
HETATM   35  C   UNL     1      -9.959  13.983  65.681  1.00  0.00    -0.286 C  
BRANCH  35  36
HETATM   36  N   UNL     1      -8.578  13.521  65.382  1.00  0.00     1.399 N  
HETATM   37  C   UNL     1      -7.604  13.871  66.237  1.00  0.00     2.387 C  
HETATM   38  O   UNL     1      -7.675  14.673  67.094  1.00  0.00    -0.193 OA 
HETATM   39  H   UNL     1      -8.378  12.957  64.556  1.00  0.00     0.000 HD 
BRANCH  37  40
HETATM   40  O   UNL     1      -6.486  13.064  65.998  1.00  0.00     2.533 OA 
HETATM   41  C   UNL     1      -6.499  11.747  66.574  1.00  0.00     0.098 C  
HETATM   42  C   UNL     1      -7.686  10.928  66.032  1.00  0.00    -0.107 C  
HETATM   43  C   UNL     1      -6.482  11.807  68.109  1.00  0.00    -0.051 C  
HETATM   44  C   UNL     1      -5.200  11.077  66.097  1.00  0.00    -0.130 C  
ENDBRANCH  37  40
ENDBRANCH  35  36
BRANCH  35  45
HETATM   45  C   UNL     1     -10.944  13.332  64.694  1.00  0.00    -0.384 A  
HETATM   46  C   UNL     1     -12.139  12.685  65.034  1.00  0.00    -0.497 A  
HETATM   47  C   UNL     1     -12.586  12.111  62.698  1.00  0.00     0.963 A  
HETATM   48  C   UNL     1     -10.600  13.335  63.317  1.00  0.00     1.285 A  
HETATM   49  C   UNL     1     -12.953  12.087  64.044  1.00  0.00    -0.251 A  
HETATM   50  C   UNL     1     -11.402  12.735  62.335  1.00  0.00     3.310 A  
ENDBRANCH  35  45
ENDBRANCH  32  35
ENDBRANCH  30  32
ENDBRANCH  29  30
ENDBRANCH  15  29
BRANCH  22  51
HETATM   51  O   UNL     1      -9.194   9.423  71.423  1.00  0.00    -0.277 OA 
BRANCH  51  52
HETATM   52  C   UNL     1      -8.230   8.375  71.245  1.00  0.00    -0.134 C  
HETATM   53  O   UNL     1      -7.372   8.205  72.108  1.00  0.00    -0.086 OA 
BRANCH  52  54
HETATM   54  C   UNL     1      -7.987   7.425  69.868  1.00  0.00    -0.121 A  
HETATM   55  C   UNL     1      -7.683   6.796  67.438  1.00  0.00    -0.110 A  
HETATM   56  C   UNL     1      -7.833   5.021  69.002  1.00  0.00    -0.080 A  
HETATM   57  C   UNL     1      -7.962   6.004  70.042  1.00  0.00    -0.109 A  
HETATM   58  C   UNL     1      -7.822   7.760  68.501  1.00  0.00    -0.120 A  
HETATM   59  C   UNL     1      -7.686   5.413  67.667  1.00  0.00    -0.092 A  
ENDBRANCH  52  54
ENDBRANCH  51  52
ENDBRANCH  22  51
BRANCH  18  60
HETATM   60  O   UNL     1      -8.498   9.395  69.272  1.00  0.00    -0.127 OA 
BRANCH  60  61
HETATM   61  C   UNL     1      -7.422  10.275  69.555  1.00  0.00    -0.142 C  
HETATM   62  C   UNL     1      -6.484  10.622  68.435  1.00  0.00    -0.054 C  
HETATM   63  O   UNL     1      -7.052  10.765  70.627  1.00  0.00    -0.076 OA 
ENDBRANCH  60  61
ENDBRANCH  18  60
TORSDOF 12
ENDMDL
MODEL       78
REMARK 921   NORMALIZED FREE ENERGY PREDICTED BY IDOCK:   58.42 KCAL/MOL
REMARK 922        TOTAL FREE ENERGY PREDICTED BY IDOCK:   96.74 KCAL/MOL
REMARK 923 INTER-LIGAND FREE ENERGY PREDICTED BY IDOCK:   52.90 KCAL/MOL
REMARK 924 INTRA-LIGAND FREE ENERGY PREDICTED BY IDOCK:   43.84 KCAL/MOL
REMARK 927      BINDING AFFINITY PREDICTED BY RF-SCORE:    0.00 PKD
ROOT
HETATM    1  C   UNL     1     -11.181   9.825  65.007  1.00  0.00     3.515 C  
HETATM    2  C   UNL     1     -10.175  10.568  64.124  1.00  0.00    -0.287 C  
HETATM    3  C   UNL     1      -9.185   9.486  63.619  1.00  0.00    -0.010 C  
HETATM    4  O   UNL     1      -9.917   8.535  62.831  1.00  0.00     1.881 OA 
HETATM    5  C   UNL     1      -8.451   8.897  64.842  1.00  0.00    -0.195 C  
HETATM    6  H   UNL     1      -9.311   7.872  62.521  1.00  0.00     0.000 HD 
HETATM    7  C   UNL     1      -7.605   7.593  64.345  1.00  0.00    -0.107 C  
HETATM    8  C   UNL     1      -7.219   9.832  65.102  1.00  0.00    -0.122 C  
HETATM    9  C   UNL     1      -6.619   6.793  65.274  1.00  0.00    -0.050 C  
HETATM   10  O   UNL     1      -7.581   7.274  63.144  1.00  0.00    -0.099 OA 
HETATM   11  O   UNL     1      -6.302   5.512  64.706  1.00  0.00    -0.035 OA 
HETATM   12  C   UNL     1      -7.116   6.477  66.639  1.00  0.00    -0.068 C  
HETATM   13  C   UNL     1      -6.468   6.600  67.823  1.00  0.00    -0.053 C  
HETATM   14  H   UNL     1      -5.706   5.029  65.268  1.00  0.00     0.000 HD 
HETATM   15  C   UNL     1      -7.192   6.167  69.320  1.00  0.00    -0.082 C  
HETATM   16  C   UNL     1      -5.152   7.375  67.891  1.00  0.00    -0.024 C  
HETATM   17  C   UNL     1      -7.904   7.476  69.229  1.00  0.00    -0.118 C  
HETATM   18  C   UNL     1     -11.087   9.162  66.440  1.00  0.00     1.135 C  
HETATM   19  C   UNL     1     -12.667   8.990  65.922  1.00  0.00    15.911 C  
HETATM   20  C   UNL     1      -8.956   7.487  68.000  1.00  0.00    -0.129 C  
HETATM   21  O   UNL     1     -12.508  10.306  65.231  1.00  0.00     4.805 OA 
HETATM   22  C   UNL     1      -8.852   9.250  67.348  1.00  0.00    -0.117 C  
HETATM   23  C   UNL     1      -9.454   5.812  65.540  1.00  0.00     0.145 C  
HETATM   24  C   UNL     1      -8.538   6.107  66.822  1.00  0.00    -0.111 C  
HETATM   25  O   UNL     1     -10.272   7.106  68.440  1.00  0.00    -0.163 OA 
HETATM   26  C   UNL     1      -9.520   8.793  66.121  1.00  0.00    -0.315 C  
HETATM   27  H   UNL     1     -10.889   7.113  67.718  1.00  0.00     0.000 HD 
HETATM   28  C   UNL     1      -8.472   4.546  67.158  1.00  0.00    -0.104 C  
ENDROOT
BRANCH  15  29
HETATM   29  O   UNL     1      -8.451   5.321  69.476  1.00  0.00    -0.093 OA 
BRANCH  29  30
HETATM   30  C   UNL     1      -8.556   4.280  70.372  1.00  0.00    -0.073 C  
HETATM   31  O   UNL     1      -9.231   4.354  71.391  1.00  0.00    -0.122 OA 
BRANCH  30  32
HETATM   32  C   UNL     1      -7.650   3.021  69.956  1.00  0.00    -0.044 C  
HETATM   33  O   UNL     1      -6.236   3.215  70.081  1.00  0.00    -0.023 OA 
HETATM   34  H   UNL     1      -5.701   2.470  69.835  1.00  0.00     0.000 HD 
BRANCH  32  35
HETATM   35  C   UNL     1      -8.000   2.532  68.500  1.00  0.00    -0.053 C  
BRANCH  35  36
HETATM   36  N   UNL     1      -9.414   2.880  68.197  1.00  0.00    -0.196 N  
HETATM   37  C   UNL     1      -9.693   4.160  67.907  1.00  0.00    -0.102 C  
HETATM   38  O   UNL     1      -8.985   5.086  68.060  1.00  0.00    -0.106 OA 
HETATM   39  H   UNL     1     -10.145   2.169  68.209  1.00  0.00     0.000 HD 
BRANCH  37  40
HETATM   40  O   UNL     1     -10.957   4.219  67.309  1.00  0.00     1.167 OA 
HETATM   41  C   UNL     1     -11.215   3.293  66.241  1.00  0.00     5.059 C  
HETATM   42  C   UNL     1     -11.094   1.841  66.739  1.00  0.00     7.049 C  
HETATM   43  C   UNL     1     -10.316   3.572  65.028  1.00  0.00     0.132 C  
HETATM   44  C   UNL     1     -12.677   3.537  65.832  1.00  0.00    14.432 C  
ENDBRANCH  37  40
ENDBRANCH  35  36
BRANCH  35  45
HETATM   45  C   UNL     1      -7.115   2.881  67.291  1.00  0.00    -0.053 A  
HETATM   46  C   UNL     1      -5.882   3.544  67.341  1.00  0.00    -0.023 A  
HETATM   47  C   UNL     1      -5.673   3.508  64.904  1.00  0.00    -0.014 A  
HETATM   48  C   UNL     1      -7.601   2.553  65.998  1.00  0.00    -0.068 A  
HETATM   49  C   UNL     1      -5.167   3.847  66.159  1.00  0.00    -0.009 A  
HETATM   50  C   UNL     1      -6.897   2.861  64.825  1.00  0.00    -0.041 A  
ENDBRANCH  35  45
ENDBRANCH  32  35
ENDBRANCH  30  32
ENDBRANCH  29  30
ENDBRANCH  15  29
BRANCH  22  51
HETATM   51  O   UNL     1      -9.722  10.805  67.264  1.00  0.00    -0.159 OA 
BRANCH  51  52
HETATM   52  C   UNL     1      -9.628  12.236  67.334  1.00  0.00    -0.179 C  
HETATM   53  O   UNL     1      -8.836  12.740  68.127  1.00  0.00    -0.186 OA 
BRANCH  52  54
HETATM   54  C   UNL     1     -10.629  13.370  66.581  1.00  0.00    -0.282 A  
HETATM   55  C   UNL     1     -12.393  14.336  65.048  1.00  0.00    -0.434 A  
HETATM   56  C   UNL     1     -11.104  15.872  66.314  1.00  0.00    -0.014 A  
HETATM   57  C   UNL     1     -10.411  14.751  66.889  1.00  0.00    -0.277 A  
HETATM   58  C   UNL     1     -11.676  13.232  65.636  1.00  0.00    -0.389 A  
HETATM   59  C   UNL     1     -12.122  15.672  65.374  1.00  0.00     0.684 A  
ENDBRANCH  52  54
ENDBRANCH  51  52
ENDBRANCH  22  51
BRANCH  18  60
HETATM   60  O   UNL     1     -11.513   9.605  67.942  1.00  0.00     0.073 OA 
BRANCH  60  61
HETATM   61  C   UNL     1     -11.583   8.919  69.183  1.00  0.00     0.793 C  
HETATM   62  C   UNL     1     -10.519   9.201  70.204  1.00  0.00    -0.249 C  
HETATM   63  O   UNL     1     -12.351   8.028  69.559  1.00  0.00     1.498 OA 
ENDBRANCH  60  61
ENDBRANCH  18  60
TORSDOF 12
ENDMDL
MODEL       79
REMARK 921   NORMALIZED FREE ENERGY PREDICTED BY IDOCK:   63.78 KCAL/MOL
REMARK 922        TOTAL FREE ENERGY PREDICTED BY IDOCK:  105.86 KCAL/MOL
REMARK 923 INTER-LIGAND FREE ENERGY PREDICTED BY IDOCK:   43.18 KCAL/MOL
REMARK 924 INTRA-LIGAND FREE ENERGY PREDICTED BY IDOCK:   62.68 KCAL/MOL
REMARK 927      BINDING AFFINITY PREDICTED BY RF-SCORE:    0.00 PKD
ROOT
HETATM    1  C   UNL     1     -11.317   8.589  69.696  1.00  0.00     0.210 C  
HETATM    2  C   UNL     1     -12.173   8.408  70.953  1.00  0.00    -0.106 C  
HETATM    3  C   UNL     1     -13.080   9.666  71.024  1.00  0.00    -0.241 C  
HETATM    4  O   UNL     1     -13.920   9.683  69.860  1.00  0.00     0.412 OA 
HETATM    5  C   UNL     1     -12.174  10.903  71.197  1.00  0.00    -0.441 C  
HETATM    6  H   UNL     1     -14.475  10.452  69.903  1.00  0.00     0.000 HD 
HETATM    7  C   UNL     1     -13.098  12.236  71.015  1.00  0.00     0.067 C  
HETATM    8  C   UNL     1     -11.932  11.052  72.739  1.00  0.00     4.660 C  
HETATM    9  C   UNL     1     -12.567  13.698  71.249  1.00  0.00    -0.351 C  
HETATM   10  O   UNL     1     -14.324  12.137  70.840  1.00  0.00     3.073 OA 
HETATM   11  O   UNL     1     -13.459  14.667  70.677  1.00  0.00    -0.547 OA 
HETATM   12  C   UNL     1     -11.244  14.019  70.652  1.00  0.00     0.329 C  
HETATM   13  C   UNL     1     -10.199  14.670  71.216  1.00  0.00     1.931 C  
HETATM   14  H   UNL     1     -13.138  15.551  70.818  1.00  0.00     0.000 HD 
HETATM   15  C   UNL     1      -8.735  14.975  70.369  1.00  0.00     1.164 C  
HETATM   16  C   UNL     1     -10.192  14.933  72.722  1.00  0.00     4.021 C  
HETATM   17  C   UNL     1      -8.397  13.551  70.663  1.00  0.00     5.015 C  
HETATM   18  C   UNL     1     -10.114   9.548  69.329  1.00  0.00    -0.198 C  
HETATM   19  C   UNL     1     -10.367   8.550  68.012  1.00  0.00    -0.217 C  
HETATM   20  C   UNL     1      -9.382  12.539  69.875  1.00  0.00     2.899 C  
HETATM   21  O   UNL     1     -10.756   7.485  68.985  1.00  0.00    -0.207 OA 
HETATM   22  C   UNL     1      -9.624  11.123  71.092  1.00  0.00     6.241 C  
HETATM   23  C   UNL     1     -12.030  12.747  68.442  1.00  0.00    -0.275 C  
HETATM   24  C   UNL     1     -10.900  13.466  69.322  1.00  0.00    -0.085 C  
HETATM   25  O   UNL     1      -8.813  12.134  68.617  1.00  0.00    -0.344 OA 
HETATM   26  C   UNL     1     -10.783  10.691  70.299  1.00  0.00    -0.063 C  
HETATM   27  H   UNL     1      -9.393  11.540  68.155  1.00  0.00     0.000 HD 
HETATM   28  C   UNL     1     -10.946  14.748  68.368  1.00  0.00    -0.259 C  
ENDROOT
BRANCH  15  29
HETATM   29  O   UNL     1      -8.554  14.864  68.859  1.00  0.00    -0.169 OA 
BRANCH  29  30
HETATM   30  C   UNL     1      -9.530  15.217  67.953  1.00  0.00    -0.194 C  
HETATM   31  O   UNL     1      -9.870  16.378  67.771  1.00  0.00    -0.233 OA 
BRANCH  30  32
HETATM   32  C   UNL     1     -10.191  13.939  67.238  1.00  0.00    -0.249 C  
HETATM   33  O   UNL     1      -9.785  12.668  67.758  1.00  0.00    -0.195 OA 
HETATM   34  H   UNL     1     -10.177  11.912  67.336  1.00  0.00     0.000 HD 
BRANCH  32  35
HETATM   35  C   UNL     1      -9.959  13.983  65.681  1.00  0.00    -0.286 C  
BRANCH  35  36
HETATM   36  N   UNL     1      -8.578  13.521  65.382  1.00  0.00     1.399 N  
HETATM   37  C   UNL     1      -7.604  13.871  66.237  1.00  0.00     2.387 C  
HETATM   38  O   UNL     1      -7.675  14.673  67.094  1.00  0.00    -0.193 OA 
HETATM   39  H   UNL     1      -8.378  12.957  64.556  1.00  0.00     0.000 HD 
BRANCH  37  40
HETATM   40  O   UNL     1      -6.486  13.064  65.998  1.00  0.00     2.533 OA 
HETATM   41  C   UNL     1      -6.499  11.747  66.574  1.00  0.00     0.098 C  
HETATM   42  C   UNL     1      -7.686  10.928  66.032  1.00  0.00    -0.107 C  
HETATM   43  C   UNL     1      -6.482  11.807  68.109  1.00  0.00    -0.051 C  
HETATM   44  C   UNL     1      -5.200  11.077  66.097  1.00  0.00    -0.130 C  
ENDBRANCH  37  40
ENDBRANCH  35  36
BRANCH  35  45
HETATM   45  C   UNL     1     -10.944  13.332  64.694  1.00  0.00    -0.384 A  
HETATM   46  C   UNL     1     -12.139  12.685  65.034  1.00  0.00    -0.497 A  
HETATM   47  C   UNL     1     -12.586  12.111  62.698  1.00  0.00     0.963 A  
HETATM   48  C   UNL     1     -10.600  13.335  63.317  1.00  0.00     1.285 A  
HETATM   49  C   UNL     1     -12.953  12.087  64.044  1.00  0.00    -0.251 A  
HETATM   50  C   UNL     1     -11.402  12.735  62.335  1.00  0.00     3.310 A  
ENDBRANCH  35  45
ENDBRANCH  32  35
ENDBRANCH  30  32
ENDBRANCH  29  30
ENDBRANCH  15  29
BRANCH  22  51
HETATM   51  O   UNL     1      -9.194   9.423  71.423  1.00  0.00    -0.277 OA 
BRANCH  51  52
HETATM   52  C   UNL     1      -9.590   8.047  71.328  1.00  0.00    -0.156 C  
HETATM   53  O   UNL     1      -9.233   7.392  70.352  1.00  0.00    -0.157 OA 
BRANCH  52  54
HETATM   54  C   UNL     1     -10.680   7.221  72.322  1.00  0.00    -0.266 A  
HETATM   55  C   UNL     1     -12.763   6.723  73.666  1.00  0.00     4.025 A  
HETATM   56  C   UNL     1     -10.989   5.158  73.806  1.00  0.00    -0.297 A  
HETATM   57  C   UNL     1     -10.247   5.981  72.890  1.00  0.00    -0.207 A  
HETATM   58  C   UNL     1     -11.993   7.532  72.755  1.00  0.00    -0.071 A  
HETATM   59  C   UNL     1     -12.278   5.525  74.206  1.00  0.00     5.265 A  
ENDBRANCH  52  54
ENDBRANCH  51  52
ENDBRANCH  22  51
BRANCH  18  60
HETATM   60  O   UNL     1      -8.498   9.395  69.272  1.00  0.00    -0.127 OA 
BRANCH  60  61
HETATM   61  C   UNL     1      -7.422  10.275  69.555  1.00  0.00    -0.142 C  
HETATM   62  C   UNL     1      -6.484  10.622  68.435  1.00  0.00    -0.054 C  
HETATM   63  O   UNL     1      -7.052  10.765  70.627  1.00  0.00    -0.076 OA 
ENDBRANCH  60  61
ENDBRANCH  18  60
TORSDOF 12
ENDMDL
MODEL       80
REMARK 921   NORMALIZED FREE ENERGY PREDICTED BY IDOCK:   81.56 KCAL/MOL
REMARK 922        TOTAL FREE ENERGY PREDICTED BY IDOCK:  136.11 KCAL/MOL
REMARK 923 INTER-LIGAND FREE ENERGY PREDICTED BY IDOCK:   39.33 KCAL/MOL
REMARK 924 INTRA-LIGAND FREE ENERGY PREDICTED BY IDOCK:   96.77 KCAL/MOL
REMARK 927      BINDING AFFINITY PREDICTED BY RF-SCORE:    0.00 PKD
ROOT
HETATM    1  C   UNL     1      -7.316  10.840  69.114  1.00  0.00    -0.115 C  
HETATM    2  C   UNL     1      -6.465  11.034  70.373  1.00  0.00     0.005 C  
HETATM    3  C   UNL     1      -6.327   9.623  71.004  1.00  0.00    -0.063 C  
HETATM    4  O   UNL     1      -5.635   8.777  70.073  1.00  0.00    -0.028 OA 
HETATM    5  C   UNL     1      -7.735   9.137  71.410  1.00  0.00    -0.004 C  
HETATM    6  H   UNL     1      -5.550   7.913  70.458  1.00  0.00     0.000 HD 
HETATM    7  C   UNL     1      -7.625   7.565  71.833  1.00  0.00    -0.084 C  
HETATM    8  C   UNL     1      -7.990   9.702  72.850  1.00  0.00     2.921 C  
HETATM    9  C   UNL     1      -8.824   6.743  72.433  1.00  0.00    -0.131 C  
HETATM   10  O   UNL     1      -6.524   6.990  71.850  1.00  0.00    -0.048 OA 
HETATM   11  O   UNL     1      -8.563   5.332  72.371  1.00  0.00    -0.121 OA 
HETATM   12  C   UNL     1     -10.136   6.905  71.753  1.00  0.00    -0.198 C  
HETATM   13  C   UNL     1     -11.357   7.097  72.309  1.00  0.00    -0.303 C  
HETATM   14  H   UNL     1      -9.288   4.835  72.733  1.00  0.00     0.000 HD 
HETATM   15  C   UNL     1     -12.786   7.247  71.367  1.00  0.00    -0.389 C  
HETATM   16  C   UNL     1     -11.469   7.444  73.793  1.00  0.00     1.410 C  
HETATM   17  C   UNL     1     -12.343   8.651  71.119  1.00  0.00    -0.243 C  
HETATM   18  C   UNL     1      -8.847  10.521  68.877  1.00  0.00    -0.165 C  
HETATM   19  C   UNL     1      -8.144  10.710  67.371  1.00  0.00    -0.112 C  
HETATM   20  C   UNL     1     -10.994   8.693  70.229  1.00  0.00    -0.236 C  
HETATM   21  O   UNL     1      -7.247  11.728  67.997  1.00  0.00    -0.075 OA 
HETATM   22  C   UNL     1     -10.041  10.151  70.942  1.00  0.00     0.573 C  
HETATM   23  C   UNL     1      -8.852   6.727  69.422  1.00  0.00    -0.135 C  
HETATM   24  C   UNL     1     -10.174   7.021  70.277  1.00  0.00    -0.206 C  
HETATM   25  O   UNL     1     -11.300   8.827  68.829  1.00  0.00    -0.282 OA 
HETATM   26  C   UNL     1      -8.839   9.646  70.265  1.00  0.00    -0.253 C  
HETATM   27  H   UNL     1     -10.507   8.851  68.306  1.00  0.00     0.000 HD 
HETATM   28  C   UNL     1     -10.807   5.629  69.815  1.00  0.00    -0.370 C  
ENDROOT
BRANCH  15  29
HETATM   29  O   UNL     1     -12.913   6.867  69.895  1.00  0.00     1.028 OA 
BRANCH  29  30
HETATM   30  C   UNL     1     -11.895   6.285  69.174  1.00  0.00     0.679 C  
HETATM   31  O   UNL     1     -12.100   5.459  68.293  1.00  0.00     3.770 OA 
BRANCH  30  32
HETATM   32  C   UNL     1     -10.443   6.761  69.671  1.00  0.00    -0.214 C  
HETATM   33  O   UNL     1     -10.076   8.095  69.301  1.00  0.00    -0.191 OA 
HETATM   34  H   UNL     1      -9.218   8.377  69.596  1.00  0.00     0.000 HD 
BRANCH  32  35
HETATM   35  C   UNL     1      -9.330   5.748  69.207  1.00  0.00    -0.124 C  
BRANCH  35  36
HETATM   36  N   UNL     1      -9.846   4.946  68.066  1.00  0.00    -0.152 N  
HETATM   37  C   UNL     1      -9.197   3.813  67.756  1.00  0.00    -0.173 C  
HETATM   38  O   UNL     1      -8.142   3.476  68.152  1.00  0.00    -0.077 OA 
HETATM   39  H   UNL     1     -10.665   5.247  67.538  1.00  0.00     0.000 HD 
BRANCH  37  40
HETATM   40  O   UNL     1     -10.017   3.037  66.929  1.00  0.00     0.290 OA 
HETATM   41  C   UNL     1      -9.401   2.440  65.777  1.00  0.00     0.035 C  
HETATM   42  C   UNL     1      -8.270   1.484  66.199  1.00  0.00    -0.080 C  
HETATM   43  C   UNL     1      -8.924   3.507  64.780  1.00  0.00    -0.129 C  
HETATM   44  C   UNL     1     -10.506   1.605  65.107  1.00  0.00     1.438 C  
ENDBRANCH  37  40
ENDBRANCH  35  36
BRANCH  35  45
HETATM   45  C   UNL     1      -7.891   6.203  68.905  1.00  0.00    -0.101 A  
HETATM   46  C   UNL     1      -7.526   7.290  68.099  1.00  0.00    -0.102 A  
HETATM   47  C   UNL     1      -5.145   6.821  68.406  1.00  0.00    -0.011 A  
HETATM   48  C   UNL     1      -6.827   5.434  69.443  1.00  0.00    -0.057 A  
HETATM   49  C   UNL     1      -6.167   7.596  67.859  1.00  0.00    -0.049 A  
HETATM   50  C   UNL     1      -5.478   5.733  69.199  1.00  0.00    -0.004 A  
ENDBRANCH  35  45
ENDBRANCH  32  35
ENDBRANCH  30  32
ENDBRANCH  29  30
ENDBRANCH  15  29
BRANCH  22  51
HETATM   51  O   UNL     1      -9.535  11.832  70.623  1.00  0.00     4.107 OA 
BRANCH  51  52
HETATM   52  C   UNL     1      -9.271  13.129  71.179  1.00  0.00    11.098 C  
HETATM   53  O   UNL     1     -10.215  13.882  71.405  1.00  0.00     3.801 OA 
BRANCH  52  54
HETATM   54  C   UNL     1      -7.765  13.864  71.398  1.00  0.00     5.072 A  
HETATM   55  C   UNL     1      -5.276  14.281  71.232  1.00  0.00    -0.154 A  
HETATM   56  C   UNL     1      -6.517  15.711  72.659  1.00  0.00     3.225 A  
HETATM   57  C   UNL     1      -7.701  14.986  72.286  1.00  0.00     5.394 A  
HETATM   58  C   UNL     1      -6.479  13.568  70.882  1.00  0.00     0.633 A  
HETATM   59  C   UNL     1      -5.272  15.363  72.124  1.00  0.00     0.081 A  
ENDBRANCH  52  54
ENDBRANCH  51  52
ENDBRANCH  22  51
BRANCH  18  60
HETATM   60  O   UNL     1     -10.158  11.399  68.494  1.00  0.00    -0.194 OA 
BRANCH  60  61
HETATM   61  C   UNL     1     -11.310  11.804  69.218  1.00  0.00    -0.286 C  
HETATM   62  C   UNL     1     -12.297  10.746  69.619  1.00  0.00    -0.262 C  
HETATM   63  O   UNL     1     -11.707  12.934  69.519  1.00  0.00    -0.303 OA 
ENDBRANCH  60  61
ENDBRANCH  18  60
TORSDOF 12
ENDMDL
MODEL       81
REMARK 921   NORMALIZED FREE ENERGY PREDICTED BY IDOCK:   83.94 KCAL/MOL
REMARK 922        TOTAL FREE ENERGY PREDICTED BY IDOCK:  140.16 KCAL/MOL
REMARK 923 INTER-LIGAND FREE ENERGY PREDICTED BY IDOCK:   92.25 KCAL/MOL
REMARK 924 INTRA-LIGAND FREE ENERGY PREDICTED BY IDOCK:   47.90 KCAL/MOL
REMARK 927      BINDING AFFINITY PREDICTED BY RF-SCORE:    0.00 PKD
ROOT
HETATM    1  C   UNL     1     -12.827  10.313  69.479  1.00  0.00     0.831 C  
HETATM    2  C   UNL     1     -13.104   9.503  70.749  1.00  0.00    -0.056 C  
HETATM    3  C   UNL     1     -12.333  10.230  71.883  1.00  0.00    -0.148 C  
HETATM    4  O   UNL     1     -12.872  11.553  72.021  1.00  0.00    -0.350 OA 
HETATM    5  C   UNL     1     -10.825  10.167  71.557  1.00  0.00     0.692 C  
HETATM    6  H   UNL     1     -12.401  11.998  72.715  1.00  0.00     0.000 HD 
HETATM    7  C   UNL     1     -10.041  11.143  72.603  1.00  0.00    14.457 C  
HETATM    8  C   UNL     1     -10.310   8.808  72.144  1.00  0.00    -0.378 C  
HETATM    9  C   UNL     1      -8.473  11.251  72.679  1.00  0.00    17.320 C  
HETATM   10  O   UNL     1     -10.658  11.728  73.508  1.00  0.00    15.772 OA 
HETATM   11  O   UNL     1      -8.072  12.421  73.409  1.00  0.00    14.646 OA 
HETATM   12  C   UNL     1      -7.760  11.366  71.380  1.00  0.00     7.098 C  
HETATM   13  C   UNL     1      -6.648  10.711  70.965  1.00  0.00     0.639 C  
HETATM   14  H   UNL     1      -7.125  12.486  73.455  1.00  0.00     0.000 HD 
HETATM   15  C   UNL     1      -5.939  10.981  69.424  1.00  0.00    -0.050 C  
HETATM   16  C   UNL     1      -6.133   9.513  71.762  1.00  0.00     0.085 C  
HETATM   17  C   UNL     1      -7.023  10.102  68.893  1.00  0.00    -0.063 C  
HETATM   18  C   UNL     1     -11.549  10.501  68.567  1.00  0.00    -0.148 C  
HETATM   19  C   UNL     1     -12.788  11.375  67.863  1.00  0.00     3.442 C  
HETATM   20  C   UNL     1      -8.473  10.800  69.050  1.00  0.00    -0.133 C  
HETATM   21  O   UNL     1     -13.720  10.321  68.364  1.00  0.00     6.114 OA 
HETATM   22  C   UNL     1      -9.615   9.357  69.449  1.00  0.00    -0.173 C  
HETATM   23  C   UNL     1      -9.624  13.112  70.610  1.00  0.00     6.192 C  
HETATM   24  C   UNL     1      -8.360  12.179  70.297  1.00  0.00     4.204 C  
HETATM   25  O   UNL     1      -8.837  11.516  67.856  1.00  0.00    -0.141 OA 
HETATM   26  C   UNL     1     -10.618  10.328  69.907  1.00  0.00    -0.324 C  
HETATM   27  H   UNL     1      -9.689  11.925  67.949  1.00  0.00     0.000 HD 
HETATM   28  C   UNL     1      -7.407  13.459  70.226  1.00  0.00     1.575 C  
ENDROOT
BRANCH  15  29
HETATM   29  O   UNL     1      -6.243  12.164  68.511  1.00  0.00    -0.050 OA 
BRANCH  29  30
HETATM   30  C   UNL     1      -5.863  13.457  68.797  1.00  0.00    -0.079 C  
HETATM   31  O   UNL     1      -5.237  13.751  69.807  1.00  0.00    -0.085 OA 
BRANCH  30  32
HETATM   32  C   UNL     1      -6.392  14.506  67.702  1.00  0.00    -0.107 C  
HETATM   33  O   UNL     1      -5.389  15.354  67.131  1.00  0.00    -0.303 OA 
HETATM   34  H   UNL     1      -5.702  15.974  66.483  1.00  0.00     0.000 HD 
BRANCH  32  35
HETATM   35  C   UNL     1      -7.567  15.379  68.283  1.00  0.00    -0.115 C  
BRANCH  35  36
HETATM   36  N   UNL     1      -7.653  16.651  67.517  1.00  0.00    -0.149 N  
HETATM   37  C   UNL     1      -7.905  16.571  66.201  1.00  0.00    -0.099 C  
HETATM   38  O   UNL     1      -7.868  15.603  65.535  1.00  0.00     1.938 OA 
HETATM   39  H   UNL     1      -7.524  17.553  67.976  1.00  0.00     0.000 HD 
BRANCH  37  40
HETATM   40  O   UNL     1      -8.302  17.833  65.743  1.00  0.00    -0.529 OA 
HETATM   41  C   UNL     1      -7.463  18.946  66.093  1.00  0.00    -0.266 C  
HETATM   42  C   UNL     1      -6.045  18.759  65.522  1.00  0.00    -0.275 C  
HETATM   43  C   UNL     1      -7.456  19.186  67.611  1.00  0.00    -0.263 C  
HETATM   44  C   UNL     1      -8.097  20.168  65.408  1.00  0.00     0.361 C  
ENDBRANCH  37  40
ENDBRANCH  35  36
BRANCH  35  45
HETATM   45  C   UNL     1      -8.981  14.808  68.488  1.00  0.00    -0.182 A  
HETATM   46  C   UNL     1      -9.449  13.581  67.999  1.00  0.00    -0.220 A  
HETATM   47  C   UNL     1     -11.683  13.977  68.913  1.00  0.00    -0.375 A  
HETATM   48  C   UNL     1      -9.923  15.606  69.189  1.00  0.00    -0.244 A  
HETATM   49  C   UNL     1     -10.784  13.169  68.217  1.00  0.00    -0.261 A  
HETATM   50  C   UNL     1     -11.250  15.202  69.398  1.00  0.00    -0.293 A  
ENDBRANCH  35  45
ENDBRANCH  32  35
ENDBRANCH  30  32
ENDBRANCH  29  30
ENDBRANCH  15  29
BRANCH  22  51
HETATM   51  O   UNL     1     -10.901   8.315  68.784  1.00  0.00    -0.098 OA 
BRANCH  51  52
HETATM   52  C   UNL     1     -11.227   7.064  68.160  1.00  0.00     0.088 C  
HETATM   53  O   UNL     1     -11.926   6.260  68.771  1.00  0.00     0.533 OA 
BRANCH  52  54
HETATM   54  C   UNL     1     -10.601   6.442  66.718  1.00  0.00    -0.328 A  
HETATM   55  C   UNL     1     -10.317   4.942  64.702  1.00  0.00     0.498 A  
HETATM   56  C   UNL     1      -8.679   6.623  65.036  1.00  0.00     0.170 A  
HETATM   57  C   UNL     1      -9.406   7.039  66.204  1.00  0.00    -0.090 A  
HETATM   58  C   UNL     1     -11.021   5.377  65.883  1.00  0.00     0.190 A  
HETATM   59  C   UNL     1      -9.138   5.555  64.258  1.00  0.00     0.357 A  
ENDBRANCH  52  54
ENDBRANCH  51  52
ENDBRANCH  22  51
BRANCH  18  60
HETATM   60  O   UNL     1     -11.041   9.877  67.156  1.00  0.00    -0.163 OA 
BRANCH  60  61
HETATM   61  C   UNL     1     -10.587   8.593  66.762  1.00  0.00    -0.153 C  
HETATM   62  C   UNL     1      -9.242   8.139  67.254  1.00  0.00    -0.165 C  
HETATM   63  O   UNL     1     -11.085   7.774  65.982  1.00  0.00     1.907 OA 
ENDBRANCH  60  61
ENDBRANCH  18  60
TORSDOF 12
ENDMDL
MODEL       82
REMARK 921   NORMALIZED FREE ENERGY PREDICTED BY IDOCK:   99.55 KCAL/MOL
REMARK 922        TOTAL FREE ENERGY PREDICTED BY IDOCK:  166.71 KCAL/MOL
REMARK 923 INTER-LIGAND FREE ENERGY PREDICTED BY IDOCK:   76.64 KCAL/MOL
REMARK 924 INTRA-LIGAND FREE ENERGY PREDICTED BY IDOCK:   90.08 KCAL/MOL
REMARK 927      BINDING AFFINITY PREDICTED BY RF-SCORE:    0.00 PKD
ROOT
HETATM    1  C   UNL     1     -10.192  11.320  63.545  1.00  0.00    -0.403 C  
HETATM    2  C   UNL     1     -11.194  11.965  62.584  1.00  0.00     0.881 C  
HETATM    3  C   UNL     1     -11.003  13.496  62.748  1.00  0.00     3.492 C  
HETATM    4  O   UNL     1      -9.664  13.829  62.352  1.00  0.00     7.295 OA 
HETATM    5  C   UNL     1     -11.372  13.875  64.198  1.00  0.00    -0.226 C  
HETATM    6  H   UNL     1      -9.546  14.767  62.452  1.00  0.00     0.000 HD 
HETATM    7  C   UNL     1     -10.930  15.426  64.443  1.00  0.00    -0.031 C  
HETATM    8  C   UNL     1     -12.921  14.117  64.203  1.00  0.00     0.632 C  
HETATM    9  C   UNL     1     -11.256  16.223  65.760  1.00  0.00     0.199 C  
HETATM   10  O   UNL     1     -10.451  16.102  63.517  1.00  0.00     2.209 OA 
HETATM   11  O   UNL     1     -10.454  17.410  65.856  1.00  0.00    -0.442 OA 
HETATM   12  C   UNL     1     -11.008  15.507  67.039  1.00  0.00    -0.283 C  
HETATM   13  C   UNL     1     -11.804  15.431  68.133  1.00  0.00    -0.178 C  
HETATM   14  H   UNL     1     -10.652  17.892  66.651  1.00  0.00     0.000 HD 
HETATM   15  C   UNL     1     -11.349  14.567  69.546  1.00  0.00    -0.275 C  
HETATM   16  C   UNL     1     -13.255  15.902  68.049  1.00  0.00     3.919 C  
HETATM   17  C   UNL     1     -11.752  13.342  68.795  1.00  0.00    -0.377 C  
HETATM   18  C   UNL     1     -10.121  11.200  65.120  1.00  0.00    -0.281 C  
HETATM   19  C   UNL     1      -8.806  10.371  64.504  1.00  0.00    -0.207 C  
HETATM   20  C   UNL     1     -10.764  13.069  67.544  1.00  0.00    -0.238 C  
HETATM   21  O   UNL     1      -9.672  10.005  63.343  1.00  0.00    -0.200 OA 
HETATM   22  C   UNL     1     -11.912  12.391  66.215  1.00  0.00    -0.298 C  
HETATM   23  C   UNL     1      -8.702  14.648  66.009  1.00  0.00     0.483 C  
HETATM   24  C   UNL     1      -9.822  14.628  67.154  1.00  0.00    -0.237 C  
HETATM   25  O   UNL     1      -9.702  12.170  67.909  1.00  0.00    -0.188 OA 
HETATM   26  C   UNL     1     -10.861  12.661  65.225  1.00  0.00    -0.319 C  
HETATM   27  H   UNL     1      -9.121  12.010  67.174  1.00  0.00     0.000 HD 
HETATM   28  C   UNL     1      -8.859  15.437  68.139  1.00  0.00    -0.170 C  
ENDROOT
BRANCH  15  29
HETATM   29  O   UNL     1      -9.937  14.088  69.869  1.00  0.00     0.624 OA 
BRANCH  29  30
HETATM   30  C   UNL     1      -9.250  14.470  70.999  1.00  0.00     3.491 C  
HETATM   31  O   UNL     1      -8.824  13.662  71.815  1.00  0.00     8.873 OA 
BRANCH  30  32
HETATM   32  C   UNL     1      -9.142  16.066  71.140  1.00  0.00     3.990 C  
HETATM   33  O   UNL     1     -10.384  16.747  71.355  1.00  0.00     1.884 OA 
HETATM   34  H   UNL     1     -10.320  17.692  71.438  1.00  0.00     0.000 HD 
BRANCH  32  35
HETATM   35  C   UNL     1      -8.392  16.691  69.905  1.00  0.00     1.183 C  
BRANCH  35  36
HETATM   36  N   UNL     1      -9.183  16.432  68.673  1.00  0.00    -0.222 N  
HETATM   37  C   UNL     1     -10.088  17.355  68.308  1.00  0.00    -0.339 C  
HETATM   38  O   UNL     1     -10.475  18.255  68.957  1.00  0.00    -0.216 OA 
HETATM   39  H   UNL     1      -9.044  15.584  68.125  1.00  0.00     0.000 HD 
BRANCH  37  40
HETATM   40  O   UNL     1     -10.453  17.122  66.977  1.00  0.00    -0.320 OA 
HETATM   41  C   UNL     1     -11.405  18.029  66.396  1.00  0.00     1.176 C  
HETATM   42  C   UNL     1     -10.855  19.468  66.397  1.00  0.00    -0.443 C  
HETATM   43  C   UNL     1     -12.773  17.925  67.087  1.00  0.00     6.301 C  
HETATM   44  C   UNL     1     -11.560  17.579  64.934  1.00  0.00     1.888 C  
ENDBRANCH  37  40
ENDBRANCH  35  36
BRANCH  35  45
HETATM   45  C   UNL     1      -7.901  18.149  69.903  1.00  0.00     1.295 A  
HETATM   46  C   UNL     1      -8.704  19.285  70.071  1.00  0.00     1.113 A  
HETATM   47  C   UNL     1      -6.789  20.779  69.777  1.00  0.00     0.950 A  
HETATM   48  C   UNL     1      -6.522  18.384  69.660  1.00  0.00    -0.155 A  
HETATM   49  C   UNL     1      -8.150  20.585  70.014  1.00  0.00     1.647 A  
HETATM   50  C   UNL     1      -5.973  19.673  69.596  1.00  0.00    -0.316 A  
ENDBRANCH  35  45
ENDBRANCH  32  35
ENDBRANCH  30  32
ENDBRANCH  29  30
ENDBRANCH  15  29
BRANCH  22  51
HETATM   51  O   UNL     1     -12.381  10.908  65.340  1.00  0.00     1.655 OA 
BRANCH  51  52
HETATM   52  C   UNL     1     -11.960   9.845  64.474  1.00  0.00     7.646 C  
HETATM   53  O   UNL     1     -12.692   9.512  63.544  1.00  0.00    10.482 OA 
BRANCH  52  54
HETATM   54  C   UNL     1     -10.630   8.822  64.674  1.00  0.00     5.265 A  
HETATM   55  C   UNL     1      -8.339   7.807  64.333  1.00  0.00     0.028 A  
HETATM   56  C   UNL     1      -9.794   6.703  65.844  1.00  0.00     0.355 A  
HETATM   57  C   UNL     1     -10.773   7.721  65.578  1.00  0.00     3.923 A  
HETATM   58  C   UNL     1      -9.343   8.810  64.080  1.00  0.00     0.856 A  
HETATM   59  C   UNL     1      -8.544   6.739  65.216  1.00  0.00    -0.017 A  
ENDBRANCH  52  54
ENDBRANCH  51  52
ENDBRANCH  22  51
BRANCH  18  60
HETATM   60  O   UNL     1     -10.479  10.044  66.203  1.00  0.00    -0.185 OA 
BRANCH  60  61
HETATM   61  C   UNL     1     -10.082   9.802  67.544  1.00  0.00    -0.197 C  
HETATM   62  C   UNL     1      -8.805   9.047  67.775  1.00  0.00    -0.125 C  
HETATM   63  O   UNL     1     -10.669  10.040  68.605  1.00  0.00    -0.209 OA 
ENDBRANCH  60  61
ENDBRANCH  18  60
TORSDOF 12
ENDMDL
MODEL       83
REMARK 921   NORMALIZED FREE ENERGY PREDICTED BY IDOCK:  105.37 KCAL/MOL
REMARK 922        TOTAL FREE ENERGY PREDICTED BY IDOCK:  176.63 KCAL/MOL
REMARK 923 INTER-LIGAND FREE ENERGY PREDICTED BY IDOCK:   78.99 KCAL/MOL
REMARK 924 INTRA-LIGAND FREE ENERGY PREDICTED BY IDOCK:   97.63 KCAL/MOL
REMARK 927      BINDING AFFINITY PREDICTED BY RF-SCORE:    0.00 PKD
ROOT
HETATM    1  C   UNL     1      -8.142   9.279  64.508  1.00  0.00    -0.139 C  
HETATM    2  C   UNL     1      -9.303   8.828  63.618  1.00  0.00     1.146 C  
HETATM    3  C   UNL     1     -10.315  10.004  63.626  1.00  0.00     1.179 C  
HETATM    4  O   UNL     1      -9.678  11.153  63.049  1.00  0.00    -0.332 OA 
HETATM    5  C   UNL     1     -10.825  10.191  65.070  1.00  0.00     0.872 C  
HETATM    6  H   UNL     1     -10.297  11.873  63.054  1.00  0.00     0.000 HD 
HETATM    7  C   UNL     1     -11.684  11.577  65.128  1.00  0.00     0.151 C  
HETATM    8  C   UNL     1     -12.037   9.210  65.235  1.00  0.00    11.449 C  
HETATM    9  C   UNL     1     -12.479  12.052  66.400  1.00  0.00     1.297 C  
HETATM   10  O   UNL     1     -11.882  12.242  64.098  1.00  0.00    -0.367 OA 
HETATM   11  O   UNL     1     -12.829  13.441  66.299  1.00  0.00    -0.206 OA 
HETATM   12  C   UNL     1     -11.763  11.947  67.698  1.00  0.00    -0.346 C  
HETATM   13  C   UNL     1     -12.222  11.468  68.880  1.00  0.00    -0.128 C  
HETATM   14  H   UNL     1     -13.309  13.728  67.067  1.00  0.00     0.000 HD 
HETATM   15  C   UNL     1     -11.256  11.436  70.300  1.00  0.00     0.123 C  
HETATM   16  C   UNL     1     -13.541  10.697  68.925  1.00  0.00     5.157 C  
HETATM   17  C   UNL     1     -10.620  10.222  69.709  1.00  0.00    -0.312 C  
HETATM   18  C   UNL     1      -7.984   9.480  66.069  1.00  0.00    -0.107 C  
HETATM   19  C   UNL     1      -6.498   9.813  65.378  1.00  0.00    -0.083 C  
HETATM   20  C   UNL     1      -9.775  10.589  68.381  1.00  0.00    -0.159 C  
HETATM   21  O   UNL     1      -6.817   8.765  64.362  1.00  0.00    -0.077 OA 
HETATM   22  C   UNL     1     -10.051   9.104  67.258  1.00  0.00    -0.233 C  
HETATM   23  C   UNL     1      -9.600  12.931  66.485  1.00  0.00    -0.259 C  
HETATM   24  C   UNL     1     -10.315  12.257  67.751  1.00  0.00    -0.216 C  
HETATM   25  O   UNL     1      -8.392  10.831  68.696  1.00  0.00    -0.126 OA 
HETATM   26  C   UNL     1      -9.565   9.914  66.132  1.00  0.00    -0.275 C  
HETATM   27  H   UNL     1      -7.896  11.047  67.914  1.00  0.00     0.000 HD 
HETATM   28  C   UNL     1     -10.265  13.644  68.543  1.00  0.00    -0.234 C  
ENDROOT
BRANCH  15  29
HETATM   29  O   UNL     1      -9.954  12.207  70.496  1.00  0.00     3.478 OA 
BRANCH  29  30
HETATM   30  C   UNL     1      -8.907  12.161  69.603  1.00  0.00     1.859 C  
HETATM   31  O   UNL     1      -8.259  13.154  69.297  1.00  0.00     0.421 OA 
BRANCH  30  32
HETATM   32  C   UNL     1      -8.696  10.695  68.982  1.00  0.00    -0.146 C  
HETATM   33  O   UNL     1      -9.471  10.409  67.811  1.00  0.00    -0.144 OA 
HETATM   34  H   UNL     1      -9.346   9.542  67.443  1.00  0.00     0.000 HD 
BRANCH  32  35
HETATM   35  C   UNL     1      -8.937   9.583  70.071  1.00  0.00    -0.223 C  
BRANCH  35  36
HETATM   36  N   UNL     1      -8.872   8.246  69.423  1.00  0.00    -0.145 N  
HETATM   37  C   UNL     1      -7.996   7.356  69.916  1.00  0.00    -0.121 C  
HETATM   38  O   UNL     1      -7.125   7.573  70.675  1.00  0.00    -0.057 OA 
HETATM   39  H   UNL     1      -9.473   8.013  68.633  1.00  0.00     0.000 HD 
BRANCH  37  40
HETATM   40  O   UNL     1      -8.331   6.085  69.437  1.00  0.00    -0.112 OA 
HETATM   41  C   UNL     1      -7.253   5.269  68.948  1.00  0.00    -0.062 C  
HETATM   42  C   UNL     1      -6.225   5.001  70.063  1.00  0.00    -0.026 C  
HETATM   43  C   UNL     1      -6.610   5.883  67.695  1.00  0.00    -0.056 C  
HETATM   44  C   UNL     1      -7.897   3.928  68.560  1.00  0.00    -0.068 C  
ENDBRANCH  37  40
ENDBRANCH  35  36
BRANCH  35  45
HETATM   45  C   UNL     1      -8.148   9.553  71.391  1.00  0.00     0.539 A  
HETATM   46  C   UNL     1      -8.237   8.563  72.378  1.00  0.00    -0.156 A  
HETATM   47  C   UNL     1      -6.649   9.741  73.818  1.00  0.00     1.221 A  
HETATM   48  C   UNL     1      -7.285  10.645  71.672  1.00  0.00     3.479 A  
HETATM   49  C   UNL     1      -7.490   8.655  73.575  1.00  0.00     0.045 A  
HETATM   50  C   UNL     1      -6.550  10.741  72.863  1.00  0.00     4.006 A  
ENDBRANCH  35  45
ENDBRANCH  32  35
ENDBRANCH  30  32
ENDBRANCH  29  30
ENDBRANCH  15  29
BRANCH  22  51
HETATM   51  O   UNL     1      -9.269   7.653  66.575  1.00  0.00    -0.160 OA 
BRANCH  51  52
HETATM   52  C   UNL     1      -9.453   6.377  65.944  1.00  0.00     0.120 C  
HETATM   53  O   UNL     1      -8.816   6.121  64.926  1.00  0.00     0.032 OA 
BRANCH  52  54
HETATM   54  C   UNL     1     -10.612   5.205  66.318  1.00  0.00    -0.325 A  
HETATM   55  C   UNL     1     -12.756   4.167  67.167  1.00  0.00    17.856 A  
HETATM   56  C   UNL     1     -11.065   2.686  66.415  1.00  0.00     6.216 A  
HETATM   57  C   UNL     1     -10.257   3.834  66.105  1.00  0.00     0.316 A  
HETATM   58  C   UNL     1     -11.920   5.299  66.854  1.00  0.00     4.259 A  
HETATM   59  C   UNL     1     -12.346   2.844  66.955  1.00  0.00    19.454 A  
ENDBRANCH  52  54
ENDBRANCH  51  52
ENDBRANCH  22  51
BRANCH  18  60
HETATM   60  O   UNL     1      -7.346   8.609  67.282  1.00  0.00    -0.086 OA 
BRANCH  60  61
HETATM   61  C   UNL     1      -7.043   7.232  67.443  1.00  0.00    -0.088 C  
HETATM   62  C   UNL     1      -5.655   6.862  67.881  1.00  0.00    -0.016 C  
HETATM   63  O   UNL     1      -7.724   6.231  67.198  1.00  0.00    -0.094 OA 
ENDBRANCH  60  61
ENDBRANCH  18  60
TORSDOF 12
ENDMDL
