MODEL        1
REMARK 921   NORMALIZED FREE ENERGY PREDICTED BY IDOCK:   -5.49 KCAL/MOL
REMARK 922        TOTAL FREE ENERGY PREDICTED BY IDOCK:  -12.44 KCAL/MOL
REMARK 923 INTER-LIGAND FREE ENERGY PREDICTED BY IDOCK:   -9.66 KCAL/MOL
REMARK 924 INTRA-LIGAND FREE ENERGY PREDICTED BY IDOCK:   -2.78 KCAL/MOL
REMARK 927      BINDING AFFINITY PREDICTED BY RF-SCORE:    0.00 PKD
ROOT
HETATM    1  C   UNL     1     -12.032  12.917  63.345  1.00  0.00    -0.612 C  
HETATM    2  C   UNL     1     -11.815  13.981  64.408  1.00  0.00    -0.453 C  
ENDROOT
BRANCH   2   3
HETATM    3  C   UNL     1     -12.588  13.705  65.666  1.00  0.00    -0.531 C  
HETATM    4  C   UNL     1     -12.126  13.025  66.730  1.00  0.00    -0.366 C  
BRANCH   4   5
HETATM    5  C   UNL     1     -10.791  12.339  66.814  1.00  0.00    -0.291 C  
BRANCH   5   6
HETATM    6  C   UNL     1     -10.932  10.844  66.898  1.00  0.00    -0.286 C  
HETATM    7  C   UNL     1     -10.843  10.099  68.014  1.00  0.00    -0.320 C  
BRANCH   7   8
HETATM    8  C   UNL     1     -10.551  10.646  69.381  1.00  0.00    -0.270 C  
BRANCH   8   9
HETATM    9  C   UNL     1     -11.473  10.097  70.429  1.00  0.00    -0.400 C  
HETATM   10  C   UNL     1     -12.392  10.784  71.128  1.00  0.00    -0.498 C  
BRANCH  10  11
HETATM   11  C   UNL     1     -12.755  12.236  70.965  1.00  0.00    -0.319 C  
BRANCH  11  12
HETATM   12  C   UNL     1     -13.519  12.791  72.136  1.00  0.00    -0.591 C  
HETATM   13  C   UNL     1     -13.909  14.064  72.308  1.00  0.00    -0.655 C  
BRANCH  13  14
HETATM   14  C   UNL     1     -13.588  15.198  71.393  1.00  0.00    -0.570 C  
BRANCH  14  15
HETATM   15  C   UNL     1     -12.296  15.886  71.736  1.00  0.00    -0.533 C  
HETATM   16  C   UNL     1     -11.194  15.809  70.969  1.00  0.00    -0.396 C  
BRANCH  16  17
HETATM   17  C   UNL     1     -11.095  14.986  69.720  1.00  0.00    -0.297 C  
BRANCH  17  18
HETATM   18  C   UNL     1      -9.741  15.055  69.070  1.00  0.00    -0.229 C  
HETATM   19  C   UNL     1      -9.526  15.686  67.901  1.00  0.00    -0.204 C  
BRANCH  19  20
HETATM   20  C   UNL     1     -10.637  16.386  67.165  1.00  0.00    -0.276 C  
BRANCH  20  21
HETATM   21  C   UNL     1     -10.213  17.626  66.388  1.00  0.00    -0.364 C  
HETATM   22  C   UNL     1     -10.466  18.851  67.240  1.00  0.00    -0.439 C  
HETATM   23  O   UNL     1     -10.650  19.976  66.508  1.00  0.00    -0.448 OA 
HETATM   24  O   UNL     1     -10.482  18.866  68.458  1.00  0.00    -0.313 OA 
ENDBRANCH  20  21
ENDBRANCH  19  20
ENDBRANCH  17  18
ENDBRANCH  16  17
ENDBRANCH  14  15
ENDBRANCH  13  14
ENDBRANCH  11  12
ENDBRANCH  10  11
ENDBRANCH   8   9
ENDBRANCH   7   8
ENDBRANCH   5   6
ENDBRANCH   4   5
ENDBRANCH   2   3
TORSDOF 13
ENDMDL
MODEL        2
REMARK 921   NORMALIZED FREE ENERGY PREDICTED BY IDOCK:   -5.42 KCAL/MOL
REMARK 922        TOTAL FREE ENERGY PREDICTED BY IDOCK:  -12.31 KCAL/MOL
REMARK 923 INTER-LIGAND FREE ENERGY PREDICTED BY IDOCK:   -9.77 KCAL/MOL
REMARK 924 INTRA-LIGAND FREE ENERGY PREDICTED BY IDOCK:   -2.54 KCAL/MOL
REMARK 927      BINDING AFFINITY PREDICTED BY RF-SCORE:    0.00 PKD
ROOT
HETATM    1  C   UNL     1     -10.417  19.667  66.823  1.00  0.00    -0.605 C  
HETATM    2  C   UNL     1     -10.009  18.922  68.084  1.00  0.00    -0.431 C  
ENDROOT
BRANCH   2   3
HETATM    3  C   UNL     1      -9.477  17.547  67.794  1.00  0.00    -0.269 C  
HETATM    4  C   UNL     1     -10.097  16.393  68.094  1.00  0.00    -0.251 C  
BRANCH   4   5
HETATM    5  C   UNL     1     -11.387  16.268  68.855  1.00  0.00    -0.317 C  
BRANCH   5   6
HETATM    6  C   UNL     1     -11.156  16.180  70.339  1.00  0.00    -0.362 C  
HETATM    7  C   UNL     1     -12.026  15.711  71.252  1.00  0.00    -0.467 C  
BRANCH   7   8
HETATM    8  C   UNL     1     -13.408  15.219  70.936  1.00  0.00    -0.475 C  
BRANCH   8   9
HETATM    9  C   UNL     1     -14.017  14.449  72.070  1.00  0.00    -0.592 C  
HETATM   10  C   UNL     1     -13.765  13.170  72.397  1.00  0.00    -0.640 C  
BRANCH  10  11
HETATM   11  C   UNL     1     -12.765  12.250  71.751  1.00  0.00    -0.257 C  
BRANCH  11  12
HETATM   12  C   UNL     1     -13.128  10.796  71.880  1.00  0.00    -0.557 C  
HETATM   13  C   UNL     1     -12.326   9.745  71.647  1.00  0.00    -0.495 C  
BRANCH  13  14
HETATM   14  C   UNL     1     -10.926   9.823  71.136  1.00  0.00    -0.386 C  
BRANCH  14  15
HETATM   15  C   UNL     1     -10.787   9.343  69.718  1.00  0.00    -0.250 C  
HETATM   16  C   UNL     1     -10.511  10.161  68.687  1.00  0.00    -0.225 C  
BRANCH  16  17
HETATM   17  C   UNL     1     -10.369  11.649  68.810  1.00  0.00    -0.213 C  
BRANCH  17  18
HETATM   18  C   UNL     1     -11.632  12.395  68.476  1.00  0.00    -0.358 C  
HETATM   19  C   UNL     1     -11.801  13.057  67.317  1.00  0.00    -0.419 C  
BRANCH  19  20
HETATM   20  C   UNL     1     -10.730  13.085  66.259  1.00  0.00    -0.290 C  
BRANCH  20  21
HETATM   21  C   UNL     1     -11.234  12.928  64.830  1.00  0.00    -0.336 C  
HETATM   22  C   UNL     1     -11.738  14.268  64.337  1.00  0.00    -0.389 C  
HETATM   23  O   UNL     1     -12.667  14.155  63.357  1.00  0.00    -0.767 OA 
HETATM   24  O   UNL     1     -11.351  15.352  64.735  1.00  0.00    -0.412 OA 
ENDBRANCH  20  21
ENDBRANCH  19  20
ENDBRANCH  17  18
ENDBRANCH  16  17
ENDBRANCH  14  15
ENDBRANCH  13  14
ENDBRANCH  11  12
ENDBRANCH  10  11
ENDBRANCH   8   9
ENDBRANCH   7   8
ENDBRANCH   5   6
ENDBRANCH   4   5
ENDBRANCH   2   3
TORSDOF 13
ENDMDL
MODEL        3
REMARK 921   NORMALIZED FREE ENERGY PREDICTED BY IDOCK:   -5.39 KCAL/MOL
REMARK 922        TOTAL FREE ENERGY PREDICTED BY IDOCK:  -12.26 KCAL/MOL
REMARK 923 INTER-LIGAND FREE ENERGY PREDICTED BY IDOCK:   -9.50 KCAL/MOL
REMARK 924 INTRA-LIGAND FREE ENERGY PREDICTED BY IDOCK:   -2.76 KCAL/MOL
REMARK 927      BINDING AFFINITY PREDICTED BY RF-SCORE:    0.00 PKD
ROOT
HETATM    1  C   UNL     1      -7.896  20.107  67.532  1.00  0.00    -0.344 C  
HETATM    2  C   UNL     1      -9.343  20.348  67.135  1.00  0.00    -0.537 C  
ENDROOT
BRANCH   2   3
HETATM    3  C   UNL     1     -10.298  19.438  67.855  1.00  0.00    -0.542 C  
HETATM    4  C   UNL     1     -10.704  18.233  67.418  1.00  0.00    -0.377 C  
BRANCH   4   5
HETATM    5  C   UNL     1     -10.349  17.621  66.092  1.00  0.00    -0.334 C  
BRANCH   5   6
HETATM    6  C   UNL     1      -9.603  16.325  66.254  1.00  0.00    -0.336 C  
HETATM    7  C   UNL     1      -9.918  15.150  65.679  1.00  0.00    -0.387 C  
BRANCH   7   8
HETATM    8  C   UNL     1     -11.107  14.929  64.791  1.00  0.00    -0.395 C  
BRANCH   8   9
HETATM    9  C   UNL     1     -12.171  14.101  65.450  1.00  0.00    -0.441 C  
HETATM   10  C   UNL     1     -12.266  12.760  65.437  1.00  0.00    -0.532 C  
BRANCH  10  11
HETATM   11  C   UNL     1     -11.293  11.789  64.827  1.00  0.00    -0.313 C  
BRANCH  11  12
HETATM   12  C   UNL     1     -10.082  11.543  65.685  1.00  0.00    -0.278 C  
HETATM   13  C   UNL     1     -10.061  10.960  66.894  1.00  0.00    -0.253 C  
BRANCH  13  14
HETATM   14  C   UNL     1     -11.261  10.506  67.657  1.00  0.00    -0.338 C  
BRANCH  14  15
HETATM   15  C   UNL     1     -11.113  10.675  69.143  1.00  0.00    -0.309 C  
HETATM   16  C   UNL     1     -11.441  11.806  69.793  1.00  0.00    -0.320 C  
BRANCH  16  17
HETATM   17  C   UNL     1     -11.932  13.051  69.117  1.00  0.00    -0.320 C  
BRANCH  17  18
HETATM   18  C   UNL     1     -10.887  14.129  69.029  1.00  0.00    -0.273 C  
HETATM   19  C   UNL     1     -11.021  15.323  69.634  1.00  0.00    -0.291 C  
BRANCH  19  20
HETATM   20  C   UNL     1     -12.233  15.659  70.461  1.00  0.00    -0.437 C  
BRANCH  20  21
HETATM   21  C   UNL     1     -11.935  16.116  71.884  1.00  0.00    -0.583 C  
HETATM   22  C   UNL     1     -12.922  15.463  72.827  1.00  0.00    -0.448 C  
HETATM   23  O   UNL     1     -13.115  16.173  73.965  1.00  0.00    -0.658 OA 
HETATM   24  O   UNL     1     -13.481  14.399  72.630  1.00  0.00    -0.455 OA 
ENDBRANCH  20  21
ENDBRANCH  19  20
ENDBRANCH  17  18
ENDBRANCH  16  17
ENDBRANCH  14  15
ENDBRANCH  13  14
ENDBRANCH  11  12
ENDBRANCH  10  11
ENDBRANCH   8   9
ENDBRANCH   7   8
ENDBRANCH   5   6
ENDBRANCH   4   5
ENDBRANCH   2   3
TORSDOF 13
ENDMDL
MODEL        4
REMARK 921   NORMALIZED FREE ENERGY PREDICTED BY IDOCK:   -5.37 KCAL/MOL
REMARK 922        TOTAL FREE ENERGY PREDICTED BY IDOCK:  -12.23 KCAL/MOL
REMARK 923 INTER-LIGAND FREE ENERGY PREDICTED BY IDOCK:   -8.74 KCAL/MOL
REMARK 924 INTRA-LIGAND FREE ENERGY PREDICTED BY IDOCK:   -3.50 KCAL/MOL
REMARK 927      BINDING AFFINITY PREDICTED BY RF-SCORE:    0.00 PKD
ROOT
HETATM    1  C   UNL     1     -13.931  13.863  72.337  1.00  0.00    -0.633 C  
HETATM    2  C   UNL     1     -13.405  15.260  72.052  1.00  0.00    -0.522 C  
ENDROOT
BRANCH   2   3
HETATM    3  C   UNL     1     -11.909  15.295  71.915  1.00  0.00    -0.493 C  
HETATM    4  C   UNL     1     -11.235  15.332  70.752  1.00  0.00    -0.353 C  
BRANCH   4   5
HETATM    5  C   UNL     1     -11.851  15.251  69.384  1.00  0.00    -0.367 C  
BRANCH   5   6
HETATM    6  C   UNL     1     -11.979  13.829  68.909  1.00  0.00    -0.394 C  
HETATM    7  C   UNL     1     -11.891  13.406  67.636  1.00  0.00    -0.394 C  
BRANCH   7   8
HETATM    8  C   UNL     1     -11.678  14.305  66.453  1.00  0.00    -0.403 C  
BRANCH   8   9
HETATM    9  C   UNL     1     -12.566  13.952  65.296  1.00  0.00    -0.508 C  
HETATM   10  C   UNL     1     -12.230  13.213  64.225  1.00  0.00    -0.463 C  
BRANCH  10  11
HETATM   11  C   UNL     1     -10.920  12.513  63.981  1.00  0.00    -0.443 C  
BRANCH  11  12
HETATM   12  C   UNL     1     -10.836  11.165  64.643  1.00  0.00    -0.295 C  
HETATM   13  C   UNL     1      -9.953  10.785  65.580  1.00  0.00    -0.321 C  
BRANCH  13  14
HETATM   14  C   UNL     1      -8.826  11.617  66.094  1.00  0.00    -0.139 C  
BRANCH  14  15
HETATM   15  C   UNL     1      -8.713  11.595  67.593  1.00  0.00    -0.156 C  
HETATM   16  C   UNL     1      -8.446  12.689  68.328  1.00  0.00    -0.163 C  
BRANCH  16  17
HETATM   17  C   UNL     1      -8.169  14.043  67.748  1.00  0.00    -0.169 C  
BRANCH  17  18
HETATM   18  C   UNL     1      -7.958  15.104  68.794  1.00  0.00    -0.162 C  
HETATM   19  C   UNL     1      -8.463  16.346  68.682  1.00  0.00    -0.229 C  
BRANCH  19  20
HETATM   20  C   UNL     1      -9.294  16.758  67.497  1.00  0.00    -0.231 C  
BRANCH  20  21
HETATM   21  C   UNL     1     -10.047  18.072  67.664  1.00  0.00    -0.352 C  
HETATM   22  C   UNL     1     -10.400  18.614  66.296  1.00  0.00    -0.444 C  
HETATM   23  O   UNL     1     -10.559  19.960  66.285  1.00  0.00    -0.467 OA 
HETATM   24  O   UNL     1     -10.560  17.940  65.294  1.00  0.00    -0.637 OA 
ENDBRANCH  20  21
ENDBRANCH  19  20
ENDBRANCH  17  18
ENDBRANCH  16  17
ENDBRANCH  14  15
ENDBRANCH  13  14
ENDBRANCH  11  12
ENDBRANCH  10  11
ENDBRANCH   8   9
ENDBRANCH   7   8
ENDBRANCH   5   6
ENDBRANCH   4   5
ENDBRANCH   2   3
TORSDOF 13
ENDMDL
MODEL        5
REMARK 921   NORMALIZED FREE ENERGY PREDICTED BY IDOCK:   -5.35 KCAL/MOL
REMARK 922        TOTAL FREE ENERGY PREDICTED BY IDOCK:  -12.20 KCAL/MOL
REMARK 923 INTER-LIGAND FREE ENERGY PREDICTED BY IDOCK:   -9.33 KCAL/MOL
REMARK 924 INTRA-LIGAND FREE ENERGY PREDICTED BY IDOCK:   -2.87 KCAL/MOL
REMARK 927      BINDING AFFINITY PREDICTED BY RF-SCORE:    0.00 PKD
ROOT
HETATM    1  C   UNL     1     -13.813  15.117  72.505  1.00  0.00    -0.602 C  
HETATM    2  C   UNL     1     -13.248  15.314  71.108  1.00  0.00    -0.567 C  
ENDROOT
BRANCH   2   3
HETATM    3  C   UNL     1     -11.839  15.836  71.125  1.00  0.00    -0.471 C  
HETATM    4  C   UNL     1     -11.095  16.103  70.038  1.00  0.00    -0.363 C  
BRANCH   4   5
HETATM    5  C   UNL     1     -11.503  15.838  68.616  1.00  0.00    -0.389 C  
BRANCH   5   6
HETATM    6  C   UNL     1     -10.384  15.232  67.814  1.00  0.00    -0.244 C  
HETATM    7  C   UNL     1     -10.427  14.906  66.510  1.00  0.00    -0.297 C  
BRANCH   7   8
HETATM    8  C   UNL     1     -11.632  15.067  65.632  1.00  0.00    -0.188 C  
BRANCH   8   9
HETATM    9  C   UNL     1     -12.514  13.853  65.636  1.00  0.00    -0.538 C  
HETATM   10  C   UNL     1     -12.464  12.824  64.774  1.00  0.00    -0.539 C  
BRANCH  10  11
HETATM   11  C   UNL     1     -11.470  12.619  63.663  1.00  0.00    -0.563 C  
BRANCH  11  12
HETATM   12  C   UNL     1     -10.877  11.237  63.644  1.00  0.00    -0.410 C  
HETATM   13  C   UNL     1     -10.053  10.705  64.561  1.00  0.00    -0.421 C  
BRANCH  13  14
HETATM   14  C   UNL     1      -9.504  11.422  65.750  1.00  0.00    -0.256 C  
BRANCH  14  15
HETATM   15  C   UNL     1      -9.316  10.527  66.943  1.00  0.00    -0.181 C  
HETATM   16  C   UNL     1     -10.223  10.412  67.928  1.00  0.00    -0.211 C  
BRANCH  16  17
HETATM   17  C   UNL     1     -11.497  11.202  67.994  1.00  0.00    -0.366 C  
BRANCH  17  18
HETATM   18  C   UNL     1     -11.506  12.221  69.100  1.00  0.00    -0.352 C  
HETATM   19  C   UNL     1     -11.999  11.961  70.324  1.00  0.00    -0.416 C  
BRANCH  19  20
HETATM   20  C   UNL     1     -12.569  10.614  70.678  1.00  0.00    -0.454 C  
BRANCH  20  21
HETATM   21  C   UNL     1     -11.562   9.615  71.234  1.00  0.00    -0.466 C  
HETATM   22  C   UNL     1     -12.312   8.452  71.848  1.00  0.00    -0.347 C  
HETATM   23  O   UNL     1     -11.602   7.815  72.811  1.00  0.00    -0.362 OA 
HETATM   24  O   UNL     1     -13.424   8.081  71.517  1.00  0.00    -0.327 OA 
ENDBRANCH  20  21
ENDBRANCH  19  20
ENDBRANCH  17  18
ENDBRANCH  16  17
ENDBRANCH  14  15
ENDBRANCH  13  14
ENDBRANCH  11  12
ENDBRANCH  10  11
ENDBRANCH   8   9
ENDBRANCH   7   8
ENDBRANCH   5   6
ENDBRANCH   4   5
ENDBRANCH   2   3
TORSDOF 13
ENDMDL
MODEL        6
REMARK 921   NORMALIZED FREE ENERGY PREDICTED BY IDOCK:   -5.34 KCAL/MOL
REMARK 922        TOTAL FREE ENERGY PREDICTED BY IDOCK:  -12.18 KCAL/MOL
REMARK 923 INTER-LIGAND FREE ENERGY PREDICTED BY IDOCK:   -9.74 KCAL/MOL
REMARK 924 INTRA-LIGAND FREE ENERGY PREDICTED BY IDOCK:   -2.43 KCAL/MOL
REMARK 927      BINDING AFFINITY PREDICTED BY RF-SCORE:    0.00 PKD
ROOT
HETATM    1  C   UNL     1     -12.398  16.213  73.607  1.00  0.00    -0.667 C  
HETATM    2  C   UNL     1     -13.520  15.302  73.139  1.00  0.00    -0.518 C  
ENDROOT
BRANCH   2   3
HETATM    3  C   UNL     1     -13.708  15.338  71.649  1.00  0.00    -0.600 C  
HETATM    4  C   UNL     1     -13.279  14.399  70.787  1.00  0.00    -0.288 C  
BRANCH   4   5
HETATM    5  C   UNL     1     -12.455  13.196  71.148  1.00  0.00    -0.378 C  
BRANCH   5   6
HETATM    6  C   UNL     1     -13.286  12.118  71.789  1.00  0.00    -0.423 C  
HETATM    7  C   UNL     1     -13.078  10.793  71.695  1.00  0.00    -0.551 C  
BRANCH   7   8
HETATM    8  C   UNL     1     -11.981  10.158  70.893  1.00  0.00    -0.461 C  
BRANCH   8   9
HETATM    9  C   UNL     1     -11.202   9.147  71.682  1.00  0.00    -0.447 C  
HETATM   10  C   UNL     1      -9.913   8.810  71.502  1.00  0.00    -0.370 C  
BRANCH  10  11
HETATM   11  C   UNL     1      -8.945   9.420  70.525  1.00  0.00    -0.303 C  
BRANCH  11  12
HETATM   12  C   UNL     1      -8.426   8.437  69.512  1.00  0.00    -0.124 C  
HETATM   13  C   UNL     1      -9.016   8.088  68.358  1.00  0.00    -0.133 C  
BRANCH  13  14
HETATM   14  C   UNL     1     -10.353   8.560  67.893  1.00  0.00    -0.281 C  
BRANCH  14  15
HETATM   15  C   UNL     1     -10.316   9.181  66.524  1.00  0.00    -0.269 C  
HETATM   16  C   UNL     1     -10.154  10.499  66.317  1.00  0.00    -0.290 C  
BRANCH  16  17
HETATM   17  C   UNL     1     -10.055  11.516  67.414  1.00  0.00    -0.213 C  
BRANCH  17  18
HETATM   18  C   UNL     1     -11.391  12.052  67.850  1.00  0.00    -0.369 C  
HETATM   19  C   UNL     1     -11.805  13.298  67.556  1.00  0.00    -0.403 C  
BRANCH  19  20
HETATM   20  C   UNL     1     -10.956  14.245  66.752  1.00  0.00    -0.304 C  
BRANCH  20  21
HETATM   21  C   UNL     1     -11.423  14.469  65.319  1.00  0.00    -0.355 C  
HETATM   22  C   UNL     1     -10.901  15.805  64.835  1.00  0.00    -0.413 C  
HETATM   23  O   UNL     1     -11.660  16.344  63.851  1.00  0.00    -1.100 OA 
HETATM   24  O   UNL     1      -9.894  16.354  65.245  1.00  0.00    -0.482 OA 
ENDBRANCH  20  21
ENDBRANCH  19  20
ENDBRANCH  17  18
ENDBRANCH  16  17
ENDBRANCH  14  15
ENDBRANCH  13  14
ENDBRANCH  11  12
ENDBRANCH  10  11
ENDBRANCH   8   9
ENDBRANCH   7   8
ENDBRANCH   5   6
ENDBRANCH   4   5
ENDBRANCH   2   3
TORSDOF 13
ENDMDL
MODEL        7
REMARK 921   NORMALIZED FREE ENERGY PREDICTED BY IDOCK:   -5.34 KCAL/MOL
REMARK 922        TOTAL FREE ENERGY PREDICTED BY IDOCK:  -12.17 KCAL/MOL
REMARK 923 INTER-LIGAND FREE ENERGY PREDICTED BY IDOCK:  -10.06 KCAL/MOL
REMARK 924 INTRA-LIGAND FREE ENERGY PREDICTED BY IDOCK:   -2.11 KCAL/MOL
REMARK 927      BINDING AFFINITY PREDICTED BY RF-SCORE:    0.00 PKD
ROOT
HETATM    1  C   UNL     1     -12.388  15.836  74.517  1.00  0.00    -0.776 C  
HETATM    2  C   UNL     1     -12.657  15.896  73.023  1.00  0.00    -0.606 C  
ENDROOT
BRANCH   2   3
HETATM    3  C   UNL     1     -14.016  15.368  72.660  1.00  0.00    -0.590 C  
HETATM    4  C   UNL     1     -14.253  14.233  71.979  1.00  0.00    -0.631 C  
BRANCH   4   5
HETATM    5  C   UNL     1     -13.204  13.340  71.380  1.00  0.00    -0.304 C  
BRANCH   5   6
HETATM    6  C   UNL     1     -13.187  11.981  72.025  1.00  0.00    -0.481 C  
HETATM    7  C   UNL     1     -12.804  10.831  71.445  1.00  0.00    -0.557 C  
BRANCH   7   8
HETATM    8  C   UNL     1     -12.353  10.706  70.019  1.00  0.00    -0.341 C  
BRANCH   8   9
HETATM    9  C   UNL     1     -10.902  10.340  69.905  1.00  0.00    -0.355 C  
HETATM   10  C   UNL     1     -10.197  10.201  68.770  1.00  0.00    -0.200 C  
BRANCH  10  11
HETATM   11  C   UNL     1     -10.681  10.453  67.367  1.00  0.00    -0.338 C  
BRANCH  11  12
HETATM   12  C   UNL     1      -9.900   9.698  66.326  1.00  0.00    -0.323 C  
HETATM   13  C   UNL     1      -9.558  10.137  65.105  1.00  0.00    -0.354 C  
BRANCH  13  14
HETATM   14  C   UNL     1      -9.960  11.448  64.513  1.00  0.00    -0.318 C  
BRANCH  14  15
HETATM   15  C   UNL     1     -11.128  11.337  63.573  1.00  0.00    -0.261 C  
HETATM   16  C   UNL     1     -12.226  12.107  63.669  1.00  0.00    -0.663 C  
BRANCH  16  17
HETATM   17  C   UNL     1     -12.451  13.120  64.751  1.00  0.00    -0.460 C  
BRANCH  17  18
HETATM   18  C   UNL     1     -12.205  14.533  64.301  1.00  0.00    -0.441 C  
HETATM   19  C   UNL     1     -11.255  15.315  64.845  1.00  0.00    -0.422 C  
BRANCH  19  20
HETATM   20  C   UNL     1     -10.355  14.817  65.944  1.00  0.00    -0.335 C  
BRANCH  20  21
HETATM   21  C   UNL     1     -10.482  15.561  67.267  1.00  0.00    -0.279 C  
HETATM   22  C   UNL     1     -11.559  14.901  68.101  1.00  0.00    -0.334 C  
HETATM   23  O   UNL     1     -12.125  15.745  68.997  1.00  0.00    -0.349 OA 
HETATM   24  O   UNL     1     -11.888  13.731  68.022  1.00  0.00    -0.341 OA 
ENDBRANCH  20  21
ENDBRANCH  19  20
ENDBRANCH  17  18
ENDBRANCH  16  17
ENDBRANCH  14  15
ENDBRANCH  13  14
ENDBRANCH  11  12
ENDBRANCH  10  11
ENDBRANCH   8   9
ENDBRANCH   7   8
ENDBRANCH   5   6
ENDBRANCH   4   5
ENDBRANCH   2   3
TORSDOF 13
ENDMDL
MODEL        8
REMARK 921   NORMALIZED FREE ENERGY PREDICTED BY IDOCK:   -5.34 KCAL/MOL
REMARK 922        TOTAL FREE ENERGY PREDICTED BY IDOCK:  -12.17 KCAL/MOL
REMARK 923 INTER-LIGAND FREE ENERGY PREDICTED BY IDOCK:   -9.08 KCAL/MOL
REMARK 924 INTRA-LIGAND FREE ENERGY PREDICTED BY IDOCK:   -3.09 KCAL/MOL
REMARK 927      BINDING AFFINITY PREDICTED BY RF-SCORE:    0.00 PKD
ROOT
HETATM    1  C   UNL     1     -10.508  11.478  63.602  1.00  0.00    -0.483 C  
HETATM    2  C   UNL     1     -11.574  12.552  63.464  1.00  0.00    -0.584 C  
ENDROOT
BRANCH   2   3
HETATM    3  C   UNL     1     -12.527  12.571  64.625  1.00  0.00    -0.539 C  
HETATM    4  C   UNL     1     -12.504  13.455  65.637  1.00  0.00    -0.519 C  
BRANCH   4   5
HETATM    5  C   UNL     1     -11.467  14.524  65.838  1.00  0.00    -0.345 C  
BRANCH   5   6
HETATM    6  C   UNL     1     -10.493  14.165  66.927  1.00  0.00    -0.272 C  
HETATM    7  C   UNL     1     -10.622  14.453  68.234  1.00  0.00    -0.243 C  
BRANCH   7   8
HETATM    8  C   UNL     1     -11.764  15.224  68.827  1.00  0.00    -0.374 C  
BRANCH   8   9
HETATM    9  C   UNL     1     -11.458  15.738  70.203  1.00  0.00    -0.366 C  
HETATM   10  C   UNL     1     -12.319  15.839  71.231  1.00  0.00    -0.493 C  
BRANCH  10  11
HETATM   11  C   UNL     1     -13.755  15.391  71.257  1.00  0.00    -0.558 C  
BRANCH  11  12
HETATM   12  C   UNL     1     -14.040  14.374  72.328  1.00  0.00    -0.609 C  
HETATM   13  C   UNL     1     -13.640  13.093  72.345  1.00  0.00    -0.667 C  
BRANCH  13  14
HETATM   14  C   UNL     1     -12.888  12.407  71.253  1.00  0.00    -0.337 C  
BRANCH  14  15
HETATM   15  C   UNL     1     -12.808  10.918  71.437  1.00  0.00    -0.554 C  
HETATM   16  C   UNL     1     -11.917  10.142  70.795  1.00  0.00    -0.442 C  
BRANCH  16  17
HETATM   17  C   UNL     1     -10.942  10.650  69.776  1.00  0.00    -0.340 C  
BRANCH  17  18
HETATM   18  C   UNL     1     -11.555  10.858  68.419  1.00  0.00    -0.346 C  
HETATM   19  C   UNL     1     -10.886  10.629  67.275  1.00  0.00    -0.345 C  
BRANCH  19  20
HETATM   20  C   UNL     1      -9.465  10.131  67.276  1.00  0.00    -0.178 C  
BRANCH  20  21
HETATM   21  C   UNL     1      -8.431  11.132  66.777  1.00  0.00    -0.153 C  
HETATM   22  C   UNL     1      -7.644  11.656  67.958  1.00  0.00    -0.117 C  
HETATM   23  O   UNL     1      -7.115  12.884  67.739  1.00  0.00    -0.106 OA 
HETATM   24  O   UNL     1      -7.460  11.053  69.001  1.00  0.00    -0.113 OA 
ENDBRANCH  20  21
ENDBRANCH  19  20
ENDBRANCH  17  18
ENDBRANCH  16  17
ENDBRANCH  14  15
ENDBRANCH  13  14
ENDBRANCH  11  12
ENDBRANCH  10  11
ENDBRANCH   8   9
ENDBRANCH   7   8
ENDBRANCH   5   6
ENDBRANCH   4   5
ENDBRANCH   2   3
TORSDOF 13
ENDMDL
MODEL        9
REMARK 921   NORMALIZED FREE ENERGY PREDICTED BY IDOCK:   -5.33 KCAL/MOL
REMARK 922        TOTAL FREE ENERGY PREDICTED BY IDOCK:  -12.15 KCAL/MOL
REMARK 923 INTER-LIGAND FREE ENERGY PREDICTED BY IDOCK:   -9.65 KCAL/MOL
REMARK 924 INTRA-LIGAND FREE ENERGY PREDICTED BY IDOCK:   -2.51 KCAL/MOL
REMARK 927      BINDING AFFINITY PREDICTED BY RF-SCORE:    0.00 PKD
ROOT
HETATM    1  C   UNL     1     -12.354  15.390  74.170  1.00  0.00    -0.800 C  
HETATM    2  C   UNL     1     -11.884  15.746  72.770  1.00  0.00    -0.584 C  
ENDROOT
BRANCH   2   3
HETATM    3  C   UNL     1     -12.999  15.713  71.762  1.00  0.00    -0.541 C  
HETATM    4  C   UNL     1     -13.360  14.640  71.037  1.00  0.00    -0.410 C  
BRANCH   4   5
HETATM    5  C   UNL     1     -12.658  13.312  71.034  1.00  0.00    -0.408 C  
BRANCH   5   6
HETATM    6  C   UNL     1     -13.297  12.337  71.985  1.00  0.00    -0.491 C  
HETATM    7  C   UNL     1     -13.244  10.996  71.903  1.00  0.00    -0.503 C  
BRANCH   7   8
HETATM    8  C   UNL     1     -12.551  10.237  70.809  1.00  0.00    -0.442 C  
BRANCH   8   9
HETATM    9  C   UNL     1     -11.711   9.110  71.334  1.00  0.00    -0.413 C  
HETATM   10  C   UNL     1     -10.453   8.811  70.969  1.00  0.00    -0.293 C  
BRANCH  10  11
HETATM   11  C   UNL     1      -9.580   9.579  70.014  1.00  0.00    -0.272 C  
BRANCH  11  12
HETATM   12  C   UNL     1      -9.914   9.326  68.570  1.00  0.00    -0.193 C  
HETATM   13  C   UNL     1     -10.189  10.250  67.636  1.00  0.00    -0.247 C  
BRANCH  13  14
HETATM   14  C   UNL     1     -10.288  11.720  67.877  1.00  0.00    -0.209 C  
BRANCH  14  15
HETATM   15  C   UNL     1     -11.657  12.273  67.593  1.00  0.00    -0.421 C  
HETATM   16  C   UNL     1     -11.894  13.577  67.370  1.00  0.00    -0.423 C  
BRANCH  16  17
HETATM   17  C   UNL     1     -10.843  14.645  67.437  1.00  0.00    -0.298 C  
BRANCH  17  18
HETATM   18  C   UNL     1     -10.727  15.280  68.795  1.00  0.00    -0.241 C  
HETATM   19  C   UNL     1     -10.634  16.610  68.971  1.00  0.00    -0.340 C  
BRANCH  19  20
HETATM   20  C   UNL     1     -10.654  17.565  67.807  1.00  0.00    -0.375 C  
BRANCH  20  21
HETATM   21  C   UNL     1     -10.467  19.032  68.174  1.00  0.00    -0.402 C  
HETATM   22  C   UNL     1     -10.305  19.840  66.905  1.00  0.00    -0.476 C  
HETATM   23  O   UNL     1      -9.614  20.990  67.094  1.00  0.00    -0.360 OA 
HETATM   24  O   UNL     1     -10.758  19.534  65.817  1.00  0.00    -0.503 OA 
ENDBRANCH  20  21
ENDBRANCH  19  20
ENDBRANCH  17  18
ENDBRANCH  16  17
ENDBRANCH  14  15
ENDBRANCH  13  14
ENDBRANCH  11  12
ENDBRANCH  10  11
ENDBRANCH   8   9
ENDBRANCH   7   8
ENDBRANCH   5   6
ENDBRANCH   4   5
ENDBRANCH   2   3
TORSDOF 13
ENDMDL
MODEL       10
REMARK 921   NORMALIZED FREE ENERGY PREDICTED BY IDOCK:   -5.33 KCAL/MOL
REMARK 922        TOTAL FREE ENERGY PREDICTED BY IDOCK:  -12.15 KCAL/MOL
REMARK 923 INTER-LIGAND FREE ENERGY PREDICTED BY IDOCK:   -9.97 KCAL/MOL
REMARK 924 INTRA-LIGAND FREE ENERGY PREDICTED BY IDOCK:   -2.18 KCAL/MOL
REMARK 927      BINDING AFFINITY PREDICTED BY RF-SCORE:    0.00 PKD
ROOT
HETATM    1  C   UNL     1     -14.256  15.398  72.011  1.00  0.00    -0.650 C  
HETATM    2  C   UNL     1     -13.310  14.285  71.594  1.00  0.00    -0.442 C  
ENDROOT
BRANCH   2   3
HETATM    3  C   UNL     1     -13.609  12.985  72.285  1.00  0.00    -0.643 C  
HETATM    4  C   UNL     1     -13.169  11.777  71.894  1.00  0.00    -0.468 C  
BRANCH   4   5
HETATM    5  C   UNL     1     -12.380  11.498  70.646  1.00  0.00    -0.457 C  
BRANCH   5   6
HETATM    6  C   UNL     1     -11.503  10.285  70.796  1.00  0.00    -0.438 C  
HETATM    7  C   UNL     1     -10.832   9.663  69.811  1.00  0.00    -0.274 C  
BRANCH   7   8
HETATM    8  C   UNL     1     -10.875  10.066  68.366  1.00  0.00    -0.277 C  
BRANCH   8   9
HETATM    9  C   UNL     1     -10.539   8.932  67.442  1.00  0.00    -0.305 C  
HETATM   10  C   UNL     1      -9.963   9.029  66.232  1.00  0.00    -0.352 C  
BRANCH  10  11
HETATM   11  C   UNL     1      -9.459  10.280  65.565  1.00  0.00    -0.277 C  
BRANCH  11  12
HETATM   12  C   UNL     1      -9.424  10.180  64.064  1.00  0.00    -0.341 C  
HETATM   13  C   UNL     1      -9.942  11.056  63.190  1.00  0.00    -0.382 C  
BRANCH  13  14
HETATM   14  C   UNL     1     -10.726  12.275  63.548  1.00  0.00    -0.497 C  
BRANCH  14  15
HETATM   15  C   UNL     1     -12.162  11.976  63.880  1.00  0.00    -0.555 C  
HETATM   16  C   UNL     1     -12.867  12.669  64.790  1.00  0.00    -0.349 C  
BRANCH  16  17
HETATM   17  C   UNL     1     -12.300  13.776  65.628  1.00  0.00    -0.517 C  
BRANCH  17  18
HETATM   18  C   UNL     1     -11.762  13.304  66.951  1.00  0.00    -0.437 C  
HETATM   19  C   UNL     1     -10.554  13.669  67.417  1.00  0.00    -0.260 C  
BRANCH  19  20
HETATM   20  C   UNL     1      -9.655  14.596  66.644  1.00  0.00    -0.294 C  
BRANCH  20  21
HETATM   21  C   UNL     1      -9.800  16.072  66.992  1.00  0.00    -0.240 C  
HETATM   22  C   UNL     1     -10.163  16.839  65.739  1.00  0.00    -0.291 C  
HETATM   23  O   UNL     1      -9.791  18.141  65.790  1.00  0.00    -0.527 OA 
HETATM   24  O   UNL     1     -10.752  16.376  64.779  1.00  0.00    -0.700 OA 
ENDBRANCH  20  21
ENDBRANCH  19  20
ENDBRANCH  17  18
ENDBRANCH  16  17
ENDBRANCH  14  15
ENDBRANCH  13  14
ENDBRANCH  11  12
ENDBRANCH  10  11
ENDBRANCH   8   9
ENDBRANCH   7   8
ENDBRANCH   5   6
ENDBRANCH   4   5
ENDBRANCH   2   3
TORSDOF 13
ENDMDL
MODEL       11
REMARK 921   NORMALIZED FREE ENERGY PREDICTED BY IDOCK:   -5.31 KCAL/MOL
REMARK 922        TOTAL FREE ENERGY PREDICTED BY IDOCK:  -12.11 KCAL/MOL
REMARK 923 INTER-LIGAND FREE ENERGY PREDICTED BY IDOCK:   -9.44 KCAL/MOL
REMARK 924 INTRA-LIGAND FREE ENERGY PREDICTED BY IDOCK:   -2.68 KCAL/MOL
REMARK 927      BINDING AFFINITY PREDICTED BY RF-SCORE:    0.00 PKD
ROOT
HETATM    1  C   UNL     1     -10.613  11.430  63.687  1.00  0.00    -0.476 C  
HETATM    2  C   UNL     1     -11.645  12.542  63.590  1.00  0.00    -0.580 C  
ENDROOT
BRANCH   2   3
HETATM    3  C   UNL     1     -12.552  12.593  64.788  1.00  0.00    -0.530 C  
HETATM    4  C   UNL     1     -12.475  13.492  65.784  1.00  0.00    -0.514 C  
BRANCH   4   5
HETATM    5  C   UNL     1     -11.414  14.547  65.927  1.00  0.00    -0.345 C  
BRANCH   5   6
HETATM    6  C   UNL     1     -10.391  14.178  66.967  1.00  0.00    -0.267 C  
HETATM    7  C   UNL     1     -10.467  14.440  68.283  1.00  0.00    -0.245 C  
BRANCH   7   8
HETATM    8  C   UNL     1     -11.592  15.187  68.939  1.00  0.00    -0.361 C  
BRANCH   8   9
HETATM    9  C   UNL     1     -11.210  15.740  70.281  1.00  0.00    -0.377 C  
HETATM   10  C   UNL     1     -12.014  15.878  71.348  1.00  0.00    -0.515 C  
BRANCH  10  11
HETATM   11  C   UNL     1     -13.450  15.443  71.464  1.00  0.00    -0.601 C  
BRANCH  11  12
HETATM   12  C   UNL     1     -13.663  14.368  72.494  1.00  0.00    -0.589 C  
HETATM   13  C   UNL     1     -13.385  13.062  72.360  1.00  0.00    -0.563 C  
BRANCH  13  14
HETATM   14  C   UNL     1     -12.874  12.410  71.119  1.00  0.00    -0.299 C  
BRANCH  14  15
HETATM   15  C   UNL     1     -12.776  10.914  71.235  1.00  0.00    -0.542 C  
HETATM   16  C   UNL     1     -11.822  10.188  70.628  1.00  0.00    -0.431 C  
BRANCH  16  17
HETATM   17  C   UNL     1     -10.780  10.764  69.716  1.00  0.00    -0.241 C  
BRANCH  17  18
HETATM   18  C   UNL     1     -11.288  11.025  68.325  1.00  0.00    -0.366 C  
HETATM   19  C   UNL     1     -10.913  10.288  67.264  1.00  0.00    -0.277 C  
BRANCH  19  20
HETATM   20  C   UNL     1      -9.960   9.131  67.402  1.00  0.00    -0.262 C  
BRANCH  20  21
HETATM   21  C   UNL     1     -10.531   7.775  67.004  1.00  0.00    -0.419 C  
HETATM   22  C   UNL     1     -10.500   6.857  68.206  1.00  0.00    -0.206 C  
HETATM   23  O   UNL     1     -10.454   5.545  67.868  1.00  0.00    -0.207 OA 
HETATM   24  O   UNL     1     -10.538   7.221  69.368  1.00  0.00    -0.222 OA 
ENDBRANCH  20  21
ENDBRANCH  19  20
ENDBRANCH  17  18
ENDBRANCH  16  17
ENDBRANCH  14  15
ENDBRANCH  13  14
ENDBRANCH  11  12
ENDBRANCH  10  11
ENDBRANCH   8   9
ENDBRANCH   7   8
ENDBRANCH   5   6
ENDBRANCH   4   5
ENDBRANCH   2   3
TORSDOF 13
ENDMDL
MODEL       12
REMARK 921   NORMALIZED FREE ENERGY PREDICTED BY IDOCK:   -5.30 KCAL/MOL
REMARK 922        TOTAL FREE ENERGY PREDICTED BY IDOCK:  -12.10 KCAL/MOL
REMARK 923 INTER-LIGAND FREE ENERGY PREDICTED BY IDOCK:   -9.50 KCAL/MOL
REMARK 924 INTRA-LIGAND FREE ENERGY PREDICTED BY IDOCK:   -2.59 KCAL/MOL
REMARK 927      BINDING AFFINITY PREDICTED BY RF-SCORE:    0.00 PKD
ROOT
HETATM    1  C   UNL     1     -10.567   9.512  67.910  1.00  0.00    -0.299 C  
HETATM    2  C   UNL     1     -10.472  10.499  66.758  1.00  0.00    -0.302 C  
ENDROOT
BRANCH   2   3
HETATM    3  C   UNL     1      -9.954   9.866  65.498  1.00  0.00    -0.363 C  
HETATM    4  C   UNL     1      -9.731  10.509  64.339  1.00  0.00    -0.388 C  
BRANCH   4   5
HETATM    5  C   UNL     1     -10.047  11.953  64.068  1.00  0.00    -0.361 C  
BRANCH   5   6
HETATM    6  C   UNL     1     -11.360  12.116  63.353  1.00  0.00    -0.495 C  
HETATM    7  C   UNL     1     -12.250  13.106  63.543  1.00  0.00    -0.552 C  
BRANCH   7   8
HETATM    8  C   UNL     1     -12.091  14.214  64.542  1.00  0.00    -0.489 C  
BRANCH   8   9
HETATM    9  C   UNL     1     -12.715  13.889  65.867  1.00  0.00    -0.466 C  
HETATM   10  C   UNL     1     -12.097  13.865  67.060  1.00  0.00    -0.451 C  
BRANCH  10  11
HETATM   11  C   UNL     1     -10.665  14.229  67.346  1.00  0.00    -0.282 C  
BRANCH  11  12
HETATM   12  C   UNL     1     -10.479  15.683  67.685  1.00  0.00    -0.283 C  
HETATM   13  C   UNL     1     -10.611  16.247  68.896  1.00  0.00    -0.284 C  
BRANCH  13  14
HETATM   14  C   UNL     1     -11.044  15.540  70.137  1.00  0.00    -0.337 C  
BRANCH  14  15
HETATM   15  C   UNL     1     -12.532  15.575  70.346  1.00  0.00    -0.443 C  
HETATM   16  C   UNL     1     -13.209  14.608  70.991  1.00  0.00    -0.431 C  
BRANCH  16  17
HETATM   17  C   UNL     1     -12.580  13.355  71.523  1.00  0.00    -0.331 C  
BRANCH  17  18
HETATM   18  C   UNL     1     -12.256  12.352  70.451  1.00  0.00    -0.370 C  
HETATM   19  C   UNL     1     -12.506  11.037  70.586  1.00  0.00    -0.465 C  
BRANCH  19  20
HETATM   20  C   UNL     1     -13.147  10.477  71.828  1.00  0.00    -0.570 C  
BRANCH  20  21
HETATM   21  C   UNL     1     -13.572   9.017  71.730  1.00  0.00    -0.468 C  
HETATM   22  C   UNL     1     -12.352   8.137  71.900  1.00  0.00    -0.332 C  
HETATM   23  O   UNL     1     -12.488   6.924  71.312  1.00  0.00    -0.367 OA 
HETATM   24  O   UNL     1     -11.348   8.443  72.518  1.00  0.00    -0.375 OA 
ENDBRANCH  20  21
ENDBRANCH  19  20
ENDBRANCH  17  18
ENDBRANCH  16  17
ENDBRANCH  14  15
ENDBRANCH  13  14
ENDBRANCH  11  12
ENDBRANCH  10  11
ENDBRANCH   8   9
ENDBRANCH   7   8
ENDBRANCH   5   6
ENDBRANCH   4   5
ENDBRANCH   2   3
TORSDOF 13
ENDMDL
MODEL       13
REMARK 921   NORMALIZED FREE ENERGY PREDICTED BY IDOCK:   -5.28 KCAL/MOL
REMARK 922        TOTAL FREE ENERGY PREDICTED BY IDOCK:  -12.06 KCAL/MOL
REMARK 923 INTER-LIGAND FREE ENERGY PREDICTED BY IDOCK:  -10.10 KCAL/MOL
REMARK 924 INTRA-LIGAND FREE ENERGY PREDICTED BY IDOCK:   -1.97 KCAL/MOL
REMARK 927      BINDING AFFINITY PREDICTED BY RF-SCORE:    0.00 PKD
ROOT
HETATM    1  C   UNL     1     -12.358  15.543  74.154  1.00  0.00    -0.806 C  
HETATM    2  C   UNL     1     -12.168  15.864  72.681  1.00  0.00    -0.603 C  
ENDROOT
BRANCH   2   3
HETATM    3  C   UNL     1     -13.422  15.659  71.879  1.00  0.00    -0.537 C  
HETATM    4  C   UNL     1     -13.748  14.535  71.218  1.00  0.00    -0.407 C  
BRANCH   4   5
HETATM    5  C   UNL     1     -12.877  13.318  71.084  1.00  0.00    -0.363 C  
BRANCH   5   6
HETATM    6  C   UNL     1     -13.270  12.237  72.054  1.00  0.00    -0.508 C  
HETATM    7  C   UNL     1     -13.109  10.914  71.877  1.00  0.00    -0.537 C  
BRANCH   7   8
HETATM    8  C   UNL     1     -12.530  10.285  70.645  1.00  0.00    -0.407 C  
BRANCH   8   9
HETATM    9  C   UNL     1     -11.094   9.887  70.822  1.00  0.00    -0.417 C  
HETATM   10  C   UNL     1     -10.636   8.813  71.488  1.00  0.00    -0.379 C  
BRANCH  10  11
HETATM   11  C   UNL     1     -11.456   7.732  72.137  1.00  0.00    -0.361 C  
BRANCH  11  12
HETATM   12  C   UNL     1     -11.020   6.345  71.753  1.00  0.00    -0.298 C  
HETATM   13  C   UNL     1     -10.933   5.846  70.510  1.00  0.00    -0.362 C  
BRANCH  13  14
HETATM   14  C   UNL     1     -11.332   6.561  69.262  1.00  0.00    -0.359 C  
BRANCH  14  15
HETATM   15  C   UNL     1     -10.321   6.427  68.157  1.00  0.00    -0.231 C  
HETATM   16  C   UNL     1      -9.997   7.434  67.327  1.00  0.00    -0.259 C  
BRANCH  16  17
HETATM   17  C   UNL     1     -10.642   8.787  67.358  1.00  0.00    -0.304 C  
BRANCH  17  18
HETATM   18  C   UNL     1      -9.664   9.905  67.593  1.00  0.00    -0.183 C  
HETATM   19  C   UNL     1      -9.737  11.084  66.949  1.00  0.00    -0.215 C  
BRANCH  19  20
HETATM   20  C   UNL     1     -10.823  11.371  65.947  1.00  0.00    -0.292 C  
BRANCH  20  21
HETATM   21  C   UNL     1     -11.870  12.379  66.405  1.00  0.00    -0.421 C  
HETATM   22  C   UNL     1     -12.653  12.855  65.201  1.00  0.00    -0.471 C  
HETATM   23  O   UNL     1     -13.195  14.085  65.375  1.00  0.00    -0.761 OA 
HETATM   24  O   UNL     1     -12.823  12.217  64.177  1.00  0.00    -0.616 OA 
ENDBRANCH  20  21
ENDBRANCH  19  20
ENDBRANCH  17  18
ENDBRANCH  16  17
ENDBRANCH  14  15
ENDBRANCH  13  14
ENDBRANCH  11  12
ENDBRANCH  10  11
ENDBRANCH   8   9
ENDBRANCH   7   8
ENDBRANCH   5   6
ENDBRANCH   4   5
ENDBRANCH   2   3
TORSDOF 13
ENDMDL
MODEL       14
REMARK 921   NORMALIZED FREE ENERGY PREDICTED BY IDOCK:   -5.27 KCAL/MOL
REMARK 922        TOTAL FREE ENERGY PREDICTED BY IDOCK:  -12.06 KCAL/MOL
REMARK 923 INTER-LIGAND FREE ENERGY PREDICTED BY IDOCK:   -9.49 KCAL/MOL
REMARK 924 INTRA-LIGAND FREE ENERGY PREDICTED BY IDOCK:   -2.57 KCAL/MOL
REMARK 927      BINDING AFFINITY PREDICTED BY RF-SCORE:    0.00 PKD
ROOT
HETATM    1  C   UNL     1      -6.754  16.882  67.210  1.00  0.00    -0.202 C  
HETATM    2  C   UNL     1      -6.841  18.372  67.495  1.00  0.00    -0.205 C  
ENDROOT
BRANCH   2   3
HETATM    3  C   UNL     1      -7.031  19.188  66.248  1.00  0.00    -0.247 C  
HETATM    4  C   UNL     1      -8.116  19.927  65.960  1.00  0.00    -0.321 C  
BRANCH   4   5
HETATM    5  C   UNL     1      -9.369  19.997  66.787  1.00  0.00    -0.510 C  
BRANCH   5   6
HETATM    6  C   UNL     1     -10.311  18.866  66.477  1.00  0.00    -0.493 C  
HETATM    7  C   UNL     1     -10.759  17.945  67.347  1.00  0.00    -0.306 C  
BRANCH   7   8
HETATM    8  C   UNL     1     -10.361  17.873  68.791  1.00  0.00    -0.311 C  
BRANCH   8   9
HETATM    9  C   UNL     1      -9.984  16.484  69.216  1.00  0.00    -0.244 C  
HETATM   10  C   UNL     1     -10.694  15.670  70.015  1.00  0.00    -0.345 C  
BRANCH  10  11
HETATM   11  C   UNL     1     -12.055  15.935  70.600  1.00  0.00    -0.367 C  
BRANCH  11  12
HETATM   12  C   UNL     1     -12.134  15.642  72.073  1.00  0.00    -0.529 C  
HETATM   13  C   UNL     1     -12.840  14.662  72.660  1.00  0.00    -0.499 C  
BRANCH  13  14
HETATM   14  C   UNL     1     -13.750  13.712  71.956  1.00  0.00    -0.583 C  
BRANCH  14  15
HETATM   15  C   UNL     1     -13.283  12.285  72.027  1.00  0.00    -0.508 C  
HETATM   16  C   UNL     1     -12.530  11.707  71.075  1.00  0.00    -0.436 C  
BRANCH  16  17
HETATM   17  C   UNL     1     -12.117  12.385  69.804  1.00  0.00    -0.292 C  
BRANCH  17  18
HETATM   18  C   UNL     1     -11.599  11.431  68.763  1.00  0.00    -0.378 C  
HETATM   19  C   UNL     1     -11.213  11.830  67.538  1.00  0.00    -0.354 C  
BRANCH  19  20
HETATM   20  C   UNL     1     -11.261  13.277  67.126  1.00  0.00    -0.327 C  
BRANCH  20  21
HETATM   21  C   UNL     1     -12.410  13.644  66.196  1.00  0.00    -0.476 C  
HETATM   22  C   UNL     1     -11.843  14.062  64.856  1.00  0.00    -0.393 C  
HETATM   23  O   UNL     1     -12.664  14.895  64.172  1.00  0.00    -0.750 OA 
HETATM   24  O   UNL     1     -10.779  13.688  64.397  1.00  0.00    -0.410 OA 
ENDBRANCH  20  21
ENDBRANCH  19  20
ENDBRANCH  17  18
ENDBRANCH  16  17
ENDBRANCH  14  15
ENDBRANCH  13  14
ENDBRANCH  11  12
ENDBRANCH  10  11
ENDBRANCH   8   9
ENDBRANCH   7   8
ENDBRANCH   5   6
ENDBRANCH   4   5
ENDBRANCH   2   3
TORSDOF 13
ENDMDL
MODEL       15
REMARK 921   NORMALIZED FREE ENERGY PREDICTED BY IDOCK:   -5.27 KCAL/MOL
REMARK 922        TOTAL FREE ENERGY PREDICTED BY IDOCK:  -12.05 KCAL/MOL
REMARK 923 INTER-LIGAND FREE ENERGY PREDICTED BY IDOCK:   -8.86 KCAL/MOL
REMARK 924 INTRA-LIGAND FREE ENERGY PREDICTED BY IDOCK:   -3.19 KCAL/MOL
REMARK 927      BINDING AFFINITY PREDICTED BY RF-SCORE:    0.00 PKD
ROOT
HETATM    1  C   UNL     1     -10.960   6.202  69.797  1.00  0.00    -0.459 C  
HETATM    2  C   UNL     1     -12.124   6.820  70.554  1.00  0.00    -0.332 C  
ENDROOT
BRANCH   2   3
HETATM    3  C   UNL     1     -11.718   7.362  71.895  1.00  0.00    -0.323 C  
HETATM    4  C   UNL     1     -12.304   8.393  72.528  1.00  0.00    -0.358 C  
BRANCH   4   5
HETATM    5  C   UNL     1     -13.408   9.246  71.969  1.00  0.00    -0.518 C  
BRANCH   5   6
HETATM    6  C   UNL     1     -13.058  10.708  72.001  1.00  0.00    -0.501 C  
HETATM    7  C   UNL     1     -12.514  11.417  70.996  1.00  0.00    -0.486 C  
BRANCH   7   8
HETATM    8  C   UNL     1     -12.130  10.846  69.663  1.00  0.00    -0.400 C  
BRANCH   8   9
HETATM    9  C   UNL     1     -10.685  10.446  69.604  1.00  0.00    -0.304 C  
HETATM   10  C   UNL     1     -10.118   9.622  68.705  1.00  0.00    -0.193 C  
BRANCH  10  11
HETATM   11  C   UNL     1     -10.783   8.980  67.518  1.00  0.00    -0.239 C  
BRANCH  11  12
HETATM   12  C   UNL     1      -9.839   8.724  66.376  1.00  0.00    -0.352 C  
HETATM   13  C   UNL     1      -9.512   9.583  65.398  1.00  0.00    -0.336 C  
BRANCH  13  14
HETATM   14  C   UNL     1     -10.089  10.947  65.216  1.00  0.00    -0.340 C  
BRANCH  14  15
HETATM   15  C   UNL     1     -10.411  11.265  63.782  1.00  0.00    -0.459 C  
HETATM   16  C   UNL     1     -11.466  12.012  63.412  1.00  0.00    -0.489 C  
BRANCH  16  17
HETATM   17  C   UNL     1     -12.482  12.564  64.367  1.00  0.00    -0.530 C  
BRANCH  17  18
HETATM   18  C   UNL     1     -12.274  14.021  64.676  1.00  0.00    -0.460 C  
HETATM   19  C   UNL     1     -11.976  14.468  65.909  1.00  0.00    -0.315 C  
BRANCH  19  20
HETATM   20  C   UNL     1     -11.815  13.528  67.073  1.00  0.00    -0.447 C  
BRANCH  20  21
HETATM   21  C   UNL     1     -10.530  13.707  67.873  1.00  0.00    -0.249 C  
HETATM   22  C   UNL     1     -10.834  14.515  69.116  1.00  0.00    -0.263 C  
HETATM   23  O   UNL     1      -9.754  15.183  69.590  1.00  0.00    -0.213 OA 
HETATM   24  O   UNL     1     -11.915  14.562  69.675  1.00  0.00    -0.293 OA 
ENDBRANCH  20  21
ENDBRANCH  19  20
ENDBRANCH  17  18
ENDBRANCH  16  17
ENDBRANCH  14  15
ENDBRANCH  13  14
ENDBRANCH  11  12
ENDBRANCH  10  11
ENDBRANCH   8   9
ENDBRANCH   7   8
ENDBRANCH   5   6
ENDBRANCH   4   5
ENDBRANCH   2   3
TORSDOF 13
ENDMDL
MODEL       16
REMARK 921   NORMALIZED FREE ENERGY PREDICTED BY IDOCK:   -5.26 KCAL/MOL
REMARK 922        TOTAL FREE ENERGY PREDICTED BY IDOCK:  -12.04 KCAL/MOL
REMARK 923 INTER-LIGAND FREE ENERGY PREDICTED BY IDOCK:   -8.95 KCAL/MOL
REMARK 924 INTRA-LIGAND FREE ENERGY PREDICTED BY IDOCK:   -3.09 KCAL/MOL
REMARK 927      BINDING AFFINITY PREDICTED BY RF-SCORE:    0.00 PKD
ROOT
HETATM    1  C   UNL     1     -10.900   6.620  67.047  1.00  0.00    -0.467 C  
HETATM    2  C   UNL     1     -10.684   7.071  68.482  1.00  0.00    -0.219 C  
ENDROOT
BRANCH   2   3
HETATM    3  C   UNL     1     -11.427   6.219  69.472  1.00  0.00    -0.387 C  
HETATM    4  C   UNL     1     -11.540   6.473  70.787  1.00  0.00    -0.437 C  
BRANCH   4   5
HETATM    5  C   UNL     1     -10.868   7.601  71.519  1.00  0.00    -0.256 C  
BRANCH   5   6
HETATM    6  C   UNL     1     -11.776   8.229  72.540  1.00  0.00    -0.451 C  
HETATM    7  C   UNL     1     -12.717   9.160  72.301  1.00  0.00    -0.447 C  
BRANCH   7   8
HETATM    8  C   UNL     1     -12.997   9.760  70.954  1.00  0.00    -0.300 C  
BRANCH   8   9
HETATM    9  C   UNL     1     -12.361  11.108  70.782  1.00  0.00    -0.504 C  
HETATM   10  C   UNL     1     -11.668  11.536  69.713  1.00  0.00    -0.426 C  
BRANCH  10  11
HETATM   11  C   UNL     1     -11.440  10.793  68.424  1.00  0.00    -0.358 C  
BRANCH  11  12
HETATM   12  C   UNL     1      -9.984  10.652  68.071  1.00  0.00    -0.180 C  
HETATM   13  C   UNL     1      -9.475  10.382  66.859  1.00  0.00    -0.196 C  
BRANCH  13  14
HETATM   14  C   UNL     1     -10.273  10.095  65.630  1.00  0.00    -0.288 C  
BRANCH  14  15
HETATM   15  C   UNL     1      -9.672  10.687  64.385  1.00  0.00    -0.368 C  
HETATM   16  C   UNL     1     -10.368  11.445  63.520  1.00  0.00    -0.476 C  
BRANCH  16  17
HETATM   17  C   UNL     1     -11.832  11.742  63.651  1.00  0.00    -0.498 C  
BRANCH  17  18
HETATM   18  C   UNL     1     -12.148  13.211  63.576  1.00  0.00    -0.585 C  
HETATM   19  C   UNL     1     -12.362  13.966  64.668  1.00  0.00    -0.421 C  
BRANCH  19  20
HETATM   20  C   UNL     1     -12.285  13.389  66.056  1.00  0.00    -0.491 C  
BRANCH  20  21
HETATM   21  C   UNL     1     -11.900  14.381  67.146  1.00  0.00    -0.437 C  
HETATM   22  C   UNL     1     -10.412  14.276  67.401  1.00  0.00    -0.264 C  
HETATM   23  O   UNL     1     -10.060  14.670  68.649  1.00  0.00    -0.225 OA 
HETATM   24  O   UNL     1      -9.584  13.909  66.586  1.00  0.00    -0.270 OA 
ENDBRANCH  20  21
ENDBRANCH  19  20
ENDBRANCH  17  18
ENDBRANCH  16  17
ENDBRANCH  14  15
ENDBRANCH  13  14
ENDBRANCH  11  12
ENDBRANCH  10  11
ENDBRANCH   8   9
ENDBRANCH   7   8
ENDBRANCH   5   6
ENDBRANCH   4   5
ENDBRANCH   2   3
TORSDOF 13
ENDMDL
MODEL       17
REMARK 921   NORMALIZED FREE ENERGY PREDICTED BY IDOCK:   -5.24 KCAL/MOL
REMARK 922        TOTAL FREE ENERGY PREDICTED BY IDOCK:  -12.00 KCAL/MOL
REMARK 923 INTER-LIGAND FREE ENERGY PREDICTED BY IDOCK:   -9.46 KCAL/MOL
REMARK 924 INTRA-LIGAND FREE ENERGY PREDICTED BY IDOCK:   -2.55 KCAL/MOL
REMARK 927      BINDING AFFINITY PREDICTED BY RF-SCORE:    0.00 PKD
ROOT
HETATM    1  C   UNL     1     -11.679  14.823  64.676  1.00  0.00    -0.426 C  
HETATM    2  C   UNL     1     -12.394  13.520  64.992  1.00  0.00    -0.468 C  
ENDROOT
BRANCH   2   3
HETATM    3  C   UNL     1     -12.276  12.514  63.882  1.00  0.00    -0.590 C  
HETATM    4  C   UNL     1     -11.279  11.624  63.742  1.00  0.00    -0.498 C  
BRANCH   4   5
HETATM    5  C   UNL     1     -10.059  11.536  64.615  1.00  0.00    -0.318 C  
BRANCH   5   6
HETATM    6  C   UNL     1     -10.056  10.287  65.452  1.00  0.00    -0.354 C  
HETATM    7  C   UNL     1     -10.551  10.163  66.696  1.00  0.00    -0.214 C  
BRANCH   7   8
HETATM    8  C   UNL     1     -11.172  11.281  67.480  1.00  0.00    -0.357 C  
BRANCH   8   9
HETATM    9  C   UNL     1     -10.149  12.161  68.135  1.00  0.00    -0.206 C  
HETATM   10  C   UNL     1     -10.325  13.430  68.541  1.00  0.00    -0.240 C  
BRANCH  10  11
HETATM   11  C   UNL     1     -11.602  14.226  68.499  1.00  0.00    -0.355 C  
BRANCH  11  12
HETATM   12  C   UNL     1     -11.456  15.612  69.066  1.00  0.00    -0.369 C  
HETATM   13  C   UNL     1     -11.556  15.965  70.357  1.00  0.00    -0.387 C  
BRANCH  13  14
HETATM   14  C   UNL     1     -11.910  15.048  71.480  1.00  0.00    -0.429 C  
BRANCH  14  15
HETATM   15  C   UNL     1     -13.390  14.970  71.734  1.00  0.00    -0.478 C  
HETATM   16  C   UNL     1     -14.013  13.843  72.118  1.00  0.00    -0.639 C  
BRANCH  16  17
HETATM   17  C   UNL     1     -13.330  12.518  72.280  1.00  0.00    -0.475 C  
BRANCH  17  18
HETATM   18  C   UNL     1     -12.829  11.947  70.983  1.00  0.00    -0.291 C  
HETATM   19  C   UNL     1     -12.617  10.631  70.801  1.00  0.00    -0.479 C  
BRANCH  19  20
HETATM   20  C   UNL     1     -12.884   9.629  71.893  1.00  0.00    -0.515 C  
BRANCH  20  21
HETATM   21  C   UNL     1     -11.836   8.531  72.030  1.00  0.00    -0.429 C  
HETATM   22  C   UNL     1     -12.496   7.190  71.794  1.00  0.00    -0.350 C  
HETATM   23  O   UNL     1     -11.847   6.167  72.401  1.00  0.00    -0.303 OA 
HETATM   24  O   UNL     1     -13.489   7.007  71.113  1.00  0.00    -0.287 OA 
ENDBRANCH  20  21
ENDBRANCH  19  20
ENDBRANCH  17  18
ENDBRANCH  16  17
ENDBRANCH  14  15
ENDBRANCH  13  14
ENDBRANCH  11  12
ENDBRANCH  10  11
ENDBRANCH   8   9
ENDBRANCH   7   8
ENDBRANCH   5   6
ENDBRANCH   4   5
ENDBRANCH   2   3
TORSDOF 13
ENDMDL
MODEL       18
REMARK 921   NORMALIZED FREE ENERGY PREDICTED BY IDOCK:   -5.24 KCAL/MOL
REMARK 922        TOTAL FREE ENERGY PREDICTED BY IDOCK:  -11.99 KCAL/MOL
REMARK 923 INTER-LIGAND FREE ENERGY PREDICTED BY IDOCK:   -8.89 KCAL/MOL
REMARK 924 INTRA-LIGAND FREE ENERGY PREDICTED BY IDOCK:   -3.10 KCAL/MOL
REMARK 927      BINDING AFFINITY PREDICTED BY RF-SCORE:    0.00 PKD
ROOT
HETATM    1  C   UNL     1     -13.897   7.520  71.604  1.00  0.00    -0.486 C  
HETATM    2  C   UNL     1     -12.736   8.469  71.853  1.00  0.00    -0.401 C  
ENDROOT
BRANCH   2   3
HETATM    3  C   UNL     1     -13.075   9.894  71.519  1.00  0.00    -0.516 C  
HETATM    4  C   UNL     1     -12.536  10.608  70.516  1.00  0.00    -0.445 C  
BRANCH   4   5
HETATM    5  C   UNL     1     -11.432  10.141  69.609  1.00  0.00    -0.256 C  
BRANCH   5   6
HETATM    6  C   UNL     1     -10.360  11.184  69.446  1.00  0.00    -0.090 C  
HETATM    7  C   UNL     1      -9.990  11.770  68.294  1.00  0.00    -0.200 C  
BRANCH   7   8
HETATM    8  C   UNL     1     -10.576  11.449  66.950  1.00  0.00    -0.292 C  
BRANCH   8   9
HETATM    9  C   UNL     1     -11.837  12.213  66.674  1.00  0.00    -0.314 C  
HETATM   10  C   UNL     1     -11.970  13.273  65.859  1.00  0.00    -0.466 C  
BRANCH  10  11
HETATM   11  C   UNL     1     -10.907  13.883  64.985  1.00  0.00    -0.389 C  
BRANCH  11  12
HETATM   12  C   UNL     1     -11.047  15.373  64.834  1.00  0.00    -0.435 C  
HETATM   13  C   UNL     1     -10.484  16.314  65.608  1.00  0.00    -0.386 C  
BRANCH  13  14
HETATM   14  C   UNL     1      -9.664  16.054  66.828  1.00  0.00    -0.253 C  
BRANCH  14  15
HETATM   15  C   UNL     1      -9.991  16.978  67.967  1.00  0.00    -0.283 C  
HETATM   16  C   UNL     1     -10.420  16.546  69.166  1.00  0.00    -0.317 C  
BRANCH  16  17
HETATM   17  C   UNL     1     -10.684  15.107  69.496  1.00  0.00    -0.273 C  
BRANCH  17  18
HETATM   18  C   UNL     1     -12.119  14.706  69.293  1.00  0.00    -0.307 C  
HETATM   19  C   UNL     1     -12.882  14.210  70.284  1.00  0.00    -0.183 C  
BRANCH  19  20
HETATM   20  C   UNL     1     -12.350  14.035  71.681  1.00  0.00    -0.315 C  
BRANCH  20  21
HETATM   21  C   UNL     1     -13.194  14.674  72.777  1.00  0.00    -0.591 C  
HETATM   22  C   UNL     1     -12.545  15.972  73.203  1.00  0.00    -0.520 C  
HETATM   23  O   UNL     1     -12.862  16.331  74.471  1.00  0.00    -0.667 OA 
HETATM   24  O   UNL     1     -11.830  16.663  72.500  1.00  0.00    -0.506 OA 
ENDBRANCH  20  21
ENDBRANCH  19  20
ENDBRANCH  17  18
ENDBRANCH  16  17
ENDBRANCH  14  15
ENDBRANCH  13  14
ENDBRANCH  11  12
ENDBRANCH  10  11
ENDBRANCH   8   9
ENDBRANCH   7   8
ENDBRANCH   5   6
ENDBRANCH   4   5
ENDBRANCH   2   3
TORSDOF 13
ENDMDL
MODEL       19
REMARK 921   NORMALIZED FREE ENERGY PREDICTED BY IDOCK:   -5.23 KCAL/MOL
REMARK 922        TOTAL FREE ENERGY PREDICTED BY IDOCK:  -11.99 KCAL/MOL
REMARK 923 INTER-LIGAND FREE ENERGY PREDICTED BY IDOCK:   -9.02 KCAL/MOL
REMARK 924 INTRA-LIGAND FREE ENERGY PREDICTED BY IDOCK:   -2.97 KCAL/MOL
REMARK 927      BINDING AFFINITY PREDICTED BY RF-SCORE:    0.00 PKD
ROOT
HETATM    1  C   UNL     1     -11.635   6.381  70.311  1.00  0.00    -0.451 C  
HETATM    2  C   UNL     1     -11.508   7.481  71.352  1.00  0.00    -0.291 C  
ENDROOT
BRANCH   2   3
HETATM    3  C   UNL     1     -12.833   8.089  71.713  1.00  0.00    -0.353 C  
HETATM    4  C   UNL     1     -13.131   9.398  71.649  1.00  0.00    -0.471 C  
BRANCH   4   5
HETATM    5  C   UNL     1     -12.168  10.496  71.296  1.00  0.00    -0.472 C  
BRANCH   5   6
HETATM    6  C   UNL     1     -12.446  11.072  69.934  1.00  0.00    -0.286 C  
HETATM    7  C   UNL     1     -11.682  10.922  68.838  1.00  0.00    -0.376 C  
BRANCH   7   8
HETATM    8  C   UNL     1     -10.385  10.168  68.801  1.00  0.00    -0.211 C  
BRANCH   8   9
HETATM    9  C   UNL     1     -10.446   8.963  67.909  1.00  0.00    -0.281 C  
HETATM   10  C   UNL     1      -9.983   8.874  66.650  1.00  0.00    -0.346 C  
BRANCH  10  11
HETATM   11  C   UNL     1      -9.238   9.931  65.881  1.00  0.00    -0.223 C  
BRANCH  11  12
HETATM   12  C   UNL     1      -9.991  10.432  64.679  1.00  0.00    -0.408 C  
HETATM   13  C   UNL     1     -10.480  11.669  64.497  1.00  0.00    -0.359 C  
BRANCH  13  14
HETATM   14  C   UNL     1     -10.433  12.774  65.499  1.00  0.00    -0.306 C  
BRANCH  14  15
HETATM   15  C   UNL     1     -11.785  13.360  65.795  1.00  0.00    -0.380 C  
HETATM   16  C   UNL     1     -12.018  14.193  66.824  1.00  0.00    -0.475 C  
BRANCH  16  17
HETATM   17  C   UNL     1     -10.984  14.591  67.834  1.00  0.00    -0.277 C  
BRANCH  17  18
HETATM   18  C   UNL     1     -11.251  15.931  68.461  1.00  0.00    -0.362 C  
HETATM   19  C   UNL     1     -11.531  16.080  69.769  1.00  0.00    -0.318 C  
BRANCH  19  20
HETATM   20  C   UNL     1     -11.581  14.903  70.706  1.00  0.00    -0.345 C  
BRANCH  20  21
HETATM   21  C   UNL     1     -12.977  14.359  70.982  1.00  0.00    -0.416 C  
HETATM   22  C   UNL     1     -13.178  14.258  72.479  1.00  0.00    -0.490 C  
HETATM   23  O   UNL     1     -14.096  13.325  72.827  1.00  0.00    -0.691 OA 
HETATM   24  O   UNL     1     -12.613  14.946  73.310  1.00  0.00    -0.435 OA 
ENDBRANCH  20  21
ENDBRANCH  19  20
ENDBRANCH  17  18
ENDBRANCH  16  17
ENDBRANCH  14  15
ENDBRANCH  13  14
ENDBRANCH  11  12
ENDBRANCH  10  11
ENDBRANCH   8   9
ENDBRANCH   7   8
ENDBRANCH   5   6
ENDBRANCH   4   5
ENDBRANCH   2   3
TORSDOF 13
ENDMDL
MODEL       20
REMARK 921   NORMALIZED FREE ENERGY PREDICTED BY IDOCK:   -5.23 KCAL/MOL
REMARK 922        TOTAL FREE ENERGY PREDICTED BY IDOCK:  -11.99 KCAL/MOL
REMARK 923 INTER-LIGAND FREE ENERGY PREDICTED BY IDOCK:   -8.96 KCAL/MOL
REMARK 924 INTRA-LIGAND FREE ENERGY PREDICTED BY IDOCK:   -3.03 KCAL/MOL
REMARK 927      BINDING AFFINITY PREDICTED BY RF-SCORE:    0.00 PKD
ROOT
HETATM    1  C   UNL     1     -14.387   8.501  72.070  1.00  0.00    -0.537 C  
HETATM    2  C   UNL     1     -13.333   9.596  72.051  1.00  0.00    -0.547 C  
ENDROOT
BRANCH   2   3
HETATM    3  C   UNL     1     -12.032   9.134  71.458  1.00  0.00    -0.422 C  
HETATM    4  C   UNL     1     -11.185   9.900  70.749  1.00  0.00    -0.427 C  
BRANCH   4   5
HETATM    5  C   UNL     1     -11.429  11.327  70.345  1.00  0.00    -0.203 C  
BRANCH   5   6
HETATM    6  C   UNL     1     -12.236  11.421  69.079  1.00  0.00    -0.200 C  
HETATM    7  C   UNL     1     -11.755  11.364  67.824  1.00  0.00    -0.279 C  
BRANCH   7   8
HETATM    8  C   UNL     1     -10.302  11.226  67.475  1.00  0.00    -0.224 C  
BRANCH   8   9
HETATM    9  C   UNL     1     -10.040  10.076  66.547  1.00  0.00    -0.296 C  
HETATM   10  C   UNL     1      -9.863  10.144  65.217  1.00  0.00    -0.388 C  
BRANCH  10  11
HETATM   11  C   UNL     1      -9.812  11.387  64.371  1.00  0.00    -0.303 C  
BRANCH  11  12
HETATM   12  C   UNL     1     -10.973  11.507  63.422  1.00  0.00    -0.397 C  
HETATM   13  C   UNL     1     -12.066  12.268  63.583  1.00  0.00    -0.648 C  
BRANCH  13  14
HETATM   14  C   UNL     1     -12.376  13.094  64.787  1.00  0.00    -0.477 C  
BRANCH  14  15
HETATM   15  C   UNL     1     -12.213  14.569  64.548  1.00  0.00    -0.483 C  
HETATM   16  C   UNL     1     -11.130  15.264  64.936  1.00  0.00    -0.435 C  
BRANCH  16  17
HETATM   17  C   UNL     1      -9.984  14.675  65.704  1.00  0.00    -0.381 C  
BRANCH  17  18
HETATM   18  C   UNL     1      -9.331  15.654  66.639  1.00  0.00    -0.291 C  
HETATM   19  C   UNL     1      -9.612  15.702  67.954  1.00  0.00    -0.206 C  
BRANCH  19  20
HETATM   20  C   UNL     1     -10.599  14.758  68.587  1.00  0.00    -0.255 C  
BRANCH  20  21
HETATM   21  C   UNL     1     -11.973  15.355  68.866  1.00  0.00    -0.298 C  
HETATM   22  C   UNL     1     -12.072  15.693  70.338  1.00  0.00    -0.394 C  
HETATM   23  O   UNL     1     -13.348  15.702  70.793  1.00  0.00    -0.535 OA 
HETATM   24  O   UNL     1     -11.129  15.961  71.061  1.00  0.00    -0.330 OA 
ENDBRANCH  20  21
ENDBRANCH  19  20
ENDBRANCH  17  18
ENDBRANCH  16  17
ENDBRANCH  14  15
ENDBRANCH  13  14
ENDBRANCH  11  12
ENDBRANCH  10  11
ENDBRANCH   8   9
ENDBRANCH   7   8
ENDBRANCH   5   6
ENDBRANCH   4   5
ENDBRANCH   2   3
TORSDOF 13
ENDMDL
MODEL       21
REMARK 921   NORMALIZED FREE ENERGY PREDICTED BY IDOCK:   -5.23 KCAL/MOL
REMARK 922        TOTAL FREE ENERGY PREDICTED BY IDOCK:  -11.99 KCAL/MOL
REMARK 923 INTER-LIGAND FREE ENERGY PREDICTED BY IDOCK:   -9.06 KCAL/MOL
REMARK 924 INTRA-LIGAND FREE ENERGY PREDICTED BY IDOCK:   -2.93 KCAL/MOL
REMARK 927      BINDING AFFINITY PREDICTED BY RF-SCORE:    0.00 PKD
ROOT
HETATM    1  C   UNL     1     -11.715  15.933  72.561  1.00  0.00    -0.564 C  
HETATM    2  C   UNL     1     -12.935  15.705  71.683  1.00  0.00    -0.551 C  
ENDROOT
BRANCH   2   3
HETATM    3  C   UNL     1     -13.919  14.752  72.301  1.00  0.00    -0.598 C  
HETATM    4  C   UNL     1     -13.839  13.412  72.254  1.00  0.00    -0.671 C  
BRANCH   4   5
HETATM    5  C   UNL     1     -12.805  12.626  71.498  1.00  0.00    -0.368 C  
BRANCH   5   6
HETATM    6  C   UNL     1     -13.046  11.144  71.592  1.00  0.00    -0.529 C  
HETATM    7  C   UNL     1     -12.366  10.185  70.939  1.00  0.00    -0.461 C  
BRANCH   7   8
HETATM    8  C   UNL     1     -11.253  10.444  69.967  1.00  0.00    -0.385 C  
BRANCH   8   9
HETATM    9  C   UNL     1     -11.754  10.880  68.622  1.00  0.00    -0.334 C  
HETATM   10  C   UNL     1     -11.438  12.018  67.979  1.00  0.00    -0.392 C  
BRANCH  10  11
HETATM   11  C   UNL     1     -10.458  13.068  68.426  1.00  0.00    -0.261 C  
BRANCH  11  12
HETATM   12  C   UNL     1     -11.114  14.364  68.815  1.00  0.00    -0.275 C  
HETATM   13  C   UNL     1     -10.963  15.554  68.212  1.00  0.00    -0.305 C  
BRANCH  13  14
HETATM   14  C   UNL     1     -10.043  15.833  67.069  1.00  0.00    -0.261 C  
BRANCH  14  15
HETATM   15  C   UNL     1     -10.769  16.191  65.802  1.00  0.00    -0.289 C  
HETATM   16  C   UNL     1     -10.988  15.316  64.806  1.00  0.00    -0.403 C  
BRANCH  16  17
HETATM   17  C   UNL     1     -10.487  13.903  64.803  1.00  0.00    -0.451 C  
BRANCH  17  18
HETATM   18  C   UNL     1     -11.462  12.930  64.200  1.00  0.00    -0.449 C  
HETATM   19  C   UNL     1     -11.168  11.631  64.008  1.00  0.00    -0.448 C  
BRANCH  19  20
HETATM   20  C   UNL     1      -9.835  11.055  64.402  1.00  0.00    -0.351 C  
BRANCH  20  21
HETATM   21  C   UNL     1      -9.904   9.838  65.317  1.00  0.00    -0.335 C  
HETATM   22  C   UNL     1      -8.751   9.894  66.296  1.00  0.00    -0.139 C  
HETATM   23  O   UNL     1      -8.392   8.673  66.761  1.00  0.00    -0.106 OA 
HETATM   24  O   UNL     1      -8.198  10.912  66.671  1.00  0.00    -0.134 OA 
ENDBRANCH  20  21
ENDBRANCH  19  20
ENDBRANCH  17  18
ENDBRANCH  16  17
ENDBRANCH  14  15
ENDBRANCH  13  14
ENDBRANCH  11  12
ENDBRANCH  10  11
ENDBRANCH   8   9
ENDBRANCH   7   8
ENDBRANCH   5   6
ENDBRANCH   4   5
ENDBRANCH   2   3
TORSDOF 13
ENDMDL
MODEL       22
REMARK 921   NORMALIZED FREE ENERGY PREDICTED BY IDOCK:   -5.23 KCAL/MOL
REMARK 922        TOTAL FREE ENERGY PREDICTED BY IDOCK:  -11.98 KCAL/MOL
REMARK 923 INTER-LIGAND FREE ENERGY PREDICTED BY IDOCK:   -9.81 KCAL/MOL
REMARK 924 INTRA-LIGAND FREE ENERGY PREDICTED BY IDOCK:   -2.18 KCAL/MOL
REMARK 927      BINDING AFFINITY PREDICTED BY RF-SCORE:    0.00 PKD
ROOT
HETATM    1  C   UNL     1      -8.913   4.900  68.864  1.00  0.00    -0.136 C  
HETATM    2  C   UNL     1     -10.282   5.556  68.918  1.00  0.00    -0.284 C  
ENDROOT
BRANCH   2   3
HETATM    3  C   UNL     1     -10.785   5.954  67.558  1.00  0.00    -0.359 C  
HETATM    4  C   UNL     1     -10.553   7.134  66.957  1.00  0.00    -0.413 C  
BRANCH   4   5
HETATM    5  C   UNL     1      -9.830   8.299  67.573  1.00  0.00    -0.231 C  
BRANCH   5   6
HETATM    6  C   UNL     1     -10.545   9.599  67.323  1.00  0.00    -0.315 C  
HETATM    7  C   UNL     1     -10.883  10.511  68.252  1.00  0.00    -0.293 C  
BRANCH   7   8
HETATM    8  C   UNL     1     -10.625  10.363  69.723  1.00  0.00    -0.302 C  
BRANCH   8   9
HETATM    9  C   UNL     1     -11.858   9.980  70.487  1.00  0.00    -0.387 C  
HETATM   10  C   UNL     1     -12.678  10.809  71.153  1.00  0.00    -0.532 C  
BRANCH  10  11
HETATM   11  C   UNL     1     -12.590  12.310  71.221  1.00  0.00    -0.336 C  
BRANCH  11  12
HETATM   12  C   UNL     1     -13.436  12.906  72.312  1.00  0.00    -0.631 C  
HETATM   13  C   UNL     1     -13.876  14.172  72.386  1.00  0.00    -0.638 C  
BRANCH  13  14
HETATM   14  C   UNL     1     -13.541  15.261  71.422  1.00  0.00    -0.598 C  
BRANCH  14  15
HETATM   15  C   UNL     1     -12.239  15.945  71.733  1.00  0.00    -0.551 C  
HETATM   16  C   UNL     1     -11.324  16.248  70.795  1.00  0.00    -0.327 C  
BRANCH  16  17
HETATM   17  C   UNL     1     -11.457  15.892  69.345  1.00  0.00    -0.351 C  
BRANCH  17  18
HETATM   18  C   UNL     1     -10.684  14.660  68.964  1.00  0.00    -0.253 C  
HETATM   19  C   UNL     1     -11.033  13.873  67.930  1.00  0.00    -0.265 C  
BRANCH  19  20
HETATM   20  C   UNL     1     -12.227  14.183  67.068  1.00  0.00    -0.374 C  
BRANCH  20  21
HETATM   21  C   UNL     1     -12.280  13.428  65.745  1.00  0.00    -0.507 C  
HETATM   22  C   UNL     1     -12.092  14.411  64.610  1.00  0.00    -0.471 C  
HETATM   23  O   UNL     1     -12.644  13.989  63.448  1.00  0.00    -0.845 OA 
HETATM   24  O   UNL     1     -11.489  15.467  64.689  1.00  0.00    -0.408 OA 
ENDBRANCH  20  21
ENDBRANCH  19  20
ENDBRANCH  17  18
ENDBRANCH  16  17
ENDBRANCH  14  15
ENDBRANCH  13  14
ENDBRANCH  11  12
ENDBRANCH  10  11
ENDBRANCH   8   9
ENDBRANCH   7   8
ENDBRANCH   5   6
ENDBRANCH   4   5
ENDBRANCH   2   3
TORSDOF 13
ENDMDL
MODEL       23
REMARK 921   NORMALIZED FREE ENERGY PREDICTED BY IDOCK:   -5.23 KCAL/MOL
REMARK 922        TOTAL FREE ENERGY PREDICTED BY IDOCK:  -11.98 KCAL/MOL
REMARK 923 INTER-LIGAND FREE ENERGY PREDICTED BY IDOCK:   -9.34 KCAL/MOL
REMARK 924 INTRA-LIGAND FREE ENERGY PREDICTED BY IDOCK:   -2.64 KCAL/MOL
REMARK 927      BINDING AFFINITY PREDICTED BY RF-SCORE:    0.00 PKD
ROOT
HETATM    1  C   UNL     1      -8.749  13.846  67.141  1.00  0.00    -0.233 C  
HETATM    2  C   UNL     1      -9.913  14.285  66.268  1.00  0.00    -0.319 C  
ENDROOT
BRANCH   2   3
HETATM    3  C   UNL     1     -11.229  13.741  66.747  1.00  0.00    -0.327 C  
HETATM    4  C   UNL     1     -12.286  13.460  65.964  1.00  0.00    -0.491 C  
BRANCH   4   5
HETATM    5  C   UNL     1     -12.373  13.727  64.488  1.00  0.00    -0.399 C  
BRANCH   5   6
HETATM    6  C   UNL     1     -12.626  12.469  63.704  1.00  0.00    -0.495 C  
HETATM    7  C   UNL     1     -11.693  11.604  63.267  1.00  0.00    -0.233 C  
BRANCH   7   8
HETATM    8  C   UNL     1     -10.215  11.774  63.466  1.00  0.00    -0.483 C  
BRANCH   8   9
HETATM    9  C   UNL     1      -9.532  10.488  63.828  1.00  0.00    -0.342 C  
HETATM   10  C   UNL     1      -9.591   9.855  65.012  1.00  0.00    -0.364 C  
BRANCH  10  11
HETATM   11  C   UNL     1     -10.409  10.250  66.211  1.00  0.00    -0.256 C  
BRANCH  11  12
HETATM   12  C   UNL     1      -9.621  10.257  67.492  1.00  0.00    -0.180 C  
HETATM   13  C   UNL     1     -10.094  10.497  68.725  1.00  0.00    -0.202 C  
BRANCH  13  14
HETATM   14  C   UNL     1     -11.499  10.881  69.052  1.00  0.00    -0.371 C  
BRANCH  14  15
HETATM   15  C   UNL     1     -11.965  10.343  70.376  1.00  0.00    -0.409 C  
HETATM   16  C   UNL     1     -12.613  11.088  71.288  1.00  0.00    -0.517 C  
BRANCH  16  17
HETATM   17  C   UNL     1     -12.896  12.552  71.129  1.00  0.00    -0.303 C  
BRANCH  17  18
HETATM   18  C   UNL     1     -13.640  13.142  72.295  1.00  0.00    -0.677 C  
HETATM   19  C   UNL     1     -13.894  14.459  72.404  1.00  0.00    -0.595 C  
BRANCH  19  20
HETATM   20  C   UNL     1     -13.457  15.439  71.349  1.00  0.00    -0.607 C  
BRANCH  20  21
HETATM   21  C   UNL     1     -11.993  15.854  71.422  1.00  0.00    -0.515 C  
HETATM   22  C   UNL     1     -11.399  15.805  70.031  1.00  0.00    -0.351 C  
HETATM   23  O   UNL     1     -10.057  15.614  70.035  1.00  0.00    -0.293 OA 
HETATM   24  O   UNL     1     -12.025  15.946  68.995  1.00  0.00    -0.378 OA 
ENDBRANCH  20  21
ENDBRANCH  19  20
ENDBRANCH  17  18
ENDBRANCH  16  17
ENDBRANCH  14  15
ENDBRANCH  13  14
ENDBRANCH  11  12
ENDBRANCH  10  11
ENDBRANCH   8   9
ENDBRANCH   7   8
ENDBRANCH   5   6
ENDBRANCH   4   5
ENDBRANCH   2   3
TORSDOF 13
ENDMDL
MODEL       24
REMARK 921   NORMALIZED FREE ENERGY PREDICTED BY IDOCK:   -5.20 KCAL/MOL
REMARK 922        TOTAL FREE ENERGY PREDICTED BY IDOCK:  -11.92 KCAL/MOL
REMARK 923 INTER-LIGAND FREE ENERGY PREDICTED BY IDOCK:   -9.05 KCAL/MOL
REMARK 924 INTRA-LIGAND FREE ENERGY PREDICTED BY IDOCK:   -2.87 KCAL/MOL
REMARK 927      BINDING AFFINITY PREDICTED BY RF-SCORE:    0.00 PKD
ROOT
HETATM    1  C   UNL     1     -12.471  12.086  63.459  1.00  0.00    -0.654 C  
HETATM    2  C   UNL     1     -11.534  12.193  64.650  1.00  0.00    -0.388 C  
ENDROOT
BRANCH   2   3
HETATM    3  C   UNL     1     -12.049  13.128  65.708  1.00  0.00    -0.502 C  
HETATM    4  C   UNL     1     -11.397  14.205  66.178  1.00  0.00    -0.337 C  
BRANCH   4   5
HETATM    5  C   UNL     1     -10.002  14.614  65.800  1.00  0.00    -0.365 C  
BRANCH   5   6
HETATM    6  C   UNL     1      -8.989  14.163  66.817  1.00  0.00    -0.229 C  
HETATM    7  C   UNL     1      -7.929  14.867  67.249  1.00  0.00    -0.237 C  
BRANCH   7   8
HETATM    8  C   UNL     1      -7.556  16.234  66.754  1.00  0.00    -0.285 C  
BRANCH   8   9
HETATM    9  C   UNL     1      -6.271  16.730  67.349  1.00  0.00    -0.195 C  
HETATM   10  C   UNL     1      -6.102  17.851  68.071  1.00  0.00    -0.169 C  
BRANCH  10  11
HETATM   11  C   UNL     1      -7.170  18.817  68.508  1.00  0.00    -0.318 C  
BRANCH  11  12
HETATM   12  C   UNL     1      -7.513  19.838  67.457  1.00  0.00    -0.306 C  
HETATM   13  C   UNL     1      -8.727  20.349  67.201  1.00  0.00    -0.413 C  
BRANCH  13  14
HETATM   14  C   UNL     1      -9.997  19.939  67.870  1.00  0.00    -0.552 C  
BRANCH  14  15
HETATM   15  C   UNL     1     -10.603  18.698  67.276  1.00  0.00    -0.480 C  
HETATM   16  C   UNL     1     -10.823  17.575  67.982  1.00  0.00    -0.260 C  
BRANCH  16  17
HETATM   17  C   UNL     1     -10.439  17.398  69.420  1.00  0.00    -0.077 C  
BRANCH  17  18
HETATM   18  C   UNL     1     -10.197  15.962  69.797  1.00  0.00    -0.268 C  
HETATM   19  C   UNL     1     -10.972  15.300  70.675  1.00  0.00    -0.318 C  
BRANCH  19  20
HETATM   20  C   UNL     1     -12.155  15.955  71.336  1.00  0.00    -0.508 C  
BRANCH  20  21
HETATM   21  C   UNL     1     -13.442  15.139  71.305  1.00  0.00    -0.559 C  
HETATM   22  C   UNL     1     -13.614  14.442  72.637  1.00  0.00    -0.490 C  
HETATM   23  O   UNL     1     -14.365  13.318  72.552  1.00  0.00    -0.662 OA 
HETATM   24  O   UNL     1     -13.164  14.836  73.698  1.00  0.00    -0.482 OA 
ENDBRANCH  20  21
ENDBRANCH  19  20
ENDBRANCH  17  18
ENDBRANCH  16  17
ENDBRANCH  14  15
ENDBRANCH  13  14
ENDBRANCH  11  12
ENDBRANCH  10  11
ENDBRANCH   8   9
ENDBRANCH   7   8
ENDBRANCH   5   6
ENDBRANCH   4   5
ENDBRANCH   2   3
TORSDOF 13
ENDMDL
MODEL       25
REMARK 921   NORMALIZED FREE ENERGY PREDICTED BY IDOCK:   -5.18 KCAL/MOL
REMARK 922        TOTAL FREE ENERGY PREDICTED BY IDOCK:  -11.89 KCAL/MOL
REMARK 923 INTER-LIGAND FREE ENERGY PREDICTED BY IDOCK:   -9.59 KCAL/MOL
REMARK 924 INTRA-LIGAND FREE ENERGY PREDICTED BY IDOCK:   -2.30 KCAL/MOL
REMARK 927      BINDING AFFINITY PREDICTED BY RF-SCORE:    0.00 PKD
ROOT
HETATM    1  C   UNL     1      -7.914  20.589  67.283  1.00  0.00    -0.361 C  
HETATM    2  C   UNL     1      -9.423  20.469  67.143  1.00  0.00    -0.544 C  
ENDROOT
BRANCH   2   3
HETATM    3  C   UNL     1     -10.005  19.425  68.053  1.00  0.00    -0.488 C  
HETATM    4  C   UNL     1     -10.350  18.178  67.686  1.00  0.00    -0.411 C  
BRANCH   4   5
HETATM    5  C   UNL     1     -10.303  17.637  66.285  1.00  0.00    -0.342 C  
BRANCH   5   6
HETATM    6  C   UNL     1      -9.379  16.455  66.171  1.00  0.00    -0.360 C  
HETATM    7  C   UNL     1      -9.748  15.169  66.040  1.00  0.00    -0.361 C  
BRANCH   7   8
HETATM    8  C   UNL     1     -11.170  14.689  66.019  1.00  0.00    -0.342 C  
BRANCH   8   9
HETATM    9  C   UNL     1     -11.802  14.824  64.665  1.00  0.00    -0.442 C  
HETATM   10  C   UNL     1     -12.228  13.823  63.876  1.00  0.00    -0.402 C  
BRANCH  10  11
HETATM   11  C   UNL     1     -12.236  12.354  64.200  1.00  0.00    -0.558 C  
BRANCH  11  12
HETATM   12  C   UNL     1     -11.019  11.629  63.697  1.00  0.00    -0.507 C  
HETATM   13  C   UNL     1     -10.265  10.755  64.383  1.00  0.00    -0.432 C  
BRANCH  13  14
HETATM   14  C   UNL     1     -10.452  10.391  65.818  1.00  0.00    -0.187 C  
BRANCH  14  15
HETATM   15  C   UNL     1      -9.594  11.201  66.750  1.00  0.00    -0.215 C  
HETATM   16  C   UNL     1     -10.085  11.886  67.796  1.00  0.00    -0.200 C  
BRANCH  16  17
HETATM   17  C   UNL     1     -11.544  11.981  68.129  1.00  0.00    -0.403 C  
BRANCH  17  18
HETATM   18  C   UNL     1     -11.843  11.692  69.574  1.00  0.00    -0.414 C  
HETATM   19  C   UNL     1     -12.119  12.660  70.467  1.00  0.00    -0.360 C  
BRANCH  19  20
HETATM   20  C   UNL     1     -12.160  14.112  70.073  1.00  0.00    -0.409 C  
BRANCH  20  21
HETATM   21  C   UNL     1     -13.280  14.922  70.713  1.00  0.00    -0.377 C  
HETATM   22  C   UNL     1     -12.726  15.670  71.906  1.00  0.00    -0.442 C  
HETATM   23  O   UNL     1     -13.671  15.959  72.834  1.00  0.00    -0.591 OA 
HETATM   24  O   UNL     1     -11.567  16.017  72.039  1.00  0.00    -0.445 OA 
ENDBRANCH  20  21
ENDBRANCH  19  20
ENDBRANCH  17  18
ENDBRANCH  16  17
ENDBRANCH  14  15
ENDBRANCH  13  14
ENDBRANCH  11  12
ENDBRANCH  10  11
ENDBRANCH   8   9
ENDBRANCH   7   8
ENDBRANCH   5   6
ENDBRANCH   4   5
ENDBRANCH   2   3
TORSDOF 13
ENDMDL
MODEL       26
REMARK 921   NORMALIZED FREE ENERGY PREDICTED BY IDOCK:   -5.15 KCAL/MOL
REMARK 922        TOTAL FREE ENERGY PREDICTED BY IDOCK:  -11.85 KCAL/MOL
REMARK 923 INTER-LIGAND FREE ENERGY PREDICTED BY IDOCK:   -9.84 KCAL/MOL
REMARK 924 INTRA-LIGAND FREE ENERGY PREDICTED BY IDOCK:   -2.00 KCAL/MOL
REMARK 927      BINDING AFFINITY PREDICTED BY RF-SCORE:    0.00 PKD
ROOT
HETATM    1  C   UNL     1      -9.402  19.899  66.397  1.00  0.00    -0.493 C  
HETATM    2  C   UNL     1     -10.537  19.666  67.380  1.00  0.00    -0.589 C  
ENDROOT
BRANCH   2   3
HETATM    3  C   UNL     1     -10.132  18.787  68.530  1.00  0.00    -0.444 C  
HETATM    4  C   UNL     1     -10.282  17.453  68.580  1.00  0.00    -0.361 C  
BRANCH   4   5
HETATM    5  C   UNL     1     -10.966  16.612  67.539  1.00  0.00    -0.147 C  
BRANCH   5   6
HETATM    6  C   UNL     1     -10.343  15.248  67.421  1.00  0.00    -0.256 C  
HETATM    7  C   UNL     1     -10.876  14.183  66.797  1.00  0.00    -0.296 C  
BRANCH   7   8
HETATM    8  C   UNL     1     -12.220  14.171  66.130  1.00  0.00    -0.465 C  
BRANCH   8   9
HETATM    9  C   UNL     1     -12.125  14.339  64.642  1.00  0.00    -0.478 C  
HETATM   10  C   UNL     1     -11.996  13.360  63.731  1.00  0.00    -0.517 C  
BRANCH  10  11
HETATM   11  C   UNL     1     -11.993  11.877  63.990  1.00  0.00    -0.455 C  
BRANCH  11  12
HETATM   12  C   UNL     1     -10.621  11.324  64.259  1.00  0.00    -0.422 C  
HETATM   13  C   UNL     1     -10.175  10.814  65.418  1.00  0.00    -0.341 C  
BRANCH  13  14
HETATM   14  C   UNL     1     -10.944  10.768  66.696  1.00  0.00    -0.173 C  
BRANCH  14  15
HETATM   15  C   UNL     1     -10.064  10.712  67.913  1.00  0.00    -0.194 C  
HETATM   16  C   UNL     1     -10.508  10.965  69.156  1.00  0.00    -0.248 C  
BRANCH  16  17
HETATM   17  C   UNL     1     -11.909  11.393  69.477  1.00  0.00    -0.426 C  
BRANCH  17  18
HETATM   18  C   UNL     1     -12.381  10.917  70.824  1.00  0.00    -0.487 C  
HETATM   19  C   UNL     1     -12.917  11.742  71.740  1.00  0.00    -0.466 C  
BRANCH  19  20
HETATM   20  C   UNL     1     -13.096  13.213  71.472  1.00  0.00    -0.404 C  
BRANCH  20  21
HETATM   21  C   UNL     1     -13.573  14.032  72.665  1.00  0.00    -0.623 C  
HETATM   22  C   UNL     1     -13.559  15.498  72.291  1.00  0.00    -0.519 C  
HETATM   23  O   UNL     1     -13.427  16.316  73.363  1.00  0.00    -0.598 OA 
HETATM   24  O   UNL     1     -13.680  15.935  71.161  1.00  0.00    -0.444 OA 
ENDBRANCH  20  21
ENDBRANCH  19  20
ENDBRANCH  17  18
ENDBRANCH  16  17
ENDBRANCH  14  15
ENDBRANCH  13  14
ENDBRANCH  11  12
ENDBRANCH  10  11
ENDBRANCH   8   9
ENDBRANCH   7   8
ENDBRANCH   5   6
ENDBRANCH   4   5
ENDBRANCH   2   3
TORSDOF 13
ENDMDL
MODEL       27
REMARK 921   NORMALIZED FREE ENERGY PREDICTED BY IDOCK:   -5.14 KCAL/MOL
REMARK 922        TOTAL FREE ENERGY PREDICTED BY IDOCK:  -11.82 KCAL/MOL
REMARK 923 INTER-LIGAND FREE ENERGY PREDICTED BY IDOCK:   -8.25 KCAL/MOL
REMARK 924 INTRA-LIGAND FREE ENERGY PREDICTED BY IDOCK:   -3.57 KCAL/MOL
REMARK 927      BINDING AFFINITY PREDICTED BY RF-SCORE:    0.00 PKD
ROOT
HETATM    1  C   UNL     1      -9.411   9.343  67.022  1.00  0.00    -0.200 C  
HETATM    2  C   UNL     1     -10.643   8.691  67.628  1.00  0.00    -0.272 C  
ENDROOT
BRANCH   2   3
HETATM    3  C   UNL     1     -10.846   7.283  67.145  1.00  0.00    -0.378 C  
HETATM    4  C   UNL     1     -11.104   6.221  67.928  1.00  0.00    -0.360 C  
BRANCH   4   5
HETATM    5  C   UNL     1     -11.143   6.235  69.430  1.00  0.00    -0.477 C  
BRANCH   5   6
HETATM    6  C   UNL     1     -10.055   5.385  70.028  1.00  0.00    -0.324 C  
HETATM    7  C   UNL     1      -8.749   5.698  70.095  1.00  0.00    -0.140 C  
BRANCH   7   8
HETATM    8  C   UNL     1      -8.146   6.957  69.545  1.00  0.00    -0.130 C  
BRANCH   8   9
HETATM    9  C   UNL     1      -7.577   7.839  70.617  1.00  0.00    -0.078 C  
HETATM   10  C   UNL     1      -8.249   8.739  71.355  1.00  0.00    -0.203 C  
BRANCH  10  11
HETATM   11  C   UNL     1      -9.729   9.011  71.326  1.00  0.00    -0.371 C  
BRANCH  11  12
HETATM   12  C   UNL     1     -10.487   8.288  72.405  1.00  0.00    -0.404 C  
HETATM   13  C   UNL     1     -11.820   8.182  72.516  1.00  0.00    -0.438 C  
BRANCH  13  14
HETATM   14  C   UNL     1     -12.817   8.835  71.617  1.00  0.00    -0.392 C  
BRANCH  14  15
HETATM   15  C   UNL     1     -13.058  10.280  71.954  1.00  0.00    -0.568 C  
HETATM   16  C   UNL     1     -12.867  11.283  71.080  1.00  0.00    -0.395 C  
BRANCH  16  17
HETATM   17  C   UNL     1     -12.333  11.096  69.691  1.00  0.00    -0.287 C  
BRANCH  17  18
HETATM   18  C   UNL     1     -11.133  11.953  69.396  1.00  0.00    -0.218 C  
HETATM   19  C   UNL     1     -10.911  12.503  68.188  1.00  0.00    -0.260 C  
BRANCH  19  20
HETATM   20  C   UNL     1     -11.867  12.307  67.042  1.00  0.00    -0.329 C  
BRANCH  20  21
HETATM   21  C   UNL     1     -11.226  12.321  65.660  1.00  0.00    -0.375 C  
HETATM   22  C   UNL     1     -12.153  13.030  64.696  1.00  0.00    -0.409 C  
HETATM   23  O   UNL     1     -11.976  12.643  63.410  1.00  0.00    -0.509 OA 
HETATM   24  O   UNL     1     -12.964  13.885  65.004  1.00  0.00    -0.731 OA 
ENDBRANCH  20  21
ENDBRANCH  19  20
ENDBRANCH  17  18
ENDBRANCH  16  17
ENDBRANCH  14  15
ENDBRANCH  13  14
ENDBRANCH  11  12
ENDBRANCH  10  11
ENDBRANCH   8   9
ENDBRANCH   7   8
ENDBRANCH   5   6
ENDBRANCH   4   5
ENDBRANCH   2   3
TORSDOF 13
ENDMDL
MODEL       28
REMARK 921   NORMALIZED FREE ENERGY PREDICTED BY IDOCK:   -5.13 KCAL/MOL
REMARK 922        TOTAL FREE ENERGY PREDICTED BY IDOCK:  -11.81 KCAL/MOL
REMARK 923 INTER-LIGAND FREE ENERGY PREDICTED BY IDOCK:   -8.64 KCAL/MOL
REMARK 924 INTRA-LIGAND FREE ENERGY PREDICTED BY IDOCK:   -3.17 KCAL/MOL
REMARK 927      BINDING AFFINITY PREDICTED BY RF-SCORE:    0.00 PKD
ROOT
HETATM    1  C   UNL     1      -6.559   8.591  67.819  1.00  0.00    -0.062 C  
HETATM    2  C   UNL     1      -7.823   7.787  68.078  1.00  0.00    -0.124 C  
ENDROOT
BRANCH   2   3
HETATM    3  C   UNL     1      -8.215   6.935  66.905  1.00  0.00    -0.113 C  
HETATM    4  C   UNL     1      -9.476   6.662  66.528  1.00  0.00    -0.192 C  
BRANCH   4   5
HETATM    5  C   UNL     1     -10.716   7.082  67.265  1.00  0.00    -0.412 C  
BRANCH   5   6
HETATM    6  C   UNL     1     -11.080   6.108  68.352  1.00  0.00    -0.343 C  
HETATM    7  C   UNL     1     -11.054   6.349  69.675  1.00  0.00    -0.465 C  
BRANCH   7   8
HETATM    8  C   UNL     1     -10.618   7.643  70.296  1.00  0.00    -0.233 C  
BRANCH   8   9
HETATM    9  C   UNL     1     -10.967   7.728  71.753  1.00  0.00    -0.280 C  
HETATM   10  C   UNL     1     -12.011   8.381  72.291  1.00  0.00    -0.455 C  
BRANCH  10  11
HETATM   11  C   UNL     1     -13.103   9.107  71.552  1.00  0.00    -0.409 C  
BRANCH  11  12
HETATM   12  C   UNL     1     -12.954  10.603  71.595  1.00  0.00    -0.582 C  
HETATM   13  C   UNL     1     -12.449  11.387  70.629  1.00  0.00    -0.419 C  
BRANCH  13  14
HETATM   14  C   UNL     1     -11.863  10.906  69.343  1.00  0.00    -0.400 C  
BRANCH  14  15
HETATM   15  C   UNL     1     -10.371  11.075  69.275  1.00  0.00    -0.181 C  
HETATM   16  C   UNL     1      -9.664  10.930  68.141  1.00  0.00    -0.174 C  
BRANCH  16  17
HETATM   17  C   UNL     1     -10.259  10.524  66.825  1.00  0.00    -0.288 C  
BRANCH  17  18
HETATM   18  C   UNL     1      -9.230  10.309  65.750  1.00  0.00    -0.215 C  
HETATM   19  C   UNL     1      -9.465  10.580  64.453  1.00  0.00    -0.333 C  
BRANCH  19  20
HETATM   20  C   UNL     1     -10.784  11.137  63.989  1.00  0.00    -0.409 C  
BRANCH  20  21
HETATM   21  C   UNL     1     -10.851  12.657  63.912  1.00  0.00    -0.468 C  
HETATM   22  C   UNL     1     -12.279  13.099  64.149  1.00  0.00    -0.398 C  
HETATM   23  O   UNL     1     -12.561  14.299  63.586  1.00  0.00    -0.831 OA 
HETATM   24  O   UNL     1     -13.106  12.482  64.796  1.00  0.00    -0.853 OA 
ENDBRANCH  20  21
ENDBRANCH  19  20
ENDBRANCH  17  18
ENDBRANCH  16  17
ENDBRANCH  14  15
ENDBRANCH  13  14
ENDBRANCH  11  12
ENDBRANCH  10  11
ENDBRANCH   8   9
ENDBRANCH   7   8
ENDBRANCH   5   6
ENDBRANCH   4   5
ENDBRANCH   2   3
TORSDOF 13
ENDMDL
MODEL       29
REMARK 921   NORMALIZED FREE ENERGY PREDICTED BY IDOCK:   -5.12 KCAL/MOL
REMARK 922        TOTAL FREE ENERGY PREDICTED BY IDOCK:  -11.78 KCAL/MOL
REMARK 923 INTER-LIGAND FREE ENERGY PREDICTED BY IDOCK:   -9.80 KCAL/MOL
REMARK 924 INTRA-LIGAND FREE ENERGY PREDICTED BY IDOCK:   -1.98 KCAL/MOL
REMARK 927      BINDING AFFINITY PREDICTED BY RF-SCORE:    0.00 PKD
ROOT
HETATM    1  C   UNL     1      -9.477   8.379  67.232  1.00  0.00    -0.196 C  
HETATM    2  C   UNL     1     -10.758   7.562  67.277  1.00  0.00    -0.365 C  
ENDROOT
BRANCH   2   3
HETATM    3  C   UNL     1     -10.554   6.205  67.889  1.00  0.00    -0.331 C  
HETATM    4  C   UNL     1     -10.916   5.850  69.133  1.00  0.00    -0.382 C  
BRANCH   4   5
HETATM    5  C   UNL     1     -11.504   6.770  70.166  1.00  0.00    -0.404 C  
BRANCH   5   6
HETATM    6  C   UNL     1     -10.464   7.269  71.131  1.00  0.00    -0.221 C  
HETATM    7  C   UNL     1     -10.294   8.543  71.527  1.00  0.00    -0.321 C  
BRANCH   7   8
HETATM    8  C   UNL     1     -11.110   9.703  71.037  1.00  0.00    -0.438 C  
BRANCH   8   9
HETATM    9  C   UNL     1     -12.498   9.711  71.607  1.00  0.00    -0.494 C  
HETATM   10  C   UNL     1     -13.275  10.789  71.807  1.00  0.00    -0.523 C  
BRANCH  10  11
HETATM   11  C   UNL     1     -12.962  12.213  71.439  1.00  0.00    -0.357 C  
BRANCH  11  12
HETATM   12  C   UNL     1     -13.422  13.208  72.469  1.00  0.00    -0.579 C  
HETATM   13  C   UNL     1     -13.712  14.502  72.262  1.00  0.00    -0.559 C  
BRANCH  13  14
HETATM   14  C   UNL     1     -13.557  15.226  70.967  1.00  0.00    -0.486 C  
BRANCH  14  15
HETATM   15  C   UNL     1     -12.138  15.634  70.685  1.00  0.00    -0.443 C  
HETATM   16  C   UNL     1     -11.434  15.176  69.635  1.00  0.00    -0.314 C  
BRANCH  16  17
HETATM   17  C   UNL     1     -11.947  14.162  68.657  1.00  0.00    -0.373 C  
BRANCH  17  18
HETATM   18  C   UNL     1     -10.917  13.137  68.270  1.00  0.00    -0.278 C  
HETATM   19  C   UNL     1     -10.304  13.139  67.072  1.00  0.00    -0.249 C  
BRANCH  19  20
HETATM   20  C   UNL     1     -10.601  14.187  66.034  1.00  0.00    -0.297 C  
BRANCH  20  21
HETATM   21  C   UNL     1     -10.944  13.645  64.652  1.00  0.00    -0.403 C  
HETATM   22  C   UNL     1     -12.436  13.399  64.578  1.00  0.00    -0.301 C  
HETATM   23  O   UNL     1     -12.771  12.453  63.667  1.00  0.00    -0.710 OA 
HETATM   24  O   UNL     1     -13.277  13.989  65.231  1.00  0.00    -0.782 OA 
ENDBRANCH  20  21
ENDBRANCH  19  20
ENDBRANCH  17  18
ENDBRANCH  16  17
ENDBRANCH  14  15
ENDBRANCH  13  14
ENDBRANCH  11  12
ENDBRANCH  10  11
ENDBRANCH   8   9
ENDBRANCH   7   8
ENDBRANCH   5   6
ENDBRANCH   4   5
ENDBRANCH   2   3
TORSDOF 13
ENDMDL
MODEL       30
REMARK 921   NORMALIZED FREE ENERGY PREDICTED BY IDOCK:   -5.11 KCAL/MOL
REMARK 922        TOTAL FREE ENERGY PREDICTED BY IDOCK:  -11.77 KCAL/MOL
REMARK 923 INTER-LIGAND FREE ENERGY PREDICTED BY IDOCK:   -9.25 KCAL/MOL
REMARK 924 INTRA-LIGAND FREE ENERGY PREDICTED BY IDOCK:   -2.52 KCAL/MOL
REMARK 927      BINDING AFFINITY PREDICTED BY RF-SCORE:    0.00 PKD
ROOT
HETATM    1  C   UNL     1     -11.617  10.795  70.288  1.00  0.00    -0.427 C  
HETATM    2  C   UNL     1     -12.401  12.072  70.543  1.00  0.00    -0.369 C  
ENDROOT
BRANCH   2   3
HETATM    3  C   UNL     1     -13.129  12.048  71.858  1.00  0.00    -0.475 C  
HETATM    4  C   UNL     1     -13.897  13.040  72.340  1.00  0.00    -0.526 C  
BRANCH   4   5
HETATM    5  C   UNL     1     -14.092  14.384  71.696  1.00  0.00    -0.511 C  
BRANCH   5   6
HETATM    6  C   UNL     1     -13.476  15.490  72.508  1.00  0.00    -0.622 C  
HETATM    7  C   UNL     1     -12.240  15.996  72.353  1.00  0.00    -0.603 C  
BRANCH   7   8
HETATM    8  C   UNL     1     -11.241  15.509  71.344  1.00  0.00    -0.410 C  
BRANCH   8   9
HETATM    9  C   UNL     1     -11.761  15.582  69.939  1.00  0.00    -0.368 C  
HETATM   10  C   UNL     1     -11.396  16.467  68.995  1.00  0.00    -0.253 C  
BRANCH  10  11
HETATM   11  C   UNL     1     -10.337  17.529  69.109  1.00  0.00    -0.239 C  
BRANCH  11  12
HETATM   12  C   UNL     1     -10.174  18.342  67.854  1.00  0.00    -0.404 C  
HETATM   13  C   UNL     1      -9.959  17.871  66.616  1.00  0.00    -0.355 C  
BRANCH  13  14
HETATM   14  C   UNL     1      -9.765  16.435  66.258  1.00  0.00    -0.332 C  
BRANCH  14  15
HETATM   15  C   UNL     1      -8.342  15.975  66.416  1.00  0.00    -0.344 C  
HETATM   16  C   UNL     1      -7.964  15.045  67.310  1.00  0.00    -0.234 C  
BRANCH  16  17
HETATM   17  C   UNL     1      -8.891  14.400  68.296  1.00  0.00    -0.182 C  
BRANCH  17  18
HETATM   18  C   UNL     1      -9.002  12.911  68.119  1.00  0.00    -0.202 C  
HETATM   19  C   UNL     1     -10.031  12.329  67.478  1.00  0.00    -0.201 C  
BRANCH  19  20
HETATM   20  C   UNL     1     -11.147  13.139  66.875  1.00  0.00    -0.308 C  
BRANCH  20  21
HETATM   21  C   UNL     1     -11.877  12.469  65.718  1.00  0.00    -0.494 C  
HETATM   22  C   UNL     1     -11.652  13.279  64.459  1.00  0.00    -0.369 C  
HETATM   23  O   UNL     1     -12.638  13.119  63.544  1.00  0.00    -0.722 OA 
HETATM   24  O   UNL     1     -10.685  13.987  64.245  1.00  0.00    -0.301 OA 
ENDBRANCH  20  21
ENDBRANCH  19  20
ENDBRANCH  17  18
ENDBRANCH  16  17
ENDBRANCH  14  15
ENDBRANCH  13  14
ENDBRANCH  11  12
ENDBRANCH  10  11
ENDBRANCH   8   9
ENDBRANCH   7   8
ENDBRANCH   5   6
ENDBRANCH   4   5
ENDBRANCH   2   3
TORSDOF 13
ENDMDL
MODEL       31
REMARK 921   NORMALIZED FREE ENERGY PREDICTED BY IDOCK:   -5.11 KCAL/MOL
REMARK 922        TOTAL FREE ENERGY PREDICTED BY IDOCK:  -11.77 KCAL/MOL
REMARK 923 INTER-LIGAND FREE ENERGY PREDICTED BY IDOCK:   -9.48 KCAL/MOL
REMARK 924 INTRA-LIGAND FREE ENERGY PREDICTED BY IDOCK:   -2.29 KCAL/MOL
REMARK 927      BINDING AFFINITY PREDICTED BY RF-SCORE:    0.00 PKD
ROOT
HETATM    1  C   UNL     1     -12.650  13.793  65.344  1.00  0.00    -0.534 C  
HETATM    2  C   UNL     1     -12.543  12.529  64.508  1.00  0.00    -0.503 C  
ENDROOT
BRANCH   2   3
HETATM    3  C   UNL     1     -11.433  12.598  63.497  1.00  0.00    -0.557 C  
HETATM    4  C   UNL     1     -10.413  11.728  63.401  1.00  0.00    -0.485 C  
BRANCH   4   5
HETATM    5  C   UNL     1     -10.148  10.587  64.342  1.00  0.00    -0.395 C  
BRANCH   5   6
HETATM    6  C   UNL     1      -9.181  10.969  65.430  1.00  0.00    -0.232 C  
HETATM    7  C   UNL     1      -9.377  10.828  66.752  1.00  0.00    -0.182 C  
BRANCH   7   8
HETATM    8  C   UNL     1     -10.630  10.286  67.374  1.00  0.00    -0.324 C  
BRANCH   8   9
HETATM    9  C   UNL     1     -11.561  11.370  67.832  1.00  0.00    -0.337 C  
HETATM   10  C   UNL     1     -12.034  11.547  69.077  1.00  0.00    -0.377 C  
BRANCH  10  11
HETATM   11  C   UNL     1     -11.681  10.749  70.303  1.00  0.00    -0.442 C  
BRANCH  11  12
HETATM   12  C   UNL     1     -12.843  10.549  71.236  1.00  0.00    -0.532 C  
HETATM   13  C   UNL     1     -13.406  11.476  72.027  1.00  0.00    -0.397 C  
BRANCH  13  14
HETATM   14  C   UNL     1     -12.929  12.882  72.186  1.00  0.00    -0.350 C  
BRANCH  14  15
HETATM   15  C   UNL     1     -14.020  13.899  72.003  1.00  0.00    -0.585 C  
HETATM   16  C   UNL     1     -13.845  15.056  71.341  1.00  0.00    -0.560 C  
BRANCH  16  17
HETATM   17  C   UNL     1     -12.537  15.503  70.760  1.00  0.00    -0.505 C  
BRANCH  17  18
HETATM   18  C   UNL     1     -12.367  15.121  69.316  1.00  0.00    -0.128 C  
HETATM   19  C   UNL     1     -11.463  15.706  68.510  1.00  0.00    -0.380 C  
BRANCH  19  20
HETATM   20  C   UNL     1     -10.540  16.785  69.009  1.00  0.00    -0.343 C  
BRANCH  20  21
HETATM   21  C   UNL     1     -10.505  18.048  68.157  1.00  0.00    -0.373 C  
HETATM   22  C   UNL     1      -9.174  18.740  68.358  1.00  0.00    -0.339 C  
HETATM   23  O   UNL     1      -9.229  20.072  68.116  1.00  0.00    -0.310 OA 
HETATM   24  O   UNL     1      -8.137  18.186  68.675  1.00  0.00    -0.307 OA 
ENDBRANCH  20  21
ENDBRANCH  19  20
ENDBRANCH  17  18
ENDBRANCH  16  17
ENDBRANCH  14  15
ENDBRANCH  13  14
ENDBRANCH  11  12
ENDBRANCH  10  11
ENDBRANCH   8   9
ENDBRANCH   7   8
ENDBRANCH   5   6
ENDBRANCH   4   5
ENDBRANCH   2   3
TORSDOF 13
ENDMDL
MODEL       32
REMARK 921   NORMALIZED FREE ENERGY PREDICTED BY IDOCK:   -5.07 KCAL/MOL
REMARK 922        TOTAL FREE ENERGY PREDICTED BY IDOCK:  -11.70 KCAL/MOL
REMARK 923 INTER-LIGAND FREE ENERGY PREDICTED BY IDOCK:   -8.37 KCAL/MOL
REMARK 924 INTRA-LIGAND FREE ENERGY PREDICTED BY IDOCK:   -3.33 KCAL/MOL
REMARK 927      BINDING AFFINITY PREDICTED BY RF-SCORE:    0.00 PKD
ROOT
HETATM    1  C   UNL     1     -10.881   6.977  67.186  1.00  0.00    -0.427 C  
HETATM    2  C   UNL     1     -10.557   7.263  68.643  1.00  0.00    -0.194 C  
ENDROOT
BRANCH   2   3
HETATM    3  C   UNL     1      -9.089   7.490  68.873  1.00  0.00    -0.140 C  
HETATM    4  C   UNL     1      -8.563   8.241  69.856  1.00  0.00    -0.125 C  
BRANCH   4   5
HETATM    5  C   UNL     1      -9.346   9.062  70.841  1.00  0.00    -0.326 C  
BRANCH   5   6
HETATM    6  C   UNL     1      -9.551   8.334  72.141  1.00  0.00    -0.338 C  
HETATM    7  C   UNL     1     -10.722   7.875  72.618  1.00  0.00    -0.411 C  
BRANCH   7   8
HETATM    8  C   UNL     1     -12.046   8.046  71.933  1.00  0.00    -0.359 C  
BRANCH   8   9
HETATM    9  C   UNL     1     -12.825   9.210  72.471  1.00  0.00    -0.387 C  
HETATM   10  C   UNL     1     -13.133  10.341  71.814  1.00  0.00    -0.570 C  
BRANCH  10  11
HETATM   11  C   UNL     1     -12.832  10.664  70.375  1.00  0.00    -0.277 C  
BRANCH  11  12
HETATM   12  C   UNL     1     -11.829  11.773  70.213  1.00  0.00    -0.382 C  
HETATM   13  C   UNL     1     -10.992  11.953  69.179  1.00  0.00    -0.251 C  
BRANCH  13  14
HETATM   14  C   UNL     1     -10.844  11.031  68.015  1.00  0.00    -0.278 C  
BRANCH  14  15
HETATM   15  C   UNL     1      -9.427  10.922  67.525  1.00  0.00    -0.168 C  
HETATM   16  C   UNL     1      -9.107  10.554  66.272  1.00  0.00    -0.184 C  
BRANCH  16  17
HETATM   17  C   UNL     1     -10.109  10.150  65.233  1.00  0.00    -0.344 C  
BRANCH  17  18
HETATM   18  C   UNL     1      -9.710  10.546  63.838  1.00  0.00    -0.384 C  
HETATM   19  C   UNL     1     -10.170  11.659  63.239  1.00  0.00    -0.445 C  
BRANCH  19  20
HETATM   20  C   UNL     1     -11.115  12.601  63.937  1.00  0.00    -0.476 C  
BRANCH  20  21
HETATM   21  C   UNL     1     -10.456  13.813  64.583  1.00  0.00    -0.433 C  
HETATM   22  C   UNL     1     -11.426  14.975  64.550  1.00  0.00    -0.318 C  
HETATM   23  O   UNL     1     -10.807  16.180  64.577  1.00  0.00    -0.628 OA 
HETATM   24  O   UNL     1     -12.639  14.875  64.531  1.00  0.00    -0.519 OA 
ENDBRANCH  20  21
ENDBRANCH  19  20
ENDBRANCH  17  18
ENDBRANCH  16  17
ENDBRANCH  14  15
ENDBRANCH  13  14
ENDBRANCH  11  12
ENDBRANCH  10  11
ENDBRANCH   8   9
ENDBRANCH   7   8
ENDBRANCH   5   6
ENDBRANCH   4   5
ENDBRANCH   2   3
TORSDOF 13
ENDMDL
MODEL       33
REMARK 921   NORMALIZED FREE ENERGY PREDICTED BY IDOCK:   -5.06 KCAL/MOL
REMARK 922        TOTAL FREE ENERGY PREDICTED BY IDOCK:  -11.68 KCAL/MOL
REMARK 923 INTER-LIGAND FREE ENERGY PREDICTED BY IDOCK:   -8.61 KCAL/MOL
REMARK 924 INTRA-LIGAND FREE ENERGY PREDICTED BY IDOCK:   -3.07 KCAL/MOL
REMARK 927      BINDING AFFINITY PREDICTED BY RF-SCORE:    0.00 PKD
ROOT
HETATM    1  C   UNL     1     -12.298  11.202  70.785  1.00  0.00    -0.504 C  
HETATM    2  C   UNL     1     -11.965  12.588  70.260  1.00  0.00    -0.364 C  
ENDROOT
BRANCH   2   3
HETATM    3  C   UNL     1     -12.584  13.681  71.085  1.00  0.00    -0.452 C  
HETATM    4  C   UNL     1     -12.647  14.978  70.738  1.00  0.00    -0.429 C  
BRANCH   4   5
HETATM    5  C   UNL     1     -12.028  15.583  69.509  1.00  0.00    -0.372 C  
BRANCH   5   6
HETATM    6  C   UNL     1     -10.756  16.321  69.826  1.00  0.00    -0.345 C  
HETATM    7  C   UNL     1     -10.082  17.135  68.995  1.00  0.00    -0.297 C  
BRANCH   7   8
HETATM    8  C   UNL     1     -10.478  17.420  67.576  1.00  0.00    -0.354 C  
BRANCH   8   9
HETATM    9  C   UNL     1     -10.818  18.865  67.353  1.00  0.00    -0.449 C  
HETATM   10  C   UNL     1      -9.988  19.913  67.488  1.00  0.00    -0.552 C  
BRANCH  10  11
HETATM   11  C   UNL     1      -8.521  19.871  67.819  1.00  0.00    -0.356 C  
BRANCH  11  12
HETATM   12  C   UNL     1      -7.637  20.098  66.623  1.00  0.00    -0.315 C  
HETATM   13  C   UNL     1      -7.132  19.158  65.809  1.00  0.00    -0.296 C  
BRANCH  13  14
HETATM   14  C   UNL     1      -7.294  17.684  65.984  1.00  0.00    -0.301 C  
BRANCH  14  15
HETATM   15  C   UNL     1      -6.512  17.138  67.146  1.00  0.00    -0.212 C  
HETATM   16  C   UNL     1      -6.697  15.904  67.644  1.00  0.00    -0.195 C  
BRANCH  16  17
HETATM   17  C   UNL     1      -7.741  14.946  67.151  1.00  0.00    -0.177 C  
BRANCH  17  18
HETATM   18  C   UNL     1      -8.312  14.080  68.239  1.00  0.00    -0.162 C  
HETATM   19  C   UNL     1      -9.385  13.290  68.052  1.00  0.00    -0.218 C  
BRANCH  19  20
HETATM   20  C   UNL     1     -10.086  13.209  66.722  1.00  0.00    -0.253 C  
BRANCH  20  21
HETATM   21  C   UNL     1     -11.421  13.939  66.652  1.00  0.00    -0.370 C  
HETATM   22  C   UNL     1     -12.276  13.298  65.580  1.00  0.00    -0.462 C  
HETATM   23  O   UNL     1     -13.198  14.145  65.062  1.00  0.00    -0.691 OA 
HETATM   24  O   UNL     1     -12.191  12.139  65.216  1.00  0.00    -0.484 OA 
ENDBRANCH  20  21
ENDBRANCH  19  20
ENDBRANCH  17  18
ENDBRANCH  16  17
ENDBRANCH  14  15
ENDBRANCH  13  14
ENDBRANCH  11  12
ENDBRANCH  10  11
ENDBRANCH   8   9
ENDBRANCH   7   8
ENDBRANCH   5   6
ENDBRANCH   4   5
ENDBRANCH   2   3
TORSDOF 13
ENDMDL
MODEL       34
REMARK 921   NORMALIZED FREE ENERGY PREDICTED BY IDOCK:   -5.06 KCAL/MOL
REMARK 922        TOTAL FREE ENERGY PREDICTED BY IDOCK:  -11.68 KCAL/MOL
REMARK 923 INTER-LIGAND FREE ENERGY PREDICTED BY IDOCK:   -9.86 KCAL/MOL
REMARK 924 INTRA-LIGAND FREE ENERGY PREDICTED BY IDOCK:   -1.82 KCAL/MOL
REMARK 927      BINDING AFFINITY PREDICTED BY RF-SCORE:    0.00 PKD
ROOT
HETATM    1  C   UNL     1      -8.584   4.252  70.938  1.00  0.00    -0.112 C  
HETATM    2  C   UNL     1      -9.870   4.080  70.146  1.00  0.00    -0.207 C  
ENDROOT
BRANCH   2   3
HETATM    3  C   UNL     1     -10.182   5.273  69.288  1.00  0.00    -0.301 C  
HETATM    4  C   UNL     1     -10.940   6.320  69.658  1.00  0.00    -0.440 C  
BRANCH   4   5
HETATM    5  C   UNL     1     -11.686   6.441  70.957  1.00  0.00    -0.358 C  
BRANCH   5   6
HETATM    6  C   UNL     1     -10.862   7.122  72.016  1.00  0.00    -0.252 C  
HETATM    7  C   UNL     1     -10.769   8.447  72.220  1.00  0.00    -0.417 C  
BRANCH   7   8
HETATM    8  C   UNL     1     -11.460   9.487  71.388  1.00  0.00    -0.462 C  
BRANCH   8   9
HETATM    9  C   UNL     1     -12.840   9.799  71.886  1.00  0.00    -0.520 C  
HETATM   10  C   UNL     1     -13.397  11.017  71.995  1.00  0.00    -0.393 C  
BRANCH  10  11
HETATM   11  C   UNL     1     -12.794  12.330  71.575  1.00  0.00    -0.384 C  
BRANCH  11  12
HETATM   12  C   UNL     1     -13.557  13.523  72.082  1.00  0.00    -0.651 C  
HETATM   13  C   UNL     1     -13.096  14.778  72.202  1.00  0.00    -0.426 C  
BRANCH  13  14
HETATM   14  C   UNL     1     -11.698  15.217  71.921  1.00  0.00    -0.490 C  
BRANCH  14  15
HETATM   15  C   UNL     1     -11.605  16.207  70.794  1.00  0.00    -0.382 C  
HETATM   16  C   UNL     1     -11.292  15.862  69.533  1.00  0.00    -0.335 C  
BRANCH  16  17
HETATM   17  C   UNL     1     -10.939  14.468  69.107  1.00  0.00    -0.286 C  
BRANCH  17  18
HETATM   18  C   UNL     1     -12.011  13.809  68.284  1.00  0.00    -0.392 C  
HETATM   19  C   UNL     1     -11.885  13.595  66.962  1.00  0.00    -0.448 C  
BRANCH  19  20
HETATM   20  C   UNL     1     -10.643  13.992  66.211  1.00  0.00    -0.281 C  
BRANCH  20  21
HETATM   21  C   UNL     1     -10.879  14.482  64.788  1.00  0.00    -0.410 C  
HETATM   22  C   UNL     1     -10.995  15.991  64.800  1.00  0.00    -0.356 C  
HETATM   23  O   UNL     1     -11.719  16.474  63.762  1.00  0.00    -1.086 OA 
HETATM   24  O   UNL     1     -10.482  16.727  65.624  1.00  0.00    -0.470 OA 
ENDBRANCH  20  21
ENDBRANCH  19  20
ENDBRANCH  17  18
ENDBRANCH  16  17
ENDBRANCH  14  15
ENDBRANCH  13  14
ENDBRANCH  11  12
ENDBRANCH  10  11
ENDBRANCH   8   9
ENDBRANCH   7   8
ENDBRANCH   5   6
ENDBRANCH   4   5
ENDBRANCH   2   3
TORSDOF 13
ENDMDL
MODEL       35
REMARK 921   NORMALIZED FREE ENERGY PREDICTED BY IDOCK:   -5.04 KCAL/MOL
REMARK 922        TOTAL FREE ENERGY PREDICTED BY IDOCK:  -11.64 KCAL/MOL
REMARK 923 INTER-LIGAND FREE ENERGY PREDICTED BY IDOCK:   -9.42 KCAL/MOL
REMARK 924 INTRA-LIGAND FREE ENERGY PREDICTED BY IDOCK:   -2.22 KCAL/MOL
REMARK 927      BINDING AFFINITY PREDICTED BY RF-SCORE:    0.00 PKD
ROOT
HETATM    1  C   UNL     1     -11.801  16.221  72.486  1.00  0.00    -0.608 C  
HETATM    2  C   UNL     1     -13.098  15.801  73.158  1.00  0.00    -0.669 C  
ENDROOT
BRANCH   2   3
HETATM    3  C   UNL     1     -14.169  15.438  72.169  1.00  0.00    -0.660 C  
HETATM    4  C   UNL     1     -14.159  14.355  71.374  1.00  0.00    -0.378 C  
BRANCH   4   5
HETATM    5  C   UNL     1     -13.034  13.364  71.264  1.00  0.00    -0.368 C  
BRANCH   5   6
HETATM    6  C   UNL     1     -13.221  12.197  72.195  1.00  0.00    -0.438 C  
HETATM    7  C   UNL     1     -13.129  10.896  71.867  1.00  0.00    -0.537 C  
BRANCH   7   8
HETATM    8  C   UNL     1     -12.850  10.385  70.484  1.00  0.00    -0.326 C  
BRANCH   8   9
HETATM    9  C   UNL     1     -11.405  10.513  70.103  1.00  0.00    -0.400 C  
HETATM   10  C   UNL     1     -10.917  11.078  68.986  1.00  0.00    -0.284 C  
BRANCH  10  11
HETATM   11  C   UNL     1     -11.700  11.774  67.906  1.00  0.00    -0.347 C  
BRANCH  11  12
HETATM   12  C   UNL     1     -11.190  11.481  66.521  1.00  0.00    -0.324 C  
HETATM   13  C   UNL     1     -11.388  12.224  65.420  1.00  0.00    -0.389 C  
BRANCH  13  14
HETATM   14  C   UNL     1     -12.224  13.457  65.347  1.00  0.00    -0.492 C  
BRANCH  14  15
HETATM   15  C   UNL     1     -11.418  14.705  65.116  1.00  0.00    -0.375 C  
HETATM   16  C   UNL     1     -10.979  15.494  66.111  1.00  0.00    -0.247 C  
BRANCH  16  17
HETATM   17  C   UNL     1     -11.289  15.269  67.561  1.00  0.00    -0.300 C  
BRANCH  17  18
HETATM   18  C   UNL     1     -10.059  15.109  68.412  1.00  0.00    -0.225 C  
HETATM   19  C   UNL     1      -9.452  16.148  69.014  1.00  0.00    -0.246 C  
BRANCH  19  20
HETATM   20  C   UNL     1      -9.976  17.553  68.887  1.00  0.00    -0.313 C  
BRANCH  20  21
HETATM   21  C   UNL     1      -9.049  18.522  68.163  1.00  0.00    -0.329 C  
HETATM   22  C   UNL     1      -9.825  19.215  67.064  1.00  0.00    -0.336 C  
HETATM   23  O   UNL     1      -9.035  19.651  66.053  1.00  0.00    -0.359 OA 
HETATM   24  O   UNL     1     -11.029  19.405  67.067  1.00  0.00    -0.467 OA 
ENDBRANCH  20  21
ENDBRANCH  19  20
ENDBRANCH  17  18
ENDBRANCH  16  17
ENDBRANCH  14  15
ENDBRANCH  13  14
ENDBRANCH  11  12
ENDBRANCH  10  11
ENDBRANCH   8   9
ENDBRANCH   7   8
ENDBRANCH   5   6
ENDBRANCH   4   5
ENDBRANCH   2   3
TORSDOF 13
ENDMDL
MODEL       36
REMARK 921   NORMALIZED FREE ENERGY PREDICTED BY IDOCK:   -5.04 KCAL/MOL
REMARK 922        TOTAL FREE ENERGY PREDICTED BY IDOCK:  -11.64 KCAL/MOL
REMARK 923 INTER-LIGAND FREE ENERGY PREDICTED BY IDOCK:   -8.82 KCAL/MOL
REMARK 924 INTRA-LIGAND FREE ENERGY PREDICTED BY IDOCK:   -2.82 KCAL/MOL
REMARK 927      BINDING AFFINITY PREDICTED BY RF-SCORE:    0.00 PKD
ROOT
HETATM    1  C   UNL     1     -13.909  14.046  72.409  1.00  0.00    -0.653 C  
HETATM    2  C   UNL     1     -13.456  14.444  71.014  1.00  0.00    -0.309 C  
ENDROOT
BRANCH   2   3
HETATM    3  C   UNL     1     -12.375  15.488  71.034  1.00  0.00    -0.471 C  
HETATM    4  C   UNL     1     -11.660  15.889  69.969  1.00  0.00    -0.346 C  
BRANCH   4   5
HETATM    5  C   UNL     1     -11.747  15.301  68.589  1.00  0.00    -0.367 C  
BRANCH   5   6
HETATM    6  C   UNL     1     -10.540  14.468  68.256  1.00  0.00    -0.241 C  
HETATM    7  C   UNL     1     -10.526  13.141  68.036  1.00  0.00    -0.245 C  
BRANCH   7   8
HETATM    8  C   UNL     1     -11.732  12.252  68.120  1.00  0.00    -0.408 C  
BRANCH   8   9
HETATM    9  C   UNL     1     -11.911  11.652  69.483  1.00  0.00    -0.414 C  
HETATM   10  C   UNL     1     -11.312  10.546  69.956  1.00  0.00    -0.392 C  
BRANCH  10  11
HETATM   11  C   UNL     1     -10.276   9.707  69.258  1.00  0.00    -0.215 C  
BRANCH  11  12
HETATM   12  C   UNL     1     -10.499   8.229  69.426  1.00  0.00    -0.224 C  
HETATM   13  C   UNL     1     -10.600   7.316  68.446  1.00  0.00    -0.209 C  
BRANCH  13  14
HETATM   14  C   UNL     1     -10.584   7.613  66.983  1.00  0.00    -0.406 C  
BRANCH  14  15
HETATM   15  C   UNL     1      -9.195   7.745  66.423  1.00  0.00    -0.229 C  
HETATM   16  C   UNL     1      -8.787   8.808  65.708  1.00  0.00    -0.233 C  
BRANCH  16  17
HETATM   17  C   UNL     1      -9.674   9.955  65.327  1.00  0.00    -0.383 C  
BRANCH  17  18
HETATM   18  C   UNL     1      -9.548  10.349  63.882  1.00  0.00    -0.370 C  
HETATM   19  C   UNL     1      -9.913  11.560  63.423  1.00  0.00    -0.445 C  
BRANCH  19  20
HETATM   20  C   UNL     1     -10.466  12.619  64.339  1.00  0.00    -0.398 C  
BRANCH  20  21
HETATM   21  C   UNL     1     -11.985  12.725  64.356  1.00  0.00    -0.464 C  
HETATM   22  C   UNL     1     -12.377  14.066  64.939  1.00  0.00    -0.427 C  
HETATM   23  O   UNL     1     -13.612  14.059  65.497  1.00  0.00    -0.596 OA 
HETATM   24  O   UNL     1     -11.693  15.073  64.904  1.00  0.00    -0.377 OA 
ENDBRANCH  20  21
ENDBRANCH  19  20
ENDBRANCH  17  18
ENDBRANCH  16  17
ENDBRANCH  14  15
ENDBRANCH  13  14
ENDBRANCH  11  12
ENDBRANCH  10  11
ENDBRANCH   8   9
ENDBRANCH   7   8
ENDBRANCH   5   6
ENDBRANCH   4   5
ENDBRANCH   2   3
TORSDOF 13
ENDMDL
MODEL       37
REMARK 921   NORMALIZED FREE ENERGY PREDICTED BY IDOCK:   -5.04 KCAL/MOL
REMARK 922        TOTAL FREE ENERGY PREDICTED BY IDOCK:  -11.64 KCAL/MOL
REMARK 923 INTER-LIGAND FREE ENERGY PREDICTED BY IDOCK:   -8.96 KCAL/MOL
REMARK 924 INTRA-LIGAND FREE ENERGY PREDICTED BY IDOCK:   -2.68 KCAL/MOL
REMARK 927      BINDING AFFINITY PREDICTED BY RF-SCORE:    0.00 PKD
ROOT
HETATM    1  C   UNL     1      -9.790  16.788  66.914  1.00  0.00    -0.269 C  
HETATM    2  C   UNL     1     -10.132  15.471  66.238  1.00  0.00    -0.312 C  
ENDROOT
BRANCH   2   3
HETATM    3  C   UNL     1     -11.019  15.652  65.039  1.00  0.00    -0.445 C  
HETATM    4  C   UNL     1     -12.008  14.819  64.670  1.00  0.00    -0.448 C  
BRANCH   4   5
HETATM    5  C   UNL     1     -12.341  13.512  65.334  1.00  0.00    -0.517 C  
BRANCH   5   6
HETATM    6  C   UNL     1     -12.731  12.458  64.335  1.00  0.00    -0.434 C  
HETATM    7  C   UNL     1     -11.889  11.723  63.586  1.00  0.00    -0.498 C  
BRANCH   7   8
HETATM    8  C   UNL     1     -10.395  11.860  63.602  1.00  0.00    -0.477 C  
BRANCH   8   9
HETATM    9  C   UNL     1      -9.700  10.644  63.065  1.00  0.00    -0.362 C  
HETATM   10  C   UNL     1      -8.838   9.855  63.728  1.00  0.00    -0.254 C  
BRANCH  10  11
HETATM   11  C   UNL     1      -8.434   9.968  65.173  1.00  0.00    -0.160 C  
BRANCH  11  12
HETATM   12  C   UNL     1      -9.157   9.000  66.069  1.00  0.00    -0.257 C  
HETATM   13  C   UNL     1     -10.219   9.266  66.845  1.00  0.00    -0.327 C  
BRANCH  13  14
HETATM   14  C   UNL     1     -10.844  10.609  67.026  1.00  0.00    -0.298 C  
BRANCH  14  15
HETATM   15  C   UNL     1      -9.916  11.613  67.650  1.00  0.00    -0.201 C  
HETATM   16  C   UNL     1     -10.314  12.522  68.557  1.00  0.00    -0.233 C  
BRANCH  16  17
HETATM   17  C   UNL     1     -11.733  12.689  69.012  1.00  0.00    -0.367 C  
BRANCH  17  18
HETATM   18  C   UNL     1     -12.229  14.104  68.898  1.00  0.00    -0.257 C  
HETATM   19  C   UNL     1     -12.641  14.818  69.962  1.00  0.00    -0.268 C  
BRANCH  19  20
HETATM   20  C   UNL     1     -12.619  14.246  71.354  1.00  0.00    -0.434 C  
BRANCH  20  21
HETATM   21  C   UNL     1     -13.477  14.991  72.369  1.00  0.00    -0.533 C  
HETATM   22  C   UNL     1     -12.633  16.052  73.043  1.00  0.00    -0.503 C  
HETATM   23  O   UNL     1     -13.085  16.382  74.277  1.00  0.00    -0.616 OA 
HETATM   24  O   UNL     1     -11.662  16.594  72.547  1.00  0.00    -0.485 OA 
ENDBRANCH  20  21
ENDBRANCH  19  20
ENDBRANCH  17  18
ENDBRANCH  16  17
ENDBRANCH  14  15
ENDBRANCH  13  14
ENDBRANCH  11  12
ENDBRANCH  10  11
ENDBRANCH   8   9
ENDBRANCH   7   8
ENDBRANCH   5   6
ENDBRANCH   4   5
ENDBRANCH   2   3
TORSDOF 13
ENDMDL
MODEL       38
REMARK 921   NORMALIZED FREE ENERGY PREDICTED BY IDOCK:   -5.03 KCAL/MOL
REMARK 922        TOTAL FREE ENERGY PREDICTED BY IDOCK:  -11.62 KCAL/MOL
REMARK 923 INTER-LIGAND FREE ENERGY PREDICTED BY IDOCK:   -8.71 KCAL/MOL
REMARK 924 INTRA-LIGAND FREE ENERGY PREDICTED BY IDOCK:   -2.91 KCAL/MOL
REMARK 927      BINDING AFFINITY PREDICTED BY RF-SCORE:    0.00 PKD
ROOT
HETATM    1  C   UNL     1      -7.732  17.308  66.136  1.00  0.00    -0.317 C  
HETATM    2  C   UNL     1      -8.954  16.405  66.111  1.00  0.00    -0.367 C  
ENDROOT
BRANCH   2   3
HETATM    3  C   UNL     1     -10.159  17.049  66.735  1.00  0.00    -0.300 C  
HETATM    4  C   UNL     1     -10.554  16.891  68.010  1.00  0.00    -0.367 C  
BRANCH   4   5
HETATM    5  C   UNL     1      -9.917  15.971  69.013  1.00  0.00    -0.242 C  
BRANCH   5   6
HETATM    6  C   UNL     1     -10.923  15.052  69.650  1.00  0.00    -0.294 C  
HETATM    7  C   UNL     1     -11.476  13.965  69.084  1.00  0.00    -0.345 C  
BRANCH   7   8
HETATM    8  C   UNL     1     -11.200  13.500  67.685  1.00  0.00    -0.304 C  
BRANCH   8   9
HETATM    9  C   UNL     1     -12.332  13.798  66.746  1.00  0.00    -0.365 C  
HETATM   10  C   UNL     1     -12.261  13.879  65.406  1.00  0.00    -0.463 C  
BRANCH  10  11
HETATM   11  C   UNL     1     -11.056  13.618  64.544  1.00  0.00    -0.396 C  
BRANCH  11  12
HETATM   12  C   UNL     1     -11.182  12.374  63.709  1.00  0.00    -0.520 C  
HETATM   13  C   UNL     1     -10.582  11.194  63.930  1.00  0.00    -0.431 C  
BRANCH  13  14
HETATM   14  C   UNL     1      -9.605  10.912  65.023  1.00  0.00    -0.299 C  
BRANCH  14  15
HETATM   15  C   UNL     1      -9.637   9.484  65.490  1.00  0.00    -0.349 C  
HETATM   16  C   UNL     1     -10.241   9.093  66.625  1.00  0.00    -0.328 C  
BRANCH  16  17
HETATM   17  C   UNL     1     -10.900  10.031  67.592  1.00  0.00    -0.336 C  
BRANCH  17  18
HETATM   18  C   UNL     1     -10.109  10.231  68.856  1.00  0.00    -0.216 C  
HETATM   19  C   UNL     1     -10.689  10.403  70.057  1.00  0.00    -0.321 C  
BRANCH  19  20
HETATM   20  C   UNL     1     -12.186  10.393  70.222  1.00  0.00    -0.349 C  
BRANCH  20  21
HETATM   21  C   UNL     1     -12.675  10.377  71.665  1.00  0.00    -0.560 C  
HETATM   22  C   UNL     1     -13.380   9.064  71.929  1.00  0.00    -0.417 C  
HETATM   23  O   UNL     1     -14.292   9.145  72.928  1.00  0.00    -0.519 OA 
HETATM   24  O   UNL     1     -13.156   8.018  71.346  1.00  0.00    -0.304 OA 
ENDBRANCH  20  21
ENDBRANCH  19  20
ENDBRANCH  17  18
ENDBRANCH  16  17
ENDBRANCH  14  15
ENDBRANCH  13  14
ENDBRANCH  11  12
ENDBRANCH  10  11
ENDBRANCH   8   9
ENDBRANCH   7   8
ENDBRANCH   5   6
ENDBRANCH   4   5
ENDBRANCH   2   3
TORSDOF 13
ENDMDL
MODEL       39
REMARK 921   NORMALIZED FREE ENERGY PREDICTED BY IDOCK:   -5.01 KCAL/MOL
REMARK 922        TOTAL FREE ENERGY PREDICTED BY IDOCK:  -11.60 KCAL/MOL
REMARK 923 INTER-LIGAND FREE ENERGY PREDICTED BY IDOCK:   -9.34 KCAL/MOL
REMARK 924 INTRA-LIGAND FREE ENERGY PREDICTED BY IDOCK:   -2.26 KCAL/MOL
REMARK 927      BINDING AFFINITY PREDICTED BY RF-SCORE:    0.00 PKD
ROOT
HETATM    1  C   UNL     1     -12.038  15.253  69.822  1.00  0.00    -0.357 C  
HETATM    2  C   UNL     1     -13.242  15.432  70.732  1.00  0.00    -0.440 C  
ENDROOT
BRANCH   2   3
HETATM    3  C   UNL     1     -12.919  15.169  72.175  1.00  0.00    -0.440 C  
HETATM    4  C   UNL     1     -13.043  13.984  72.797  1.00  0.00    -0.537 C  
BRANCH   4   5
HETATM    5  C   UNL     1     -13.615  12.735  72.188  1.00  0.00    -0.547 C  
BRANCH   5   6
HETATM    6  C   UNL     1     -12.662  12.099  71.212  1.00  0.00    -0.363 C  
HETATM    7  C   UNL     1     -12.542  10.784  70.961  1.00  0.00    -0.520 C  
BRANCH   7   8
HETATM    8  C   UNL     1     -13.332   9.711  71.651  1.00  0.00    -0.485 C  
BRANCH   8   9
HETATM    9  C   UNL     1     -12.463   8.771  72.435  1.00  0.00    -0.421 C  
HETATM   10  C   UNL     1     -12.038   7.558  72.044  1.00  0.00    -0.326 C  
BRANCH  10  11
HETATM   11  C   UNL     1     -12.273   6.901  70.710  1.00  0.00    -0.364 C  
BRANCH  11  12
HETATM   12  C   UNL     1     -11.037   6.264  70.137  1.00  0.00    -0.443 C  
HETATM   13  C   UNL     1     -10.168   6.825  69.281  1.00  0.00    -0.197 C  
BRANCH  13  14
HETATM   14  C   UNL     1     -10.308   8.180  68.671  1.00  0.00    -0.224 C  
BRANCH  14  15
HETATM   15  C   UNL     1      -9.663   9.265  69.488  1.00  0.00    -0.179 C  
HETATM   16  C   UNL     1      -9.534  10.533  69.060  1.00  0.00    -0.211 C  
BRANCH  16  17
HETATM   17  C   UNL     1      -9.957  11.008  67.702  1.00  0.00    -0.196 C  
BRANCH  17  18
HETATM   18  C   UNL     1     -11.193  11.863  67.731  1.00  0.00    -0.330 C  
HETATM   19  C   UNL     1     -11.590  12.604  66.680  1.00  0.00    -0.443 C  
BRANCH  19  20
HETATM   20  C   UNL     1     -10.822  12.617  65.386  1.00  0.00    -0.318 C  
BRANCH  20  21
HETATM   21  C   UNL     1     -11.382  11.712  64.296  1.00  0.00    -0.361 C  
HETATM   22  C   UNL     1     -12.468  12.457  63.549  1.00  0.00    -0.500 C  
HETATM   23  O   UNL     1     -13.373  11.631  62.970  1.00  0.00    -0.341 OA 
HETATM   24  O   UNL     1     -12.537  13.667  63.436  1.00  0.00    -0.799 OA 
ENDBRANCH  20  21
ENDBRANCH  19  20
ENDBRANCH  17  18
ENDBRANCH  16  17
ENDBRANCH  14  15
ENDBRANCH  13  14
ENDBRANCH  11  12
ENDBRANCH  10  11
ENDBRANCH   8   9
ENDBRANCH   7   8
ENDBRANCH   5   6
ENDBRANCH   4   5
ENDBRANCH   2   3
TORSDOF 13
ENDMDL
MODEL       40
REMARK 921   NORMALIZED FREE ENERGY PREDICTED BY IDOCK:   -4.99 KCAL/MOL
REMARK 922        TOTAL FREE ENERGY PREDICTED BY IDOCK:  -11.56 KCAL/MOL
REMARK 923 INTER-LIGAND FREE ENERGY PREDICTED BY IDOCK:   -9.27 KCAL/MOL
REMARK 924 INTRA-LIGAND FREE ENERGY PREDICTED BY IDOCK:   -2.29 KCAL/MOL
REMARK 927      BINDING AFFINITY PREDICTED BY RF-SCORE:    0.00 PKD
ROOT
HETATM    1  C   UNL     1     -13.381  12.878  72.101  1.00  0.00    -0.615 C  
HETATM    2  C   UNL     1     -13.125  11.408  71.812  1.00  0.00    -0.523 C  
ENDROOT
BRANCH   2   3
HETATM    3  C   UNL     1     -12.280  11.200  70.588  1.00  0.00    -0.492 C  
HETATM    4  C   UNL     1     -11.428  10.178  70.394  1.00  0.00    -0.400 C  
BRANCH   4   5
HETATM    5  C   UNL     1     -11.100   9.114  71.403  1.00  0.00    -0.415 C  
BRANCH   5   6
HETATM    6  C   UNL     1     -12.062   7.959  71.335  1.00  0.00    -0.333 C  
HETATM    7  C   UNL     1     -11.880   6.813  70.655  1.00  0.00    -0.442 C  
BRANCH   7   8
HETATM    8  C   UNL     1     -10.678   6.505  69.812  1.00  0.00    -0.322 C  
BRANCH   8   9
HETATM    9  C   UNL     1     -11.035   6.229  68.381  1.00  0.00    -0.409 C  
HETATM   10  C   UNL     1     -10.776   7.017  67.323  1.00  0.00    -0.412 C  
BRANCH  10  11
HETATM   11  C   UNL     1     -10.008   8.311  67.324  1.00  0.00    -0.289 C  
BRANCH  11  12
HETATM   12  C   UNL     1      -9.164   8.501  66.094  1.00  0.00    -0.269 C  
HETATM   13  C   UNL     1      -9.245   9.511  65.214  1.00  0.00    -0.307 C  
BRANCH  13  14
HETATM   14  C   UNL     1     -10.252  10.612  65.251  1.00  0.00    -0.351 C  
BRANCH  14  15
HETATM   15  C   UNL     1     -10.241  11.463  64.012  1.00  0.00    -0.398 C  
HETATM   16  C   UNL     1     -11.229  12.318  63.696  1.00  0.00    -0.539 C  
BRANCH  16  17
HETATM   17  C   UNL     1     -12.485  12.485  64.499  1.00  0.00    -0.539 C  
BRANCH  17  18
HETATM   18  C   UNL     1     -12.638  13.863  65.081  1.00  0.00    -0.466 C  
HETATM   19  C   UNL     1     -12.326  14.154  66.357  1.00  0.00    -0.431 C  
BRANCH  19  20
HETATM   20  C   UNL     1     -11.782  13.110  67.295  1.00  0.00    -0.425 C  
BRANCH  20  21
HETATM   21  C   UNL     1     -10.760  13.620  68.303  1.00  0.00    -0.266 C  
HETATM   22  C   UNL     1      -9.392  13.629  67.653  1.00  0.00    -0.215 C  
HETATM   23  O   UNL     1      -8.381  13.528  68.549  1.00  0.00    -0.155 OA 
HETATM   24  O   UNL     1      -9.184  13.742  66.459  1.00  0.00    -0.257 OA 
ENDBRANCH  20  21
ENDBRANCH  19  20
ENDBRANCH  17  18
ENDBRANCH  16  17
ENDBRANCH  14  15
ENDBRANCH  13  14
ENDBRANCH  11  12
ENDBRANCH  10  11
ENDBRANCH   8   9
ENDBRANCH   7   8
ENDBRANCH   5   6
ENDBRANCH   4   5
ENDBRANCH   2   3
TORSDOF 13
ENDMDL
MODEL       41
REMARK 921   NORMALIZED FREE ENERGY PREDICTED BY IDOCK:   -4.99 KCAL/MOL
REMARK 922        TOTAL FREE ENERGY PREDICTED BY IDOCK:  -11.56 KCAL/MOL
REMARK 923 INTER-LIGAND FREE ENERGY PREDICTED BY IDOCK:   -8.80 KCAL/MOL
REMARK 924 INTRA-LIGAND FREE ENERGY PREDICTED BY IDOCK:   -2.76 KCAL/MOL
REMARK 927      BINDING AFFINITY PREDICTED BY RF-SCORE:    0.00 PKD
ROOT
HETATM    1  C   UNL     1     -13.947   7.396  71.644  1.00  0.00    -0.523 C  
HETATM    2  C   UNL     1     -12.640   6.814  71.131  1.00  0.00    -0.305 C  
ENDROOT
BRANCH   2   3
HETATM    3  C   UNL     1     -11.770   6.289  72.237  1.00  0.00    -0.344 C  
HETATM    4  C   UNL     1     -10.848   7.002  72.907  1.00  0.00    -0.334 C  
BRANCH   4   5
HETATM    5  C   UNL     1     -10.458   8.422  72.610  1.00  0.00    -0.317 C  
BRANCH   5   6
HETATM    6  C   UNL     1      -9.199   8.499  71.790  1.00  0.00    -0.316 C  
HETATM    7  C   UNL     1      -9.115   8.846  70.494  1.00  0.00    -0.233 C  
BRANCH   7   8
HETATM    8  C   UNL     1     -10.291   9.188  69.626  1.00  0.00    -0.226 C  
BRANCH   8   9
HETATM    9  C   UNL     1     -10.518  10.667  69.523  1.00  0.00    -0.236 C  
HETATM   10  C   UNL     1     -11.636  11.332  69.861  1.00  0.00    -0.413 C  
BRANCH  10  11
HETATM   11  C   UNL     1     -12.878  10.756  70.486  1.00  0.00    -0.335 C  
BRANCH  11  12
HETATM   12  C   UNL     1     -13.145  11.283  71.869  1.00  0.00    -0.510 C  
HETATM   13  C   UNL     1     -13.455  12.546  72.201  1.00  0.00    -0.523 C  
BRANCH  13  14
HETATM   14  C   UNL     1     -13.521  13.698  71.253  1.00  0.00    -0.196 C  
BRANCH  14  15
HETATM   15  C   UNL     1     -12.474  14.742  71.520  1.00  0.00    -0.403 C  
HETATM   16  C   UNL     1     -11.823  15.400  70.545  1.00  0.00    -0.373 C  
BRANCH  16  17
HETATM   17  C   UNL     1     -12.011  15.134  69.082  1.00  0.00    -0.304 C  
BRANCH  17  18
HETATM   18  C   UNL     1     -10.738  14.748  68.380  1.00  0.00    -0.243 C  
HETATM   19  C   UNL     1     -10.701  13.842  67.387  1.00  0.00    -0.279 C  
BRANCH  19  20
HETATM   20  C   UNL     1     -11.948  13.156  66.895  1.00  0.00    -0.421 C  
BRANCH  20  21
HETATM   21  C   UNL     1     -12.768  13.955  65.890  1.00  0.00    -0.466 C  
HETATM   22  C   UNL     1     -12.159  13.788  64.515  1.00  0.00    -0.428 C  
HETATM   23  O   UNL     1     -12.434  14.824  63.686  1.00  0.00    -0.726 OA 
HETATM   24  O   UNL     1     -11.510  12.825  64.148  1.00  0.00    -0.343 OA 
ENDBRANCH  20  21
ENDBRANCH  19  20
ENDBRANCH  17  18
ENDBRANCH  16  17
ENDBRANCH  14  15
ENDBRANCH  13  14
ENDBRANCH  11  12
ENDBRANCH  10  11
ENDBRANCH   8   9
ENDBRANCH   7   8
ENDBRANCH   5   6
ENDBRANCH   4   5
ENDBRANCH   2   3
TORSDOF 13
ENDMDL
MODEL       42
REMARK 921   NORMALIZED FREE ENERGY PREDICTED BY IDOCK:   -4.99 KCAL/MOL
REMARK 922        TOTAL FREE ENERGY PREDICTED BY IDOCK:  -11.56 KCAL/MOL
REMARK 923 INTER-LIGAND FREE ENERGY PREDICTED BY IDOCK:   -8.32 KCAL/MOL
REMARK 924 INTRA-LIGAND FREE ENERGY PREDICTED BY IDOCK:   -3.23 KCAL/MOL
REMARK 927      BINDING AFFINITY PREDICTED BY RF-SCORE:    0.00 PKD
ROOT
HETATM    1  C   UNL     1      -8.526   4.451  69.997  1.00  0.00    -0.087 C  
HETATM    2  C   UNL     1     -10.004   4.649  70.290  1.00  0.00    -0.309 C  
ENDROOT
BRANCH   2   3
HETATM    3  C   UNL     1     -10.634   5.685  69.402  1.00  0.00    -0.374 C  
HETATM    4  C   UNL     1     -11.498   6.633  69.804  1.00  0.00    -0.388 C  
BRANCH   4   5
HETATM    5  C   UNL     1     -12.061   6.769  71.191  1.00  0.00    -0.422 C  
BRANCH   5   6
HETATM    6  C   UNL     1     -11.286   7.760  72.016  1.00  0.00    -0.332 C  
HETATM    7  C   UNL     1     -11.581   9.062  72.178  1.00  0.00    -0.348 C  
BRANCH   7   8
HETATM    8  C   UNL     1     -12.737   9.760  71.524  1.00  0.00    -0.504 C  
BRANCH   8   9
HETATM    9  C   UNL     1     -12.350  11.085  70.935  1.00  0.00    -0.503 C  
HETATM   10  C   UNL     1     -11.662  11.287  69.799  1.00  0.00    -0.422 C  
BRANCH  10  11
HETATM   11  C   UNL     1     -11.192  10.240  68.826  1.00  0.00    -0.260 C  
BRANCH  11  12
HETATM   12  C   UNL     1      -9.764   9.823  69.048  1.00  0.00    -0.177 C  
HETATM   13  C   UNL     1      -9.048   8.977  68.290  1.00  0.00    -0.133 C  
BRANCH  13  14
HETATM   14  C   UNL     1      -9.566   8.222  67.112  1.00  0.00    -0.234 C  
BRANCH  14  15
HETATM   15  C   UNL     1      -8.673   8.323  65.907  1.00  0.00    -0.187 C  
HETATM   16  C   UNL     1      -8.786   9.295  64.985  1.00  0.00    -0.238 C  
BRANCH  16  17
HETATM   17  C   UNL     1      -9.847  10.354  65.006  1.00  0.00    -0.384 C  
BRANCH  17  18
HETATM   18  C   UNL     1      -9.416  11.612  65.708  1.00  0.00    -0.244 C  
HETATM   19  C   UNL     1     -10.292  12.502  66.208  1.00  0.00    -0.269 C  
BRANCH  19  20
HETATM   20  C   UNL     1     -11.779  12.290  66.110  1.00  0.00    -0.440 C  
BRANCH  20  21
HETATM   21  C   UNL     1     -12.537  13.383  65.366  1.00  0.00    -0.528 C  
HETATM   22  C   UNL     1     -12.492  13.088  63.882  1.00  0.00    -0.296 C  
HETATM   23  O   UNL     1     -12.630  14.199  63.118  1.00  0.00    -0.686 OA 
HETATM   24  O   UNL     1     -12.375  11.980  63.390  1.00  0.00    -0.557 OA 
ENDBRANCH  20  21
ENDBRANCH  19  20
ENDBRANCH  17  18
ENDBRANCH  16  17
ENDBRANCH  14  15
ENDBRANCH  13  14
ENDBRANCH  11  12
ENDBRANCH  10  11
ENDBRANCH   8   9
ENDBRANCH   7   8
ENDBRANCH   5   6
ENDBRANCH   4   5
ENDBRANCH   2   3
TORSDOF 13
ENDMDL
MODEL       43
REMARK 921   NORMALIZED FREE ENERGY PREDICTED BY IDOCK:   -4.98 KCAL/MOL
REMARK 922        TOTAL FREE ENERGY PREDICTED BY IDOCK:  -11.55 KCAL/MOL
REMARK 923 INTER-LIGAND FREE ENERGY PREDICTED BY IDOCK:   -8.16 KCAL/MOL
REMARK 924 INTRA-LIGAND FREE ENERGY PREDICTED BY IDOCK:   -3.39 KCAL/MOL
REMARK 927      BINDING AFFINITY PREDICTED BY RF-SCORE:    0.00 PKD
ROOT
HETATM    1  C   UNL     1     -12.315  12.965  64.111  1.00  0.00    -0.450 C  
HETATM    2  C   UNL     1     -12.321  14.471  64.312  1.00  0.00    -0.396 C  
ENDROOT
BRANCH   2   3
HETATM    3  C   UNL     1     -10.986  15.000  64.752  1.00  0.00    -0.389 C  
HETATM    4  C   UNL     1     -10.599  15.172  66.028  1.00  0.00    -0.329 C  
BRANCH   4   5
HETATM    5  C   UNL     1     -11.464  14.955  67.238  1.00  0.00    -0.350 C  
BRANCH   5   6
HETATM    6  C   UNL     1     -11.478  16.159  68.140  1.00  0.00    -0.220 C  
HETATM    7  C   UNL     1     -10.704  16.350  69.223  1.00  0.00    -0.325 C  
BRANCH   7   8
HETATM    8  C   UNL     1      -9.701  15.359  69.737  1.00  0.00    -0.219 C  
BRANCH   8   9
HETATM    9  C   UNL     1      -8.439  15.344  68.925  1.00  0.00    -0.205 C  
HETATM   10  C   UNL     1      -7.885  14.276  68.326  1.00  0.00    -0.141 C  
BRANCH  10  11
HETATM   11  C   UNL     1      -8.439  12.879  68.270  1.00  0.00    -0.161 C  
BRANCH  11  12
HETATM   12  C   UNL     1      -8.363  12.265  66.899  1.00  0.00    -0.137 C  
HETATM   13  C   UNL     1      -9.366  11.677  66.227  1.00  0.00    -0.228 C  
BRANCH  13  14
HETATM   14  C   UNL     1     -10.745  11.452  66.752  1.00  0.00    -0.316 C  
BRANCH  14  15
HETATM   15  C   UNL     1     -10.815  10.353  67.774  1.00  0.00    -0.351 C  
HETATM   16  C   UNL     1     -11.342  10.518  69.000  1.00  0.00    -0.319 C  
BRANCH  16  17
HETATM   17  C   UNL     1     -11.865  11.823  69.521  1.00  0.00    -0.402 C  
BRANCH  17  18
HETATM   18  C   UNL     1     -12.477  11.713  70.890  1.00  0.00    -0.440 C  
HETATM   19  C   UNL     1     -12.998  12.769  71.540  1.00  0.00    -0.388 C  
BRANCH  19  20
HETATM   20  C   UNL     1     -13.017  14.145  70.929  1.00  0.00    -0.374 C  
BRANCH  20  21
HETATM   21  C   UNL     1     -13.947  15.140  71.611  1.00  0.00    -0.618 C  
HETATM   22  C   UNL     1     -13.148  15.959  72.602  1.00  0.00    -0.472 C  
HETATM   23  O   UNL     1     -13.905  16.455  73.611  1.00  0.00    -0.438 OA 
HETATM   24  O   UNL     1     -11.955  16.192  72.519  1.00  0.00    -0.494 OA 
ENDBRANCH  20  21
ENDBRANCH  19  20
ENDBRANCH  17  18
ENDBRANCH  16  17
ENDBRANCH  14  15
ENDBRANCH  13  14
ENDBRANCH  11  12
ENDBRANCH  10  11
ENDBRANCH   8   9
ENDBRANCH   7   8
ENDBRANCH   5   6
ENDBRANCH   4   5
ENDBRANCH   2   3
TORSDOF 13
ENDMDL
MODEL       44
REMARK 921   NORMALIZED FREE ENERGY PREDICTED BY IDOCK:   -4.98 KCAL/MOL
REMARK 922        TOTAL FREE ENERGY PREDICTED BY IDOCK:  -11.54 KCAL/MOL
REMARK 923 INTER-LIGAND FREE ENERGY PREDICTED BY IDOCK:   -8.65 KCAL/MOL
REMARK 924 INTRA-LIGAND FREE ENERGY PREDICTED BY IDOCK:   -2.89 KCAL/MOL
REMARK 927      BINDING AFFINITY PREDICTED BY RF-SCORE:    0.00 PKD
ROOT
HETATM    1  C   UNL     1      -6.826  11.296  66.738  1.00  0.00    -0.140 C  
HETATM    2  C   UNL     1      -8.252  11.596  67.168  1.00  0.00    -0.165 C  
ENDROOT
BRANCH   2   3
HETATM    3  C   UNL     1      -8.605  10.957  68.481  1.00  0.00    -0.152 C  
HETATM    4  C   UNL     1      -9.574  10.044  68.667  1.00  0.00    -0.158 C  
BRANCH   4   5
HETATM    5  C   UNL     1     -10.539   9.570  67.616  1.00  0.00    -0.329 C  
BRANCH   5   6
HETATM    6  C   UNL     1      -9.982   8.422  66.820  1.00  0.00    -0.354 C  
HETATM    7  C   UNL     1     -10.258   7.119  67.005  1.00  0.00    -0.339 C  
BRANCH   7   8
HETATM    8  C   UNL     1     -11.160   6.584  68.078  1.00  0.00    -0.332 C  
BRANCH   8   9
HETATM    9  C   UNL     1     -10.438   5.695  69.047  1.00  0.00    -0.321 C  
HETATM   10  C   UNL     1     -10.536   5.723  70.387  1.00  0.00    -0.365 C  
BRANCH  10  11
HETATM   11  C   UNL     1     -11.444   6.596  71.211  1.00  0.00    -0.360 C  
BRANCH  11  12
HETATM   12  C   UNL     1     -10.739   7.778  71.819  1.00  0.00    -0.265 C  
HETATM   13  C   UNL     1     -11.157   9.053  71.810  1.00  0.00    -0.444 C  
BRANCH  13  14
HETATM   14  C   UNL     1     -12.380   9.558  71.119  1.00  0.00    -0.410 C  
BRANCH  14  15
HETATM   15  C   UNL     1     -12.927  10.816  71.733  1.00  0.00    -0.568 C  
HETATM   16  C   UNL     1     -12.751  12.035  71.195  1.00  0.00    -0.365 C  
BRANCH  16  17
HETATM   17  C   UNL     1     -11.943  12.300  69.960  1.00  0.00    -0.379 C  
BRANCH  17  18
HETATM   18  C   UNL     1     -11.903  13.754  69.578  1.00  0.00    -0.394 C  
HETATM   19  C   UNL     1     -11.731  14.168  68.309  1.00  0.00    -0.383 C  
BRANCH  19  20
HETATM   20  C   UNL     1     -11.579  13.193  67.173  1.00  0.00    -0.410 C  
BRANCH  20  21
HETATM   21  C   UNL     1     -12.522  13.421  65.997  1.00  0.00    -0.431 C  
HETATM   22  C   UNL     1     -11.710  13.848  64.793  1.00  0.00    -0.386 C  
HETATM   23  O   UNL     1     -12.427  14.579  63.905  1.00  0.00    -0.814 OA 
HETATM   24  O   UNL     1     -10.544  13.560  64.596  1.00  0.00    -0.387 OA 
ENDBRANCH  20  21
ENDBRANCH  19  20
ENDBRANCH  17  18
ENDBRANCH  16  17
ENDBRANCH  14  15
ENDBRANCH  13  14
ENDBRANCH  11  12
ENDBRANCH  10  11
ENDBRANCH   8   9
ENDBRANCH   7   8
ENDBRANCH   5   6
ENDBRANCH   4   5
ENDBRANCH   2   3
TORSDOF 13
ENDMDL
MODEL       45
REMARK 921   NORMALIZED FREE ENERGY PREDICTED BY IDOCK:   -4.97 KCAL/MOL
REMARK 922        TOTAL FREE ENERGY PREDICTED BY IDOCK:  -11.53 KCAL/MOL
REMARK 923 INTER-LIGAND FREE ENERGY PREDICTED BY IDOCK:   -9.00 KCAL/MOL
REMARK 924 INTRA-LIGAND FREE ENERGY PREDICTED BY IDOCK:   -2.53 KCAL/MOL
REMARK 927      BINDING AFFINITY PREDICTED BY RF-SCORE:    0.00 PKD
ROOT
HETATM    1  C   UNL     1     -11.020   6.411  66.956  1.00  0.00    -0.463 C  
HETATM    2  C   UNL     1     -10.502   6.808  68.328  1.00  0.00    -0.243 C  
ENDROOT
BRANCH   2   3
HETATM    3  C   UNL     1     -11.319   6.221  69.444  1.00  0.00    -0.448 C  
HETATM    4  C   UNL     1     -11.562   6.814  70.626  1.00  0.00    -0.422 C  
BRANCH   4   5
HETATM    5  C   UNL     1     -10.985   8.126  71.078  1.00  0.00    -0.273 C  
BRANCH   5   6
HETATM    6  C   UNL     1     -12.045   9.052  71.609  1.00  0.00    -0.422 C  
HETATM    7  C   UNL     1     -12.260  10.321  71.218  1.00  0.00    -0.496 C  
BRANCH   7   8
HETATM    8  C   UNL     1     -11.441  11.045  70.191  1.00  0.00    -0.383 C  
BRANCH   8   9
HETATM    9  C   UNL     1     -12.116  11.099  68.851  1.00  0.00    -0.276 C  
HETATM   10  C   UNL     1     -11.517  11.044  67.650  1.00  0.00    -0.303 C  
BRANCH  10  11
HETATM   11  C   UNL     1     -10.051  10.841  67.376  1.00  0.00    -0.227 C  
BRANCH  11  12
HETATM   12  C   UNL     1      -9.785   9.866  66.262  1.00  0.00    -0.281 C  
HETATM   13  C   UNL     1      -9.759  10.136  64.948  1.00  0.00    -0.392 C  
BRANCH  13  14
HETATM   14  C   UNL     1     -10.069  11.460  64.331  1.00  0.00    -0.341 C  
BRANCH  14  15
HETATM   15  C   UNL     1     -11.384  11.479  63.603  1.00  0.00    -0.412 C  
HETATM   16  C   UNL     1     -12.166  12.569  63.522  1.00  0.00    -0.652 C  
BRANCH  16  17
HETATM   17  C   UNL     1     -11.859  13.875  64.192  1.00  0.00    -0.417 C  
BRANCH  17  18
HETATM   18  C   UNL     1     -12.422  13.975  65.583  1.00  0.00    -0.531 C  
HETATM   19  C   UNL     1     -11.717  14.459  66.621  1.00  0.00    -0.410 C  
BRANCH  19  20
HETATM   20  C   UNL     1     -10.304  14.953  66.455  1.00  0.00    -0.291 C  
BRANCH  20  21
HETATM   21  C   UNL     1     -10.175  16.331  65.818  1.00  0.00    -0.390 C  
HETATM   22  C   UNL     1      -9.960  17.358  66.908  1.00  0.00    -0.300 C  
HETATM   23  O   UNL     1     -10.367  18.601  66.552  1.00  0.00    -0.378 OA 
HETATM   24  O   UNL     1      -9.452  17.135  67.992  1.00  0.00    -0.251 OA 
ENDBRANCH  20  21
ENDBRANCH  19  20
ENDBRANCH  17  18
ENDBRANCH  16  17
ENDBRANCH  14  15
ENDBRANCH  13  14
ENDBRANCH  11  12
ENDBRANCH  10  11
ENDBRANCH   8   9
ENDBRANCH   7   8
ENDBRANCH   5   6
ENDBRANCH   4   5
ENDBRANCH   2   3
TORSDOF 13
ENDMDL
MODEL       46
REMARK 921   NORMALIZED FREE ENERGY PREDICTED BY IDOCK:   -4.96 KCAL/MOL
REMARK 922        TOTAL FREE ENERGY PREDICTED BY IDOCK:  -11.50 KCAL/MOL
REMARK 923 INTER-LIGAND FREE ENERGY PREDICTED BY IDOCK:   -8.74 KCAL/MOL
REMARK 924 INTRA-LIGAND FREE ENERGY PREDICTED BY IDOCK:   -2.76 KCAL/MOL
REMARK 927      BINDING AFFINITY PREDICTED BY RF-SCORE:    0.00 PKD
ROOT
HETATM    1  C   UNL     1      -9.356  11.084  63.743  1.00  0.00    -0.247 C  
HETATM    2  C   UNL     1     -10.712  11.347  64.376  1.00  0.00    -0.405 C  
ENDROOT
BRANCH   2   3
HETATM    3  C   UNL     1     -11.723  11.850  63.385  1.00  0.00    -0.500 C  
HETATM    4  C   UNL     1     -12.429  12.988  63.503  1.00  0.00    -0.388 C  
BRANCH   4   5
HETATM    5  C   UNL     1     -12.402  13.911  64.688  1.00  0.00    -0.421 C  
BRANCH   5   6
HETATM    6  C   UNL     1     -11.617  15.163  64.407  1.00  0.00    -0.275 C  
HETATM    7  C   UNL     1     -10.901  15.869  65.300  1.00  0.00    -0.401 C  
BRANCH   7   8
HETATM    8  C   UNL     1     -10.792  15.535  66.758  1.00  0.00    -0.291 C  
BRANCH   8   9
HETATM    9  C   UNL     1      -9.758  14.483  67.032  1.00  0.00    -0.247 C  
HETATM   10  C   UNL     1      -9.968  13.278  67.588  1.00  0.00    -0.229 C  
BRANCH  10  11
HETATM   11  C   UNL     1     -11.291  12.684  67.990  1.00  0.00    -0.337 C  
BRANCH  11  12
HETATM   12  C   UNL     1     -11.333  11.186  67.858  1.00  0.00    -0.378 C  
HETATM   13  C   UNL     1     -11.399  10.294  68.860  1.00  0.00    -0.230 C  
BRANCH  13  14
HETATM   14  C   UNL     1     -11.368  10.624  70.315  1.00  0.00    -0.401 C  
BRANCH  14  15
HETATM   15  C   UNL     1     -12.613  10.201  71.043  1.00  0.00    -0.478 C  
HETATM   16  C   UNL     1     -13.342  11.036  71.803  1.00  0.00    -0.400 C  
BRANCH  16  17
HETATM   17  C   UNL     1     -12.976  12.465  72.070  1.00  0.00    -0.376 C  
BRANCH  17  18
HETATM   18  C   UNL     1     -13.503  13.416  71.032  1.00  0.00     0.096 C  
HETATM   19  C   UNL     1     -12.885  14.570  70.722  1.00  0.00    -0.423 C  
BRANCH  19  20
HETATM   20  C   UNL     1     -11.602  14.985  71.392  1.00  0.00    -0.397 C  
BRANCH  20  21
HETATM   21  C   UNL     1     -11.692  16.258  72.223  1.00  0.00    -0.530 C  
HETATM   22  C   UNL     1     -12.230  15.912  73.595  1.00  0.00    -0.528 C  
HETATM   23  O   UNL     1     -12.850  16.955  74.199  1.00  0.00    -0.443 OA 
HETATM   24  O   UNL     1     -12.111  14.830  74.142  1.00  0.00    -0.510 OA 
ENDBRANCH  20  21
ENDBRANCH  19  20
ENDBRANCH  17  18
ENDBRANCH  16  17
ENDBRANCH  14  15
ENDBRANCH  13  14
ENDBRANCH  11  12
ENDBRANCH  10  11
ENDBRANCH   8   9
ENDBRANCH   7   8
ENDBRANCH   5   6
ENDBRANCH   4   5
ENDBRANCH   2   3
TORSDOF 13
ENDMDL
MODEL       47
REMARK 921   NORMALIZED FREE ENERGY PREDICTED BY IDOCK:   -4.95 KCAL/MOL
REMARK 922        TOTAL FREE ENERGY PREDICTED BY IDOCK:  -11.49 KCAL/MOL
REMARK 923 INTER-LIGAND FREE ENERGY PREDICTED BY IDOCK:   -9.24 KCAL/MOL
REMARK 924 INTRA-LIGAND FREE ENERGY PREDICTED BY IDOCK:   -2.25 KCAL/MOL
REMARK 927      BINDING AFFINITY PREDICTED BY RF-SCORE:    0.00 PKD
ROOT
HETATM    1  C   UNL     1     -11.044  16.209  70.046  1.00  0.00    -0.363 C  
HETATM    2  C   UNL     1     -11.291  15.454  71.341  1.00  0.00    -0.449 C  
ENDROOT
BRANCH   2   3
HETATM    3  C   UNL     1     -12.444  16.016  72.124  1.00  0.00    -0.524 C  
HETATM    4  C   UNL     1     -13.647  15.433  72.264  1.00  0.00    -0.606 C  
BRANCH   4   5
HETATM    5  C   UNL     1     -14.086  14.165  71.587  1.00  0.00    -0.431 C  
BRANCH   5   6
HETATM    6  C   UNL     1     -13.651  12.943  72.349  1.00  0.00    -0.577 C  
HETATM    7  C   UNL     1     -13.125  11.824  71.822  1.00  0.00    -0.480 C  
BRANCH   7   8
HETATM    8  C   UNL     1     -12.909  11.593  70.355  1.00  0.00     0.024 C  
BRANCH   8   9
HETATM    9  C   UNL     1     -11.497  11.871  69.931  1.00  0.00    -0.264 C  
HETATM   10  C   UNL     1     -11.107  12.579  68.857  1.00  0.00    -0.309 C  
BRANCH  10  11
HETATM   11  C   UNL     1     -11.992  13.314  67.886  1.00  0.00    -0.349 C  
BRANCH  11  12
HETATM   12  C   UNL     1     -11.963  12.731  66.500  1.00  0.00    -0.428 C  
HETATM   13  C   UNL     1     -11.714  13.390  65.358  1.00  0.00    -0.354 C  
BRANCH  13  14
HETATM   14  C   UNL     1     -11.490  14.861  65.239  1.00  0.00    -0.336 C  
BRANCH  14  15
HETATM   15  C   UNL     1     -10.055  15.257  65.443  1.00  0.00    -0.397 C  
HETATM   16  C   UNL     1      -9.683  16.366  66.107  1.00  0.00    -0.355 C  
BRANCH  16  17
HETATM   17  C   UNL     1     -10.644  17.371  66.668  1.00  0.00    -0.182 C  
BRANCH  17  18
HETATM   18  C   UNL     1     -10.588  18.701  65.968  1.00  0.00    -0.410 C  
HETATM   19  C   UNL     1     -10.273  19.844  66.603  1.00  0.00    -0.609 C  
BRANCH  19  20
HETATM   20  C   UNL     1      -9.939  19.868  68.070  1.00  0.00    -0.556 C  
BRANCH  20  21
HETATM   21  C   UNL     1      -8.571  19.300  68.428  1.00  0.00    -0.389 C  
HETATM   22  C   UNL     1      -7.502  20.121  67.739  1.00  0.00    -0.292 C  
HETATM   23  O   UNL     1      -6.356  19.429  67.530  1.00  0.00    -0.197 OA 
HETATM   24  O   UNL     1      -7.615  21.291  67.419  1.00  0.00    -0.410 OA 
ENDBRANCH  20  21
ENDBRANCH  19  20
ENDBRANCH  17  18
ENDBRANCH  16  17
ENDBRANCH  14  15
ENDBRANCH  13  14
ENDBRANCH  11  12
ENDBRANCH  10  11
ENDBRANCH   8   9
ENDBRANCH   7   8
ENDBRANCH   5   6
ENDBRANCH   4   5
ENDBRANCH   2   3
TORSDOF 13
ENDMDL
MODEL       48
REMARK 921   NORMALIZED FREE ENERGY PREDICTED BY IDOCK:   -4.93 KCAL/MOL
REMARK 922        TOTAL FREE ENERGY PREDICTED BY IDOCK:  -11.45 KCAL/MOL
REMARK 923 INTER-LIGAND FREE ENERGY PREDICTED BY IDOCK:   -8.90 KCAL/MOL
REMARK 924 INTRA-LIGAND FREE ENERGY PREDICTED BY IDOCK:   -2.56 KCAL/MOL
REMARK 927      BINDING AFFINITY PREDICTED BY RF-SCORE:    0.00 PKD
ROOT
HETATM    1  C   UNL     1     -10.282   5.311  69.195  1.00  0.00    -0.281 C  
HETATM    2  C   UNL     1     -11.085   6.446  69.808  1.00  0.00    -0.459 C  
ENDROOT
BRANCH   2   3
HETATM    3  C   UNL     1     -11.343   6.244  71.274  1.00  0.00    -0.356 C  
HETATM    4  C   UNL     1     -12.417   6.697  71.945  1.00  0.00    -0.334 C  
BRANCH   4   5
HETATM    5  C   UNL     1     -13.501   7.564  71.371  1.00  0.00    -0.386 C  
BRANCH   5   6
HETATM    6  C   UNL     1     -13.596   8.888  72.079  1.00  0.00    -0.489 C  
HETATM    7  C   UNL     1     -12.798   9.953  71.883  1.00  0.00    -0.524 C  
BRANCH   7   8
HETATM    8  C   UNL     1     -11.641   9.985  70.928  1.00  0.00    -0.463 C  
BRANCH   8   9
HETATM    9  C   UNL     1     -12.055  10.357  69.535  1.00  0.00    -0.125 C  
HETATM   10  C   UNL     1     -11.939  11.566  68.960  1.00  0.00    -0.377 C  
BRANCH  10  11
HETATM   11  C   UNL     1     -11.304  12.794  69.554  1.00  0.00    -0.223 C  
BRANCH  11  12
HETATM   12  C   UNL     1     -12.253  13.605  70.393  1.00  0.00    -0.434 C  
HETATM   13  C   UNL     1     -12.544  14.907  70.244  1.00  0.00    -0.361 C  
BRANCH  13  14
HETATM   14  C   UNL     1     -11.916  15.825  69.249  1.00  0.00    -0.305 C  
BRANCH  14  15
HETATM   15  C   UNL     1     -10.632  16.436  69.738  1.00  0.00    -0.288 C  
HETATM   16  C   UNL     1      -9.566  16.643  68.946  1.00  0.00    -0.252 C  
BRANCH  16  17
HETATM   17  C   UNL     1      -9.500  16.238  67.503  1.00  0.00    -0.227 C  
BRANCH  17  18
HETATM   18  C   UNL     1      -8.831  14.908  67.290  1.00  0.00    -0.216 C  
HETATM   19  C   UNL     1      -9.420  13.896  66.627  1.00  0.00    -0.296 C  
BRANCH  19  20
HETATM   20  C   UNL     1     -10.797  14.033  66.036  1.00  0.00    -0.295 C  
BRANCH  20  21
HETATM   21  C   UNL     1     -11.342  12.773  65.375  1.00  0.00    -0.339 C  
HETATM   22  C   UNL     1     -12.430  13.162  64.398  1.00  0.00    -0.310 C  
HETATM   23  O   UNL     1     -13.323  12.168  64.177  1.00  0.00    -0.750 OA 
HETATM   24  O   UNL     1     -12.510  14.236  63.829  1.00  0.00    -0.810 OA 
ENDBRANCH  20  21
ENDBRANCH  19  20
ENDBRANCH  17  18
ENDBRANCH  16  17
ENDBRANCH  14  15
ENDBRANCH  13  14
ENDBRANCH  11  12
ENDBRANCH  10  11
ENDBRANCH   8   9
ENDBRANCH   7   8
ENDBRANCH   5   6
ENDBRANCH   4   5
ENDBRANCH   2   3
TORSDOF 13
ENDMDL
MODEL       49
REMARK 921   NORMALIZED FREE ENERGY PREDICTED BY IDOCK:   -4.92 KCAL/MOL
REMARK 922        TOTAL FREE ENERGY PREDICTED BY IDOCK:  -11.44 KCAL/MOL
REMARK 923 INTER-LIGAND FREE ENERGY PREDICTED BY IDOCK:   -8.68 KCAL/MOL
REMARK 924 INTRA-LIGAND FREE ENERGY PREDICTED BY IDOCK:   -2.76 KCAL/MOL
REMARK 927      BINDING AFFINITY PREDICTED BY RF-SCORE:    0.00 PKD
ROOT
HETATM    1  C   UNL     1     -12.759  15.187  70.651  1.00  0.00    -0.451 C  
HETATM    2  C   UNL     1     -12.183  13.785  70.754  1.00  0.00    -0.437 C  
ENDROOT
BRANCH   2   3
HETATM    3  C   UNL     1     -12.059  13.113  69.416  1.00  0.00    -0.285 C  
HETATM    4  C   UNL     1     -11.907  11.792  69.220  1.00  0.00    -0.389 C  
BRANCH   4   5
HETATM    5  C   UNL     1     -11.741  10.763  70.303  1.00  0.00    -0.442 C  
BRANCH   5   6
HETATM    6  C   UNL     1     -13.046  10.446  70.982  1.00  0.00    -0.450 C  
HETATM    7  C   UNL     1     -13.269   9.438  71.842  1.00  0.00    -0.507 C  
BRANCH   7   8
HETATM    8  C   UNL     1     -12.241   8.423  72.250  1.00  0.00    -0.449 C  
BRANCH   8   9
HETATM    9  C   UNL     1     -12.472   7.083  71.616  1.00  0.00    -0.413 C  
HETATM   10  C   UNL     1     -11.896   6.618  70.494  1.00  0.00    -0.430 C  
BRANCH  10  11
HETATM   11  C   UNL     1     -10.840   7.300  69.668  1.00  0.00    -0.238 C  
BRANCH  11  12
HETATM   12  C   UNL     1     -10.860   6.887  68.221  1.00  0.00    -0.244 C  
HETATM   13  C   UNL     1     -10.604   7.669  67.161  1.00  0.00    -0.410 C  
BRANCH  13  14
HETATM   14  C   UNL     1     -10.319   9.133  67.214  1.00  0.00    -0.338 C  
BRANCH  14  15
HETATM   15  C   UNL     1      -8.979   9.452  67.817  1.00  0.00    -0.127 C  
HETATM   16  C   UNL     1      -8.379  10.648  67.688  1.00  0.00    -0.114 C  
BRANCH  16  17
HETATM   17  C   UNL     1      -8.934  11.784  66.882  1.00  0.00    -0.195 C  
BRANCH  17  18
HETATM   18  C   UNL     1      -8.666  13.132  67.494  1.00  0.00    -0.201 C  
HETATM   19  C   UNL     1      -9.153  14.274  66.978  1.00  0.00    -0.246 C  
BRANCH  19  20
HETATM   20  C   UNL     1     -10.021  14.280  65.748  1.00  0.00    -0.346 C  
BRANCH  20  21
HETATM   21  C   UNL     1     -11.444  14.781  65.966  1.00  0.00    -0.316 C  
HETATM   22  C   UNL     1     -12.409  13.644  65.709  1.00  0.00    -0.482 C  
HETATM   23  O   UNL     1     -13.642  14.070  65.341  1.00  0.00    -0.593 OA 
HETATM   24  O   UNL     1     -12.150  12.461  65.837  1.00  0.00    -0.580 OA 
ENDBRANCH  20  21
ENDBRANCH  19  20
ENDBRANCH  17  18
ENDBRANCH  16  17
ENDBRANCH  14  15
ENDBRANCH  13  14
ENDBRANCH  11  12
ENDBRANCH  10  11
ENDBRANCH   8   9
ENDBRANCH   7   8
ENDBRANCH   5   6
ENDBRANCH   4   5
ENDBRANCH   2   3
TORSDOF 13
ENDMDL
MODEL       50
REMARK 921   NORMALIZED FREE ENERGY PREDICTED BY IDOCK:   -4.91 KCAL/MOL
REMARK 922        TOTAL FREE ENERGY PREDICTED BY IDOCK:  -11.42 KCAL/MOL
REMARK 923 INTER-LIGAND FREE ENERGY PREDICTED BY IDOCK:   -8.14 KCAL/MOL
REMARK 924 INTRA-LIGAND FREE ENERGY PREDICTED BY IDOCK:   -3.28 KCAL/MOL
REMARK 927      BINDING AFFINITY PREDICTED BY RF-SCORE:    0.00 PKD
ROOT
HETATM    1  C   UNL     1      -6.675  18.951  66.402  1.00  0.00    -0.228 C  
HETATM    2  C   UNL     1      -7.938  19.678  65.972  1.00  0.00    -0.337 C  
ENDROOT
BRANCH   2   3
HETATM    3  C   UNL     1      -8.696  20.253  67.134  1.00  0.00    -0.429 C  
HETATM    4  C   UNL     1      -9.790  19.710  67.696  1.00  0.00    -0.494 C  
BRANCH   4   5
HETATM    5  C   UNL     1     -10.503  18.482  67.205  1.00  0.00    -0.455 C  
BRANCH   5   6
HETATM    6  C   UNL     1     -10.778  17.509  68.319  1.00  0.00    -0.309 C  
HETATM    7  C   UNL     1      -9.909  16.618  68.829  1.00  0.00    -0.252 C  
BRANCH   7   8
HETATM    8  C   UNL     1      -8.505  16.423  68.338  1.00  0.00    -0.204 C  
BRANCH   8   9
HETATM    9  C   UNL     1      -8.441  15.589  67.093  1.00  0.00    -0.239 C  
HETATM   10  C   UNL     1      -8.295  14.255  67.028  1.00  0.00    -0.156 C  
BRANCH  10  11
HETATM   11  C   UNL     1      -8.238  13.292  68.184  1.00  0.00    -0.160 C  
BRANCH  11  12
HETATM   12  C   UNL     1      -7.363  12.098  67.918  1.00  0.00    -0.108 C  
HETATM   13  C   UNL     1      -7.766  10.826  67.767  1.00  0.00    -0.104 C  
BRANCH  13  14
HETATM   14  C   UNL     1      -9.170  10.341  67.910  1.00  0.00    -0.143 C  
BRANCH  14  15
HETATM   15  C   UNL     1      -9.560  10.075  69.337  1.00  0.00    -0.237 C  
HETATM   16  C   UNL     1     -10.747  10.435  69.856  1.00  0.00    -0.331 C  
BRANCH  16  17
HETATM   17  C   UNL     1     -11.798  11.195  69.104  1.00  0.00    -0.419 C  
BRANCH  17  18
HETATM   18  C   UNL     1     -11.768  12.674  69.375  1.00  0.00    -0.387 C  
HETATM   19  C   UNL     1     -11.719  13.593  68.393  1.00  0.00    -0.393 C  
BRANCH  19  20
HETATM   20  C   UNL     1     -11.705  13.197  66.940  1.00  0.00    -0.441 C  
BRANCH  20  21
HETATM   21  C   UNL     1     -12.013  14.325  65.963  1.00  0.00    -0.412 C  
HETATM   22  C   UNL     1     -12.627  13.737  64.711  1.00  0.00    -0.290 C  
HETATM   23  O   UNL     1     -12.438  14.512  63.616  1.00  0.00    -0.782 OA 
HETATM   24  O   UNL     1     -13.255  12.695  64.661  1.00  0.00    -0.828 OA 
ENDBRANCH  20  21
ENDBRANCH  19  20
ENDBRANCH  17  18
ENDBRANCH  16  17
ENDBRANCH  14  15
ENDBRANCH  13  14
ENDBRANCH  11  12
ENDBRANCH  10  11
ENDBRANCH   8   9
ENDBRANCH   7   8
ENDBRANCH   5   6
ENDBRANCH   4   5
ENDBRANCH   2   3
TORSDOF 13
ENDMDL
MODEL       51
REMARK 921   NORMALIZED FREE ENERGY PREDICTED BY IDOCK:   -4.91 KCAL/MOL
REMARK 922        TOTAL FREE ENERGY PREDICTED BY IDOCK:  -11.41 KCAL/MOL
REMARK 923 INTER-LIGAND FREE ENERGY PREDICTED BY IDOCK:   -9.73 KCAL/MOL
REMARK 924 INTRA-LIGAND FREE ENERGY PREDICTED BY IDOCK:   -1.68 KCAL/MOL
REMARK 927      BINDING AFFINITY PREDICTED BY RF-SCORE:    0.00 PKD
ROOT
HETATM    1  C   UNL     1     -12.436  15.533  74.107  1.00  0.00    -0.805 C  
HETATM    2  C   UNL     1     -11.768  15.651  72.747  1.00  0.00    -0.537 C  
ENDROOT
BRANCH   2   3
HETATM    3  C   UNL     1     -12.756  15.624  71.615  1.00  0.00    -0.522 C  
HETATM    4  C   UNL     1     -13.045  14.550  70.861  1.00  0.00    -0.405 C  
BRANCH   4   5
HETATM    5  C   UNL     1     -12.368  13.212  70.952  1.00  0.00    -0.393 C  
BRANCH   5   6
HETATM    6  C   UNL     1     -12.999  12.334  71.999  1.00  0.00    -0.375 C  
HETATM    7  C   UNL     1     -13.140  10.999  71.936  1.00  0.00    -0.525 C  
BRANCH   7   8
HETATM    8  C   UNL     1     -12.713  10.152  70.773  1.00  0.00    -0.397 C  
BRANCH   8   9
HETATM    9  C   UNL     1     -11.224   9.985  70.699  1.00  0.00    -0.425 C  
HETATM   10  C   UNL     1     -10.468  10.015  69.588  1.00  0.00    -0.275 C  
BRANCH  10  11
HETATM   11  C   UNL     1     -10.932  10.297  68.185  1.00  0.00    -0.328 C  
BRANCH  11  12
HETATM   12  C   UNL     1     -10.579   9.204  67.213  1.00  0.00    -0.303 C  
HETATM   13  C   UNL     1      -9.991   9.354  66.016  1.00  0.00    -0.352 C  
BRANCH  13  14
HETATM   14  C   UNL     1      -9.638  10.659  65.383  1.00  0.00    -0.282 C  
BRANCH  14  15
HETATM   15  C   UNL     1     -10.539  11.020  64.235  1.00  0.00    -0.402 C  
HETATM   16  C   UNL     1     -10.932  12.279  63.974  1.00  0.00    -0.438 C  
BRANCH  16  17
HETATM   17  C   UNL     1     -10.577  13.463  64.822  1.00  0.00    -0.420 C  
BRANCH  17  18
HETATM   18  C   UNL     1     -11.662  13.846  65.790  1.00  0.00    -0.369 C  
HETATM   19  C   UNL     1     -11.611  14.965  66.536  1.00  0.00    -0.254 C  
BRANCH  19  20
HETATM   20  C   UNL     1     -10.456  15.926  66.440  1.00  0.00    -0.311 C  
BRANCH  20  21
HETATM   21  C   UNL     1     -10.659  17.251  67.166  1.00  0.00    -0.256 C  
HETATM   22  C   UNL     1     -10.559  18.380  66.164  1.00  0.00    -0.315 C  
HETATM   23  O   UNL     1     -10.183  19.554  66.726  1.00  0.00    -0.367 OA 
HETATM   24  O   UNL     1     -10.810  18.288  64.975  1.00  0.00    -0.679 OA 
ENDBRANCH  20  21
ENDBRANCH  19  20
ENDBRANCH  17  18
ENDBRANCH  16  17
ENDBRANCH  14  15
ENDBRANCH  13  14
ENDBRANCH  11  12
ENDBRANCH  10  11
ENDBRANCH   8   9
ENDBRANCH   7   8
ENDBRANCH   5   6
ENDBRANCH   4   5
ENDBRANCH   2   3
TORSDOF 13
ENDMDL
MODEL       52
REMARK 921   NORMALIZED FREE ENERGY PREDICTED BY IDOCK:   -4.90 KCAL/MOL
REMARK 922        TOTAL FREE ENERGY PREDICTED BY IDOCK:  -11.40 KCAL/MOL
REMARK 923 INTER-LIGAND FREE ENERGY PREDICTED BY IDOCK:   -9.32 KCAL/MOL
REMARK 924 INTRA-LIGAND FREE ENERGY PREDICTED BY IDOCK:   -2.08 KCAL/MOL
REMARK 927      BINDING AFFINITY PREDICTED BY RF-SCORE:    0.00 PKD
ROOT
HETATM    1  C   UNL     1      -9.242  15.708  66.327  1.00  0.00    -0.365 C  
HETATM    2  C   UNL     1     -10.507  16.409  66.791  1.00  0.00    -0.273 C  
ENDROOT
BRANCH   2   3
HETATM    3  C   UNL     1     -10.347  17.056  68.137  1.00  0.00    -0.347 C  
HETATM    4  C   UNL     1     -10.896  16.617  69.283  1.00  0.00    -0.310 C  
BRANCH   4   5
HETATM    5  C   UNL     1     -11.843  15.456  69.407  1.00  0.00    -0.372 C  
BRANCH   5   6
HETATM    6  C   UNL     1     -12.500  15.410  70.759  1.00  0.00    -0.476 C  
HETATM    7  C   UNL     1     -12.742  14.305  71.487  1.00  0.00    -0.425 C  
BRANCH   7   8
HETATM    8  C   UNL     1     -12.420  12.908  71.046  1.00  0.00    -0.374 C  
BRANCH   8   9
HETATM    9  C   UNL     1     -13.146  11.869  71.850  1.00  0.00    -0.474 C  
HETATM   10  C   UNL     1     -12.967  10.539  71.787  1.00  0.00    -0.582 C  
BRANCH  10  11
HETATM   11  C   UNL     1     -11.953   9.798  70.958  1.00  0.00    -0.440 C  
BRANCH  11  12
HETATM   12  C   UNL     1     -10.907   9.100  71.784  1.00  0.00    -0.416 C  
HETATM   13  C   UNL     1      -9.609   8.952  71.476  1.00  0.00    -0.362 C  
BRANCH  13  14
HETATM   14  C   UNL     1      -8.966   9.394  70.203  1.00  0.00    -0.256 C  
BRANCH  14  15
HETATM   15  C   UNL     1      -8.782   8.275  69.216  1.00  0.00    -0.139 C  
HETATM   16  C   UNL     1      -9.397   8.238  68.021  1.00  0.00    -0.141 C  
BRANCH  16  17
HETATM   17  C   UNL     1     -10.383   9.266  67.551  1.00  0.00    -0.323 C  
BRANCH  17  18
HETATM   18  C   UNL     1      -9.836  10.164  66.476  1.00  0.00    -0.268 C  
HETATM   19  C   UNL     1     -10.393  11.349  66.165  1.00  0.00    -0.294 C  
BRANCH  19  20
HETATM   20  C   UNL     1     -11.606  11.867  66.890  1.00  0.00    -0.358 C  
BRANCH  20  21
HETATM   21  C   UNL     1     -12.005  13.295  66.538  1.00  0.00    -0.448 C  
HETATM   22  C   UNL     1     -12.617  13.307  65.154  1.00  0.00    -0.453 C  
HETATM   23  O   UNL     1     -12.503  14.507  64.536  1.00  0.00    -0.600 OA 
HETATM   24  O   UNL     1     -13.185  12.365  64.631  1.00  0.00    -0.822 OA 
ENDBRANCH  20  21
ENDBRANCH  19  20
ENDBRANCH  17  18
ENDBRANCH  16  17
ENDBRANCH  14  15
ENDBRANCH  13  14
ENDBRANCH  11  12
ENDBRANCH  10  11
ENDBRANCH   8   9
ENDBRANCH   7   8
ENDBRANCH   5   6
ENDBRANCH   4   5
ENDBRANCH   2   3
TORSDOF 13
ENDMDL
MODEL       53
REMARK 921   NORMALIZED FREE ENERGY PREDICTED BY IDOCK:   -4.90 KCAL/MOL
REMARK 922        TOTAL FREE ENERGY PREDICTED BY IDOCK:  -11.40 KCAL/MOL
REMARK 923 INTER-LIGAND FREE ENERGY PREDICTED BY IDOCK:   -8.96 KCAL/MOL
REMARK 924 INTRA-LIGAND FREE ENERGY PREDICTED BY IDOCK:   -2.44 KCAL/MOL
REMARK 927      BINDING AFFINITY PREDICTED BY RF-SCORE:    0.00 PKD
ROOT
HETATM    1  C   UNL     1     -12.168  12.451  63.458  1.00  0.00    -0.661 C  
HETATM    2  C   UNL     1     -11.821  13.503  64.498  1.00  0.00    -0.442 C  
ENDROOT
BRANCH   2   3
HETATM    3  C   UNL     1     -12.341  13.156  65.864  1.00  0.00    -0.462 C  
HETATM    4  C   UNL     1     -11.641  12.531  66.827  1.00  0.00    -0.446 C  
BRANCH   4   5
HETATM    5  C   UNL     1     -10.248  11.986  66.679  1.00  0.00    -0.229 C  
BRANCH   5   6
HETATM    6  C   UNL     1     -10.249  10.501  66.440  1.00  0.00    -0.296 C  
HETATM    7  C   UNL     1      -9.645   9.573  67.204  1.00  0.00    -0.206 C  
BRANCH   7   8
HETATM    8  C   UNL     1      -8.827   9.877  68.425  1.00  0.00    -0.120 C  
BRANCH   8   9
HETATM    9  C   UNL     1      -9.226   9.043  69.606  1.00  0.00    -0.160 C  
HETATM   10  C   UNL     1     -10.326   9.197  70.362  1.00  0.00    -0.269 C  
BRANCH  10  11
HETATM   11  C   UNL     1     -11.439  10.188  70.151  1.00  0.00    -0.368 C  
BRANCH  11  12
HETATM   12  C   UNL     1     -12.546  10.060  71.160  1.00  0.00    -0.480 C  
HETATM   13  C   UNL     1     -13.241  11.063  71.721  1.00  0.00    -0.505 C  
BRANCH  13  14
HETATM   14  C   UNL     1     -12.990  12.518  71.501  1.00  0.00    -0.379 C  
BRANCH  14  15
HETATM   15  C   UNL     1     -13.873  13.402  72.337  1.00  0.00    -0.665 C  
HETATM   16  C   UNL     1     -14.058  14.709  72.084  1.00  0.00    -0.604 C  
BRANCH  16  17
HETATM   17  C   UNL     1     -13.366  15.459  70.985  1.00  0.00    -0.545 C  
BRANCH  17  18
HETATM   18  C   UNL     1     -11.995  15.942  71.368  1.00  0.00    -0.515 C  
HETATM   19  C   UNL     1     -10.954  15.930  70.516  1.00  0.00    -0.346 C  
BRANCH  19  20
HETATM   20  C   UNL     1     -11.097  15.438  69.100  1.00  0.00    -0.267 C  
BRANCH  20  21
HETATM   21  C   UNL     1      -9.786  15.262  68.344  1.00  0.00    -0.213 C  
HETATM   22  C   UNL     1      -9.957  15.787  66.935  1.00  0.00    -0.243 C  
HETATM   23  O   UNL     1      -9.106  15.213  66.050  1.00  0.00    -0.289 OA 
HETATM   24  O   UNL     1     -10.746  16.652  66.600  1.00  0.00    -0.247 OA 
ENDBRANCH  20  21
ENDBRANCH  19  20
ENDBRANCH  17  18
ENDBRANCH  16  17
ENDBRANCH  14  15
ENDBRANCH  13  14
ENDBRANCH  11  12
ENDBRANCH  10  11
ENDBRANCH   8   9
ENDBRANCH   7   8
ENDBRANCH   5   6
ENDBRANCH   4   5
ENDBRANCH   2   3
TORSDOF 13
ENDMDL
MODEL       54
REMARK 921   NORMALIZED FREE ENERGY PREDICTED BY IDOCK:   -4.89 KCAL/MOL
REMARK 922        TOTAL FREE ENERGY PREDICTED BY IDOCK:  -11.38 KCAL/MOL
REMARK 923 INTER-LIGAND FREE ENERGY PREDICTED BY IDOCK:   -8.09 KCAL/MOL
REMARK 924 INTRA-LIGAND FREE ENERGY PREDICTED BY IDOCK:   -3.28 KCAL/MOL
REMARK 927      BINDING AFFINITY PREDICTED BY RF-SCORE:    0.00 PKD
ROOT
HETATM    1  C   UNL     1      -8.148  15.494  67.146  1.00  0.00    -0.249 C  
HETATM    2  C   UNL     1      -8.726  15.463  68.551  1.00  0.00    -0.178 C  
ENDROOT
BRANCH   2   3
HETATM    3  C   UNL     1      -9.633  16.629  68.827  1.00  0.00    -0.254 C  
HETATM    4  C   UNL     1     -10.603  16.657  69.757  1.00  0.00    -0.227 C  
BRANCH   4   5
HETATM    5  C   UNL     1     -11.016  15.499  70.622  1.00  0.00    -0.370 C  
BRANCH   5   6
HETATM    6  C   UNL     1     -12.113  15.877  71.580  1.00  0.00    -0.533 C  
HETATM    7  C   UNL     1     -13.217  15.157  71.847  1.00  0.00    -0.476 C  
BRANCH   7   8
HETATM    8  C   UNL     1     -13.557  13.848  71.197  1.00  0.00    -0.140 C  
BRANCH   8   9
HETATM    9  C   UNL     1     -13.395  12.683  72.129  1.00  0.00    -0.570 C  
HETATM   10  C   UNL     1     -13.031  11.434  71.794  1.00  0.00    -0.519 C  
BRANCH  10  11
HETATM   11  C   UNL     1     -12.633  10.941  70.429  1.00  0.00    -0.376 C  
BRANCH  11  12
HETATM   12  C   UNL     1     -11.218  11.294  70.060  1.00  0.00    -0.213 C  
HETATM   13  C   UNL     1     -10.813  11.923  68.946  1.00  0.00    -0.261 C  
BRANCH  13  14
HETATM   14  C   UNL     1     -11.695  12.331  67.813  1.00  0.00    -0.403 C  
BRANCH  14  15
HETATM   15  C   UNL     1     -12.090  13.780  67.865  1.00  0.00    -0.322 C  
HETATM   16  C   UNL     1     -11.875  14.639  66.854  1.00  0.00    -0.345 C  
BRANCH  16  17
HETATM   17  C   UNL     1     -11.164  14.281  65.583  1.00  0.00    -0.314 C  
BRANCH  17  18
HETATM   18  C   UNL     1     -12.098  14.030  64.431  1.00  0.00    -0.486 C  
HETATM   19  C   UNL     1     -11.889  13.059  63.524  1.00  0.00    -0.582 C  
BRANCH  19  20
HETATM   20  C   UNL     1     -10.702  12.138  63.610  1.00  0.00    -0.518 C  
BRANCH  20  21
HETATM   21  C   UNL     1     -10.905  10.904  64.479  1.00  0.00    -0.145 C  
HETATM   22  C   UNL     1      -9.653  10.665  65.295  1.00  0.00    -0.241 C  
HETATM   23  O   UNL     1      -9.499   9.369  65.660  1.00  0.00    -0.231 OA 
HETATM   24  O   UNL     1      -8.860  11.526  65.630  1.00  0.00    -0.139 OA 
ENDBRANCH  20  21
ENDBRANCH  19  20
ENDBRANCH  17  18
ENDBRANCH  16  17
ENDBRANCH  14  15
ENDBRANCH  13  14
ENDBRANCH  11  12
ENDBRANCH  10  11
ENDBRANCH   8   9
ENDBRANCH   7   8
ENDBRANCH   5   6
ENDBRANCH   4   5
ENDBRANCH   2   3
TORSDOF 13
ENDMDL
MODEL       55
REMARK 921   NORMALIZED FREE ENERGY PREDICTED BY IDOCK:   -4.88 KCAL/MOL
REMARK 922        TOTAL FREE ENERGY PREDICTED BY IDOCK:  -11.37 KCAL/MOL
REMARK 923 INTER-LIGAND FREE ENERGY PREDICTED BY IDOCK:   -9.04 KCAL/MOL
REMARK 924 INTRA-LIGAND FREE ENERGY PREDICTED BY IDOCK:   -2.33 KCAL/MOL
REMARK 927      BINDING AFFINITY PREDICTED BY RF-SCORE:    0.00 PKD
ROOT
HETATM    1  C   UNL     1     -12.899  10.796  71.383  1.00  0.00    -0.557 C  
HETATM    2  C   UNL     1     -12.306   9.406  71.218  1.00  0.00    -0.422 C  
ENDROOT
BRANCH   2   3
HETATM    3  C   UNL     1     -10.873   9.335  71.662  1.00  0.00    -0.418 C  
HETATM    4  C   UNL     1     -10.260   8.238  72.140  1.00  0.00    -0.355 C  
BRANCH   4   5
HETATM    5  C   UNL     1     -10.920   6.914  72.402  1.00  0.00    -0.280 C  
BRANCH   5   6
HETATM    6  C   UNL     1     -10.269   5.799  71.632  1.00  0.00    -0.253 C  
HETATM    7  C   UNL     1     -10.465   5.510  70.333  1.00  0.00    -0.356 C  
BRANCH   7   8
HETATM    8  C   UNL     1     -11.409   6.248  69.431  1.00  0.00    -0.448 C  
BRANCH   8   9
HETATM    9  C   UNL     1     -10.941   6.274  68.005  1.00  0.00    -0.418 C  
HETATM   10  C   UNL     1     -10.647   7.365  67.278  1.00  0.00    -0.393 C  
BRANCH  10  11
HETATM   11  C   UNL     1     -10.650   8.794  67.747  1.00  0.00    -0.256 C  
BRANCH  11  12
HETATM   12  C   UNL     1      -9.328   9.234  68.316  1.00  0.00    -0.141 C  
HETATM   13  C   UNL     1      -9.011  10.464  68.750  1.00  0.00    -0.157 C  
BRANCH  13  14
HETATM   14  C   UNL     1      -9.899  11.661  68.681  1.00  0.00    -0.173 C  
BRANCH  14  15
HETATM   15  C   UNL     1     -10.456  11.904  67.306  1.00  0.00    -0.248 C  
HETATM   16  C   UNL     1     -11.429  12.796  67.051  1.00  0.00    -0.397 C  
BRANCH  16  17
HETATM   17  C   UNL     1     -12.118  13.611  68.104  1.00  0.00    -0.310 C  
BRANCH  17  18
HETATM   18  C   UNL     1     -11.491  14.962  68.314  1.00  0.00    -0.343 C  
HETATM   19  C   UNL     1     -11.575  15.630  69.479  1.00  0.00    -0.366 C  
BRANCH  19  20
HETATM   20  C   UNL     1     -12.299  15.057  70.668  1.00  0.00    -0.404 C  
BRANCH  20  21
HETATM   21  C   UNL     1     -12.043  15.778  71.986  1.00  0.00    -0.562 C  
HETATM   22  C   UNL     1     -13.039  15.289  73.015  1.00  0.00    -0.506 C  
HETATM   23  O   UNL     1     -13.272  16.193  73.997  1.00  0.00    -0.623 OA 
HETATM   24  O   UNL     1     -13.573  14.194  73.010  1.00  0.00    -0.651 OA 
ENDBRANCH  20  21
ENDBRANCH  19  20
ENDBRANCH  17  18
ENDBRANCH  16  17
ENDBRANCH  14  15
ENDBRANCH  13  14
ENDBRANCH  11  12
ENDBRANCH  10  11
ENDBRANCH   8   9
ENDBRANCH   7   8
ENDBRANCH   5   6
ENDBRANCH   4   5
ENDBRANCH   2   3
TORSDOF 13
ENDMDL
MODEL       56
REMARK 921   NORMALIZED FREE ENERGY PREDICTED BY IDOCK:   -4.88 KCAL/MOL
REMARK 922        TOTAL FREE ENERGY PREDICTED BY IDOCK:  -11.37 KCAL/MOL
REMARK 923 INTER-LIGAND FREE ENERGY PREDICTED BY IDOCK:   -8.49 KCAL/MOL
REMARK 924 INTRA-LIGAND FREE ENERGY PREDICTED BY IDOCK:   -2.87 KCAL/MOL
REMARK 927      BINDING AFFINITY PREDICTED BY RF-SCORE:    0.00 PKD
ROOT
HETATM    1  C   UNL     1      -9.893   4.386  69.662  1.00  0.00    -0.272 C  
HETATM    2  C   UNL     1      -9.472   4.711  71.086  1.00  0.00    -0.220 C  
ENDROOT
BRANCH   2   3
HETATM    3  C   UNL     1      -9.119   6.160  71.266  1.00  0.00    -0.147 C  
HETATM    4  C   UNL     1      -9.801   7.039  72.021  1.00  0.00    -0.171 C  
BRANCH   4   5
HETATM    5  C   UNL     1     -11.087   6.754  72.744  1.00  0.00    -0.292 C  
BRANCH   5   6
HETATM    6  C   UNL     1     -12.275   6.816  71.822  1.00  0.00    -0.402 C  
HETATM    7  C   UNL     1     -13.059   7.887  71.608  1.00  0.00    -0.361 C  
BRANCH   7   8
HETATM    8  C   UNL     1     -12.895   9.213  72.291  1.00  0.00    -0.472 C  
BRANCH   8   9
HETATM    9  C   UNL     1     -12.961  10.366  71.334  1.00  0.00    -0.545 C  
HETATM   10  C   UNL     1     -11.998  10.759  70.484  1.00  0.00    -0.456 C  
BRANCH  10  11
HETATM   11  C   UNL     1     -10.670  10.090  70.247  1.00  0.00    -0.367 C  
BRANCH  11  12
HETATM   12  C   UNL     1     -10.689   9.128  69.091  1.00  0.00    -0.190 C  
HETATM   13  C   UNL     1     -10.379   9.403  67.814  1.00  0.00    -0.291 C  
BRANCH  13  14
HETATM   14  C   UNL     1     -10.025  10.751  67.280  1.00  0.00    -0.219 C  
BRANCH  14  15
HETATM   15  C   UNL     1     -11.208  11.495  66.725  1.00  0.00    -0.350 C  
HETATM   16  C   UNL     1     -11.572  12.718  67.146  1.00  0.00    -0.426 C  
BRANCH  16  17
HETATM   17  C   UNL     1     -10.891  13.464  68.255  1.00  0.00    -0.275 C  
BRANCH  17  18
HETATM   18  C   UNL     1     -11.171  14.941  68.236  1.00  0.00    -0.306 C  
HETATM   19  C   UNL     1     -11.577  15.618  69.325  1.00  0.00    -0.375 C  
BRANCH  19  20
HETATM   20  C   UNL     1     -11.768  14.938  70.654  1.00  0.00    -0.357 C  
BRANCH  20  21
HETATM   21  C   UNL     1     -13.187  14.460  70.935  1.00  0.00    -0.347 C  
HETATM   22  C   UNL     1     -13.312  14.129  72.407  1.00  0.00    -0.494 C  
HETATM   23  O   UNL     1     -14.284  13.221  72.664  1.00  0.00    -0.724 OA 
HETATM   24  O   UNL     1     -12.645  14.627  73.296  1.00  0.00    -0.434 OA 
ENDBRANCH  20  21
ENDBRANCH  19  20
ENDBRANCH  17  18
ENDBRANCH  16  17
ENDBRANCH  14  15
ENDBRANCH  13  14
ENDBRANCH  11  12
ENDBRANCH  10  11
ENDBRANCH   8   9
ENDBRANCH   7   8
ENDBRANCH   5   6
ENDBRANCH   4   5
ENDBRANCH   2   3
TORSDOF 13
ENDMDL
MODEL       57
REMARK 921   NORMALIZED FREE ENERGY PREDICTED BY IDOCK:   -4.88 KCAL/MOL
REMARK 922        TOTAL FREE ENERGY PREDICTED BY IDOCK:  -11.36 KCAL/MOL
REMARK 923 INTER-LIGAND FREE ENERGY PREDICTED BY IDOCK:   -8.48 KCAL/MOL
REMARK 924 INTRA-LIGAND FREE ENERGY PREDICTED BY IDOCK:   -2.88 KCAL/MOL
REMARK 927      BINDING AFFINITY PREDICTED BY RF-SCORE:    0.00 PKD
ROOT
HETATM    1  C   UNL     1     -11.491  11.942  64.450  1.00  0.00    -0.393 C  
HETATM    2  C   UNL     1     -10.264  11.696  65.312  1.00  0.00    -0.316 C  
ENDROOT
BRANCH   2   3
HETATM    3  C   UNL     1      -9.649  10.347  65.068  1.00  0.00    -0.339 C  
HETATM    4  C   UNL     1      -9.788   9.273  65.864  1.00  0.00    -0.335 C  
BRANCH   4   5
HETATM    5  C   UNL     1     -10.505   9.253  67.185  1.00  0.00    -0.319 C  
BRANCH   5   6
HETATM    6  C   UNL     1      -9.546   9.266  68.344  1.00  0.00    -0.158 C  
HETATM    7  C   UNL     1      -9.629   8.510  69.452  1.00  0.00    -0.170 C  
BRANCH   7   8
HETATM    8  C   UNL     1     -10.733   7.533  69.735  1.00  0.00    -0.249 C  
BRANCH   8   9
HETATM    9  C   UNL     1     -10.891   7.252  71.200  1.00  0.00    -0.260 C  
HETATM   10  C   UNL     1     -11.951   7.565  71.966  1.00  0.00    -0.330 C  
BRANCH  10  11
HETATM   11  C   UNL     1     -13.240   8.196  71.515  1.00  0.00    -0.310 C  
BRANCH  11  12
HETATM   12  C   UNL     1     -13.520   9.515  72.181  1.00  0.00    -0.535 C  
HETATM   13  C   UNL     1     -12.984  10.704  71.865  1.00  0.00    -0.542 C  
BRANCH  13  14
HETATM   14  C   UNL     1     -11.937  10.931  70.825  1.00  0.00    -0.449 C  
BRANCH  14  15
HETATM   15  C   UNL     1     -12.508  11.183  69.458  1.00  0.00    -0.142 C  
HETATM   16  C   UNL     1     -11.960  12.036  68.575  1.00  0.00    -0.273 C  
BRANCH  16  17
HETATM   17  C   UNL     1     -10.757  12.884  68.862  1.00  0.00    -0.195 C  
BRANCH  17  18
HETATM   18  C   UNL     1     -10.994  14.350  68.622  1.00  0.00    -0.264 C  
HETATM   19  C   UNL     1     -11.514  15.166  69.557  1.00  0.00    -0.314 C  
BRANCH  19  20
HETATM   20  C   UNL     1     -11.885  14.664  70.926  1.00  0.00    -0.372 C  
BRANCH  20  21
HETATM   21  C   UNL     1     -11.607  15.636  72.066  1.00  0.00    -0.540 C  
HETATM   22  C   UNL     1     -12.664  15.456  73.135  1.00  0.00    -0.479 C  
HETATM   23  O   UNL     1     -12.850  16.567  73.886  1.00  0.00    -0.619 OA 
HETATM   24  O   UNL     1     -13.280  14.427  73.344  1.00  0.00    -0.576 OA 
ENDBRANCH  20  21
ENDBRANCH  19  20
ENDBRANCH  17  18
ENDBRANCH  16  17
ENDBRANCH  14  15
ENDBRANCH  13  14
ENDBRANCH  11  12
ENDBRANCH  10  11
ENDBRANCH   8   9
ENDBRANCH   7   8
ENDBRANCH   5   6
ENDBRANCH   4   5
ENDBRANCH   2   3
TORSDOF 13
ENDMDL
MODEL       58
REMARK 921   NORMALIZED FREE ENERGY PREDICTED BY IDOCK:   -4.86 KCAL/MOL
REMARK 922        TOTAL FREE ENERGY PREDICTED BY IDOCK:  -11.33 KCAL/MOL
REMARK 923 INTER-LIGAND FREE ENERGY PREDICTED BY IDOCK:   -8.62 KCAL/MOL
REMARK 924 INTRA-LIGAND FREE ENERGY PREDICTED BY IDOCK:   -2.71 KCAL/MOL
REMARK 927      BINDING AFFINITY PREDICTED BY RF-SCORE:    0.00 PKD
ROOT
HETATM    1  C   UNL     1     -10.387   5.218  69.636  1.00  0.00    -0.348 C  
HETATM    2  C   UNL     1     -11.117   6.547  69.547  1.00  0.00    -0.425 C  
ENDROOT
BRANCH   2   3
HETATM    3  C   UNL     1     -11.928   6.844  70.777  1.00  0.00    -0.424 C  
HETATM    4  C   UNL     1     -11.948   8.017  71.431  1.00  0.00    -0.328 C  
BRANCH   4   5
HETATM    5  C   UNL     1     -11.096   9.212  71.107  1.00  0.00    -0.393 C  
BRANCH   5   6
HETATM    6  C   UNL     1     -11.897  10.321  70.484  1.00  0.00    -0.419 C  
HETATM    7  C   UNL     1     -11.604  10.969  69.342  1.00  0.00    -0.383 C  
BRANCH   7   8
HETATM    8  C   UNL     1     -10.387  10.707  68.504  1.00  0.00    -0.202 C  
BRANCH   8   9
HETATM    9  C   UNL     1     -10.546   9.507  67.618  1.00  0.00    -0.329 C  
HETATM   10  C   UNL     1     -10.085   9.370  66.363  1.00  0.00    -0.332 C  
BRANCH  10  11
HETATM   11  C   UNL     1      -9.244  10.354  65.595  1.00  0.00    -0.220 C  
BRANCH  11  12
HETATM   12  C   UNL     1      -9.393  10.223  64.104  1.00  0.00    -0.336 C  
HETATM   13  C   UNL     1      -9.880  11.149  63.262  1.00  0.00    -0.415 C  
BRANCH  13  14
HETATM   14  C   UNL     1     -10.442  12.472  63.663  1.00  0.00    -0.418 C  
BRANCH  14  15
HETATM   15  C   UNL     1     -11.943  12.474  63.748  1.00  0.00    -0.598 C  
HETATM   16  C   UNL     1     -12.615  12.622  64.903  1.00  0.00    -0.525 C  
BRANCH  16  17
HETATM   17  C   UNL     1     -11.962  12.740  66.247  1.00  0.00    -0.460 C  
BRANCH  17  18
HETATM   18  C   UNL     1     -12.126  14.100  66.868  1.00  0.00    -0.466 C  
HETATM   19  C   UNL     1     -11.147  15.022  66.870  1.00  0.00    -0.331 C  
BRANCH  19  20
HETATM   20  C   UNL     1      -9.811  14.758  66.229  1.00  0.00    -0.316 C  
BRANCH  20  21
HETATM   21  C   UNL     1      -8.709  14.332  67.191  1.00  0.00    -0.243 C  
HETATM   22  C   UNL     1      -7.561  15.314  67.089  1.00  0.00    -0.189 C  
HETATM   23  O   UNL     1      -6.371  14.775  67.447  1.00  0.00    -0.320 OA 
HETATM   24  O   UNL     1      -7.664  16.480  66.753  1.00  0.00    -0.203 OA 
ENDBRANCH  20  21
ENDBRANCH  19  20
ENDBRANCH  17  18
ENDBRANCH  16  17
ENDBRANCH  14  15
ENDBRANCH  13  14
ENDBRANCH  11  12
ENDBRANCH  10  11
ENDBRANCH   8   9
ENDBRANCH   7   8
ENDBRANCH   5   6
ENDBRANCH   4   5
ENDBRANCH   2   3
TORSDOF 13
ENDMDL
MODEL       59
REMARK 921   NORMALIZED FREE ENERGY PREDICTED BY IDOCK:   -4.86 KCAL/MOL
REMARK 922        TOTAL FREE ENERGY PREDICTED BY IDOCK:  -11.33 KCAL/MOL
REMARK 923 INTER-LIGAND FREE ENERGY PREDICTED BY IDOCK:   -8.27 KCAL/MOL
REMARK 924 INTRA-LIGAND FREE ENERGY PREDICTED BY IDOCK:   -3.06 KCAL/MOL
REMARK 927      BINDING AFFINITY PREDICTED BY RF-SCORE:    0.00 PKD
ROOT
HETATM    1  C   UNL     1      -8.500  14.739  67.012  1.00  0.00    -0.250 C  
HETATM    2  C   UNL     1      -9.756  14.477  66.197  1.00  0.00    -0.340 C  
ENDROOT
BRANCH   2   3
HETATM    3  C   UNL     1     -10.861  13.874  67.018  1.00  0.00    -0.288 C  
HETATM    4  C   UNL     1     -12.077  13.536  66.557  1.00  0.00    -0.460 C  
BRANCH   4   5
HETATM    5  C   UNL     1     -12.582  13.786  65.164  1.00  0.00    -0.471 C  
BRANCH   5   6
HETATM    6  C   UNL     1     -12.844  12.503  64.424  1.00  0.00    -0.366 C  
HETATM    7  C   UNL     1     -11.953  11.815  63.688  1.00  0.00    -0.490 C  
BRANCH   7   8
HETATM    8  C   UNL     1     -10.533  12.240  63.454  1.00  0.00    -0.408 C  
BRANCH   8   9
HETATM    9  C   UNL     1      -9.570  11.092  63.526  1.00  0.00    -0.344 C  
HETATM   10  C   UNL     1      -9.105  10.505  64.642  1.00  0.00    -0.248 C  
BRANCH  10  11
HETATM   11  C   UNL     1      -9.500  10.815  66.061  1.00  0.00    -0.230 C  
BRANCH  11  12
HETATM   12  C   UNL     1     -10.516   9.856  66.617  1.00  0.00    -0.239 C  
HETATM   13  C   UNL     1     -11.018   9.851  67.862  1.00  0.00    -0.281 C  
BRANCH  13  14
HETATM   14  C   UNL     1     -10.600  10.763  68.966  1.00  0.00    -0.250 C  
BRANCH  14  15
HETATM   15  C   UNL     1     -11.747  11.525  69.569  1.00  0.00    -0.413 C  
HETATM   16  C   UNL     1     -12.314  11.197  70.742  1.00  0.00    -0.504 C  
BRANCH  16  17
HETATM   17  C   UNL     1     -11.921  10.004  71.562  1.00  0.00    -0.438 C  
BRANCH  17  18
HETATM   18  C   UNL     1     -13.030   9.000  71.717  1.00  0.00    -0.436 C  
HETATM   19  C   UNL     1     -12.840   7.677  71.562  1.00  0.00    -0.376 C  
BRANCH  19  20
HETATM   20  C   UNL     1     -11.487   7.106  71.232  1.00  0.00    -0.314 C  
BRANCH  20  21
HETATM   21  C   UNL     1     -11.347   6.558  69.817  1.00  0.00    -0.456 C  
HETATM   22  C   UNL     1     -10.443   5.345  69.847  1.00  0.00    -0.308 C  
HETATM   23  O   UNL     1      -9.824   5.117  68.664  1.00  0.00    -0.142 OA 
HETATM   24  O   UNL     1     -10.285   4.611  70.807  1.00  0.00    -0.215 OA 
ENDBRANCH  20  21
ENDBRANCH  19  20
ENDBRANCH  17  18
ENDBRANCH  16  17
ENDBRANCH  14  15
ENDBRANCH  13  14
ENDBRANCH  11  12
ENDBRANCH  10  11
ENDBRANCH   8   9
ENDBRANCH   7   8
ENDBRANCH   5   6
ENDBRANCH   4   5
ENDBRANCH   2   3
TORSDOF 13
ENDMDL
MODEL       60
REMARK 921   NORMALIZED FREE ENERGY PREDICTED BY IDOCK:   -4.86 KCAL/MOL
REMARK 922        TOTAL FREE ENERGY PREDICTED BY IDOCK:  -11.32 KCAL/MOL
REMARK 923 INTER-LIGAND FREE ENERGY PREDICTED BY IDOCK:   -8.72 KCAL/MOL
REMARK 924 INTRA-LIGAND FREE ENERGY PREDICTED BY IDOCK:   -2.61 KCAL/MOL
REMARK 927      BINDING AFFINITY PREDICTED BY RF-SCORE:    0.00 PKD
ROOT
HETATM    1  C   UNL     1     -13.637   9.915  72.253  1.00  0.00    -0.337 C  
HETATM    2  C   UNL     1     -13.145   8.491  72.056  1.00  0.00    -0.403 C  
ENDROOT
BRANCH   2   3
HETATM    3  C   UNL     1     -11.647   8.387  72.096  1.00  0.00    -0.442 C  
HETATM    4  C   UNL     1     -10.888   7.729  71.202  1.00  0.00    -0.254 C  
BRANCH   4   5
HETATM    5  C   UNL     1     -11.407   6.903  70.059  1.00  0.00    -0.343 C  
BRANCH   5   6
HETATM    6  C   UNL     1     -10.405   5.873  69.611  1.00  0.00    -0.313 C  
HETATM    7  C   UNL     1     -10.080   5.582  68.340  1.00  0.00    -0.234 C  
BRANCH   7   8
HETATM    8  C   UNL     1     -10.697   6.226  67.134  1.00  0.00    -0.432 C  
BRANCH   8   9
HETATM    9  C   UNL     1      -9.749   7.147  66.425  1.00  0.00    -0.139 C  
HETATM   10  C   UNL     1      -9.748   8.490  66.473  1.00  0.00    -0.330 C  
BRANCH  10  11
HETATM   11  C   UNL     1     -10.646   9.367  67.304  1.00  0.00    -0.314 C  
BRANCH  11  12
HETATM   12  C   UNL     1      -9.980   9.887  68.548  1.00  0.00    -0.175 C  
HETATM   13  C   UNL     1     -10.545  10.640  69.505  1.00  0.00    -0.265 C  
BRANCH  13  14
HETATM   14  C   UNL     1     -11.939  11.173  69.476  1.00  0.00    -0.425 C  
BRANCH  14  15
HETATM   15  C   UNL     1     -12.097  12.454  70.248  1.00  0.00    -0.377 C  
HETATM   16  C   UNL     1     -12.025  13.670  69.679  1.00  0.00    -0.402 C  
BRANCH  16  17
HETATM   17  C   UNL     1     -11.720  13.904  68.230  1.00  0.00    -0.396 C  
BRANCH  17  18
HETATM   18  C   UNL     1     -10.248  13.887  67.924  1.00  0.00    -0.241 C  
HETATM   19  C   UNL     1      -9.764  13.994  66.673  1.00  0.00    -0.296 C  
BRANCH  19  20
HETATM   20  C   UNL     1     -10.673  14.154  65.484  1.00  0.00    -0.330 C  
BRANCH  20  21
HETATM   21  C   UNL     1     -10.828  12.909  64.620  1.00  0.00    -0.365 C  
HETATM   22  C   UNL     1     -12.099  13.031  63.806  1.00  0.00    -0.502 C  
HETATM   23  O   UNL     1     -12.613  11.830  63.446  1.00  0.00    -0.558 OA 
HETATM   24  O   UNL     1     -12.616  14.080  63.467  1.00  0.00    -0.842 OA 
ENDBRANCH  20  21
ENDBRANCH  19  20
ENDBRANCH  17  18
ENDBRANCH  16  17
ENDBRANCH  14  15
ENDBRANCH  13  14
ENDBRANCH  11  12
ENDBRANCH  10  11
ENDBRANCH   8   9
ENDBRANCH   7   8
ENDBRANCH   5   6
ENDBRANCH   4   5
ENDBRANCH   2   3
TORSDOF 13
ENDMDL
MODEL       61
REMARK 921   NORMALIZED FREE ENERGY PREDICTED BY IDOCK:   -4.85 KCAL/MOL
REMARK 922        TOTAL FREE ENERGY PREDICTED BY IDOCK:  -11.31 KCAL/MOL
REMARK 923 INTER-LIGAND FREE ENERGY PREDICTED BY IDOCK:   -9.03 KCAL/MOL
REMARK 924 INTRA-LIGAND FREE ENERGY PREDICTED BY IDOCK:   -2.28 KCAL/MOL
REMARK 927      BINDING AFFINITY PREDICTED BY RF-SCORE:    0.00 PKD
ROOT
HETATM    1  C   UNL     1      -8.241   7.415  71.980  1.00  0.00    -0.111 C  
HETATM    2  C   UNL     1      -9.480   6.770  71.382  1.00  0.00    -0.160 C  
ENDROOT
BRANCH   2   3
HETATM    3  C   UNL     1      -9.954   7.472  70.142  1.00  0.00    -0.192 C  
HETATM    4  C   UNL     1     -10.541   8.681  70.108  1.00  0.00    -0.235 C  
BRANCH   4   5
HETATM    5  C   UNL     1     -10.912   9.504  71.310  1.00  0.00    -0.440 C  
BRANCH   5   6
HETATM    6  C   UNL     1     -12.399   9.521  71.541  1.00  0.00    -0.465 C  
HETATM    7  C   UNL     1     -13.179  10.613  71.613  1.00  0.00    -0.495 C  
BRANCH   7   8
HETATM    8  C   UNL     1     -12.680  12.024  71.504  1.00  0.00    -0.360 C  
BRANCH   8   9
HETATM    9  C   UNL     1     -13.569  13.005  72.210  1.00  0.00    -0.643 C  
HETATM   10  C   UNL     1     -13.215  14.213  72.681  1.00  0.00    -0.612 C  
BRANCH  10  11
HETATM   11  C   UNL     1     -11.875  14.883  72.541  1.00  0.00    -0.337 C  
BRANCH  11  12
HETATM   12  C   UNL     1     -11.882  16.024  71.561  1.00  0.00    -0.554 C  
HETATM   13  C   UNL     1     -11.560  15.966  70.259  1.00  0.00    -0.365 C  
BRANCH  13  14
HETATM   14  C   UNL     1     -11.055  14.755  69.547  1.00  0.00    -0.302 C  
BRANCH  14  15
HETATM   15  C   UNL     1     -12.037  14.205  68.550  1.00  0.00    -0.312 C  
HETATM   16  C   UNL     1     -11.832  13.067  67.865  1.00  0.00    -0.389 C  
BRANCH  16  17
HETATM   17  C   UNL     1     -10.583  12.242  67.960  1.00  0.00    -0.235 C  
BRANCH  17  18
HETATM   18  C   UNL     1     -10.776  10.820  67.511  1.00  0.00    -0.312 C  
HETATM   19  C   UNL     1     -10.468  10.400  66.271  1.00  0.00    -0.229 C  
BRANCH  19  20
HETATM   20  C   UNL     1      -9.889  11.333  65.241  1.00  0.00    -0.291 C  
BRANCH  20  21
HETATM   21  C   UNL     1     -10.762  11.556  64.013  1.00  0.00    -0.445 C  
HETATM   22  C   UNL     1     -11.200  13.005  63.979  1.00  0.00    -0.405 C  
HETATM   23  O   UNL     1     -12.358  13.191  63.300  1.00  0.00    -0.712 OA 
HETATM   24  O   UNL     1     -10.587  13.934  64.473  1.00  0.00    -0.424 OA 
ENDBRANCH  20  21
ENDBRANCH  19  20
ENDBRANCH  17  18
ENDBRANCH  16  17
ENDBRANCH  14  15
ENDBRANCH  13  14
ENDBRANCH  11  12
ENDBRANCH  10  11
ENDBRANCH   8   9
ENDBRANCH   7   8
ENDBRANCH   5   6
ENDBRANCH   4   5
ENDBRANCH   2   3
TORSDOF 13
ENDMDL
MODEL       62
REMARK 921   NORMALIZED FREE ENERGY PREDICTED BY IDOCK:   -4.84 KCAL/MOL
REMARK 922        TOTAL FREE ENERGY PREDICTED BY IDOCK:  -11.30 KCAL/MOL
REMARK 923 INTER-LIGAND FREE ENERGY PREDICTED BY IDOCK:   -8.72 KCAL/MOL
REMARK 924 INTRA-LIGAND FREE ENERGY PREDICTED BY IDOCK:   -2.58 KCAL/MOL
REMARK 927      BINDING AFFINITY PREDICTED BY RF-SCORE:    0.00 PKD
ROOT
HETATM    1  C   UNL     1     -12.082  12.181  63.781  1.00  0.00    -0.620 C  
HETATM    2  C   UNL     1     -12.215  12.666  65.215  1.00  0.00    -0.532 C  
ENDROOT
BRANCH   2   3
HETATM    3  C   UNL     1     -11.183  13.698  65.572  1.00  0.00    -0.301 C  
HETATM    4  C   UNL     1     -10.320  13.612  66.599  1.00  0.00    -0.275 C  
BRANCH   4   5
HETATM    5  C   UNL     1     -10.294  12.516  67.627  1.00  0.00    -0.222 C  
BRANCH   5   6
HETATM    6  C   UNL     1      -9.060  11.664  67.508  1.00  0.00    -0.172 C  
HETATM    7  C   UNL     1      -9.012  10.390  67.081  1.00  0.00    -0.148 C  
BRANCH   7   8
HETATM    8  C   UNL     1     -10.211   9.583  66.675  1.00  0.00    -0.310 C  
BRANCH   8   9
HETATM    9  C   UNL     1      -9.923   8.111  66.625  1.00  0.00    -0.339 C  
HETATM   10  C   UNL     1     -10.115   7.222  67.614  1.00  0.00    -0.232 C  
BRANCH  10  11
HETATM   11  C   UNL     1     -10.728   7.486  68.963  1.00  0.00    -0.148 C  
BRANCH  11  12
HETATM   12  C   UNL     1      -9.773   8.123  69.934  1.00  0.00    -0.176 C  
HETATM   13  C   UNL     1      -9.953   9.276  70.597  1.00  0.00    -0.336 C  
BRANCH  13  14
HETATM   14  C   UNL     1     -11.118  10.194  70.435  1.00  0.00    -0.393 C  
BRANCH  14  15
HETATM   15  C   UNL     1     -12.197   9.965  71.457  1.00  0.00    -0.505 C  
HETATM   16  C   UNL     1     -13.059  10.920  71.845  1.00  0.00    -0.537 C  
BRANCH  16  17
HETATM   17  C   UNL     1     -13.017  12.338  71.361  1.00  0.00    -0.354 C  
BRANCH  17  18
HETATM   18  C   UNL     1     -13.831  13.278  72.206  1.00  0.00    -0.637 C  
HETATM   19  C   UNL     1     -13.336  14.430  72.695  1.00  0.00    -0.599 C  
BRANCH  19  20
HETATM   20  C   UNL     1     -11.924  14.867  72.413  1.00  0.00    -0.379 C  
BRANCH  20  21
HETATM   21  C   UNL     1     -11.795  16.196  71.680  1.00  0.00    -0.557 C  
HETATM   22  C   UNL     1     -11.454  15.926  70.230  1.00  0.00    -0.366 C  
HETATM   23  O   UNL     1     -10.800  16.955  69.640  1.00  0.00    -0.302 OA 
HETATM   24  O   UNL     1     -11.745  14.914  69.618  1.00  0.00    -0.284 OA 
ENDBRANCH  20  21
ENDBRANCH  19  20
ENDBRANCH  17  18
ENDBRANCH  16  17
ENDBRANCH  14  15
ENDBRANCH  13  14
ENDBRANCH  11  12
ENDBRANCH  10  11
ENDBRANCH   8   9
ENDBRANCH   7   8
ENDBRANCH   5   6
ENDBRANCH   4   5
ENDBRANCH   2   3
TORSDOF 13
ENDMDL
MODEL       63
REMARK 921   NORMALIZED FREE ENERGY PREDICTED BY IDOCK:   -4.84 KCAL/MOL
REMARK 922        TOTAL FREE ENERGY PREDICTED BY IDOCK:  -11.29 KCAL/MOL
REMARK 923 INTER-LIGAND FREE ENERGY PREDICTED BY IDOCK:   -8.57 KCAL/MOL
REMARK 924 INTRA-LIGAND FREE ENERGY PREDICTED BY IDOCK:   -2.72 KCAL/MOL
REMARK 927      BINDING AFFINITY PREDICTED BY RF-SCORE:    0.00 PKD
ROOT
HETATM    1  C   UNL     1      -6.352  17.472  66.451  1.00  0.00    -0.275 C  
HETATM    2  C   UNL     1      -6.968  18.289  67.574  1.00  0.00    -0.204 C  
ENDROOT
BRANCH   2   3
HETATM    3  C   UNL     1      -6.907  19.767  67.312  1.00  0.00    -0.238 C  
HETATM    4  C   UNL     1      -7.959  20.604  67.325  1.00  0.00    -0.327 C  
BRANCH   4   5
HETATM    5  C   UNL     1      -9.394  20.199  67.510  1.00  0.00    -0.507 C  
BRANCH   5   6
HETATM    6  C   UNL     1     -10.036  19.798  66.211  1.00  0.00    -0.601 C  
HETATM    7  C   UNL     1     -10.534  18.585  65.911  1.00  0.00    -0.379 C  
BRANCH   7   8
HETATM    8  C   UNL     1     -10.500  17.400  66.832  1.00  0.00    -0.279 C  
BRANCH   8   9
HETATM    9  C   UNL     1      -9.775  16.229  66.236  1.00  0.00    -0.329 C  
HETATM   10  C   UNL     1     -10.262  15.361  65.333  1.00  0.00    -0.408 C  
BRANCH  10  11
HETATM   11  C   UNL     1     -11.609  15.409  64.663  1.00  0.00    -0.311 C  
BRANCH  11  12
HETATM   12  C   UNL     1     -12.431  14.171  64.893  1.00  0.00    -0.419 C  
HETATM   13  C   UNL     1     -12.084  12.910  64.590  1.00  0.00    -0.474 C  
BRANCH  13  14
HETATM   14  C   UNL     1     -10.831  12.502  63.889  1.00  0.00    -0.472 C  
BRANCH  14  15
HETATM   15  C   UNL     1     -10.500  11.047  64.071  1.00  0.00    -0.433 C  
HETATM   16  C   UNL     1     -10.154  10.513  65.255  1.00  0.00    -0.369 C  
BRANCH  16  17
HETATM   17  C   UNL     1      -9.996  11.303  66.520  1.00  0.00    -0.247 C  
BRANCH  17  18
HETATM   18  C   UNL     1     -11.092  11.052  67.518  1.00  0.00    -0.366 C  
HETATM   19  C   UNL     1     -11.584  12.016  68.317  1.00  0.00    -0.394 C  
BRANCH  19  20
HETATM   20  C   UNL     1     -11.075  13.431  68.254  1.00  0.00    -0.289 C  
BRANCH  20  21
HETATM   21  C   UNL     1     -11.882  14.442  69.059  1.00  0.00    -0.358 C  
HETATM   22  C   UNL     1     -10.939  15.232  69.942  1.00  0.00    -0.290 C  
HETATM   23  O   UNL     1     -11.545  15.735  71.044  1.00  0.00    -0.341 OA 
HETATM   24  O   UNL     1      -9.762  15.437  69.705  1.00  0.00    -0.266 OA 
ENDBRANCH  20  21
ENDBRANCH  19  20
ENDBRANCH  17  18
ENDBRANCH  16  17
ENDBRANCH  14  15
ENDBRANCH  13  14
ENDBRANCH  11  12
ENDBRANCH  10  11
ENDBRANCH   8   9
ENDBRANCH   7   8
ENDBRANCH   5   6
ENDBRANCH   4   5
ENDBRANCH   2   3
TORSDOF 13
ENDMDL
MODEL       64
REMARK 921   NORMALIZED FREE ENERGY PREDICTED BY IDOCK:   -4.84 KCAL/MOL
REMARK 922        TOTAL FREE ENERGY PREDICTED BY IDOCK:  -11.29 KCAL/MOL
REMARK 923 INTER-LIGAND FREE ENERGY PREDICTED BY IDOCK:   -8.92 KCAL/MOL
REMARK 924 INTRA-LIGAND FREE ENERGY PREDICTED BY IDOCK:   -2.38 KCAL/MOL
REMARK 927      BINDING AFFINITY PREDICTED BY RF-SCORE:    0.00 PKD
ROOT
HETATM    1  C   UNL     1      -7.847  19.680  68.442  1.00  0.00    -0.362 C  
HETATM    2  C   UNL     1      -8.270  20.016  67.022  1.00  0.00    -0.364 C  
ENDROOT
BRANCH   2   3
HETATM    3  C   UNL     1      -9.738  20.314  66.912  1.00  0.00    -0.584 C  
HETATM    4  C   UNL     1     -10.708  19.398  66.746  1.00  0.00    -0.550 C  
BRANCH   4   5
HETATM    5  C   UNL     1     -10.491  17.925  66.547  1.00  0.00    -0.315 C  
BRANCH   5   6
HETATM    6  C   UNL     1     -10.571  17.165  67.843  1.00  0.00    -0.376 C  
HETATM    7  C   UNL     1     -10.660  15.830  67.977  1.00  0.00    -0.279 C  
BRANCH   7   8
HETATM    8  C   UNL     1     -10.729  14.862  66.832  1.00  0.00    -0.308 C  
BRANCH   8   9
HETATM    9  C   UNL     1     -12.054  14.164  66.748  1.00  0.00    -0.474 C  
HETATM   10  C   UNL     1     -12.692  13.786  65.627  1.00  0.00    -0.523 C  
BRANCH  10  11
HETATM   11  C   UNL     1     -12.190  13.911  64.214  1.00  0.00    -0.447 C  
BRANCH  11  12
HETATM   12  C   UNL     1     -12.291  12.629  63.434  1.00  0.00    -0.553 C  
HETATM   13  C   UNL     1     -11.391  11.633  63.407  1.00  0.00    -0.380 C  
BRANCH  13  14
HETATM   14  C   UNL     1     -10.068  11.644  64.098  1.00  0.00    -0.338 C  
BRANCH  14  15
HETATM   15  C   UNL     1      -9.662  10.293  64.616  1.00  0.00    -0.398 C  
HETATM   16  C   UNL     1     -10.061   9.809  65.806  1.00  0.00    -0.308 C  
BRANCH  16  17
HETATM   17  C   UNL     1     -10.902  10.573  66.784  1.00  0.00    -0.209 C  
BRANCH  17  18
HETATM   18  C   UNL     1     -10.091  11.321  67.806  1.00  0.00    -0.199 C  
HETATM   19  C   UNL     1     -10.544  11.582  69.046  1.00  0.00    -0.207 C  
BRANCH  19  20
HETATM   20  C   UNL     1     -11.904  11.125  69.503  1.00  0.00    -0.423 C  
BRANCH  20  21
HETATM   21  C   UNL     1     -11.953  10.569  70.920  1.00  0.00    -0.481 C  
HETATM   22  C   UNL     1     -11.645   9.088  70.877  1.00  0.00    -0.290 C  
HETATM   23  O   UNL     1     -12.176   8.407  71.922  1.00  0.00    -0.303 OA 
HETATM   24  O   UNL     1     -10.972   8.536  70.026  1.00  0.00    -0.243 OA 
ENDBRANCH  20  21
ENDBRANCH  19  20
ENDBRANCH  17  18
ENDBRANCH  16  17
ENDBRANCH  14  15
ENDBRANCH  13  14
ENDBRANCH  11  12
ENDBRANCH  10  11
ENDBRANCH   8   9
ENDBRANCH   7   8
ENDBRANCH   5   6
ENDBRANCH   4   5
ENDBRANCH   2   3
TORSDOF 13
ENDMDL
MODEL       65
REMARK 921   NORMALIZED FREE ENERGY PREDICTED BY IDOCK:   -4.83 KCAL/MOL
REMARK 922        TOTAL FREE ENERGY PREDICTED BY IDOCK:  -11.27 KCAL/MOL
REMARK 923 INTER-LIGAND FREE ENERGY PREDICTED BY IDOCK:   -9.04 KCAL/MOL
REMARK 924 INTRA-LIGAND FREE ENERGY PREDICTED BY IDOCK:   -2.23 KCAL/MOL
REMARK 927      BINDING AFFINITY PREDICTED BY RF-SCORE:    0.00 PKD
ROOT
HETATM    1  C   UNL     1      -8.759  17.313  66.345  1.00  0.00    -0.285 C  
HETATM    2  C   UNL     1     -10.047  16.538  66.125  1.00  0.00    -0.365 C  
ENDROOT
BRANCH   2   3
HETATM    3  C   UNL     1      -9.835  15.279  65.333  1.00  0.00    -0.318 C  
HETATM    4  C   UNL     1     -10.725  14.280  65.206  1.00  0.00    -0.377 C  
BRANCH   4   5
HETATM    5  C   UNL     1     -12.053  14.201  65.906  1.00  0.00    -0.441 C  
BRANCH   5   6
HETATM    6  C   UNL     1     -11.962  13.431  67.195  1.00  0.00    -0.415 C  
HETATM    7  C   UNL     1     -11.800  13.955  68.423  1.00  0.00    -0.409 C  
BRANCH   7   8
HETATM    8  C   UNL     1     -11.648  15.420  68.710  1.00  0.00    -0.382 C  
BRANCH   8   9
HETATM    9  C   UNL     1     -11.250  15.689  70.131  1.00  0.00    -0.346 C  
HETATM   10  C   UNL     1     -12.065  15.730  71.198  1.00  0.00    -0.475 C  
BRANCH  10  11
HETATM   11  C   UNL     1     -13.542  15.443  71.221  1.00  0.00    -0.585 C  
BRANCH  11  12
HETATM   12  C   UNL     1     -13.941  14.474  72.300  1.00  0.00    -0.600 C  
HETATM   13  C   UNL     1     -13.670  13.160  72.339  1.00  0.00    -0.640 C  
BRANCH  13  14
HETATM   14  C   UNL     1     -12.976  12.388  71.266  1.00  0.00    -0.297 C  
BRANCH  14  15
HETATM   15  C   UNL     1     -12.896  10.915  71.556  1.00  0.00    -0.560 C  
HETATM   16  C   UNL     1     -12.200  10.051  70.798  1.00  0.00    -0.408 C  
BRANCH  16  17
HETATM   17  C   UNL     1     -11.472  10.432  69.543  1.00  0.00    -0.311 C  
BRANCH  17  18
HETATM   18  C   UNL     1     -10.571   9.344  69.027  1.00  0.00    -0.233 C  
HETATM   19  C   UNL     1     -10.045   9.361  67.789  1.00  0.00    -0.246 C  
BRANCH  19  20
HETATM   20  C   UNL     1     -10.316  10.490  66.830  1.00  0.00    -0.293 C  
BRANCH  20  21
HETATM   21  C   UNL     1      -9.192  10.780  65.843  1.00  0.00    -0.214 C  
HETATM   22  C   UNL     1      -9.754  10.751  64.438  1.00  0.00    -0.301 C  
HETATM   23  O   UNL     1      -8.821  10.452  63.501  1.00  0.00    -0.179 OA 
HETATM   24  O   UNL     1     -10.910  10.995  64.139  1.00  0.00    -0.361 OA 
ENDBRANCH  20  21
ENDBRANCH  19  20
ENDBRANCH  17  18
ENDBRANCH  16  17
ENDBRANCH  14  15
ENDBRANCH  13  14
ENDBRANCH  11  12
ENDBRANCH  10  11
ENDBRANCH   8   9
ENDBRANCH   7   8
ENDBRANCH   5   6
ENDBRANCH   4   5
ENDBRANCH   2   3
TORSDOF 13
ENDMDL
MODEL       66
REMARK 921   NORMALIZED FREE ENERGY PREDICTED BY IDOCK:   -4.82 KCAL/MOL
REMARK 922        TOTAL FREE ENERGY PREDICTED BY IDOCK:  -11.26 KCAL/MOL
REMARK 923 INTER-LIGAND FREE ENERGY PREDICTED BY IDOCK:   -9.02 KCAL/MOL
REMARK 924 INTRA-LIGAND FREE ENERGY PREDICTED BY IDOCK:   -2.24 KCAL/MOL
REMARK 927      BINDING AFFINITY PREDICTED BY RF-SCORE:    0.00 PKD
ROOT
HETATM    1  C   UNL     1     -12.977  14.805  70.933  1.00  0.00    -0.422 C  
HETATM    2  C   UNL     1     -11.987  13.929  70.183  1.00  0.00    -0.402 C  
ENDROOT
BRANCH   2   3
HETATM    3  C   UNL     1     -12.141  12.472  70.513  1.00  0.00    -0.361 C  
HETATM    4  C   UNL     1     -11.873  11.452  69.679  1.00  0.00    -0.431 C  
BRANCH   4   5
HETATM    5  C   UNL     1     -11.463  11.588  68.239  1.00  0.00    -0.368 C  
BRANCH   5   6
HETATM    6  C   UNL     1     -11.089  10.263  67.634  1.00  0.00    -0.319 C  
HETATM    7  C   UNL     1     -10.351  10.075  66.526  1.00  0.00    -0.268 C  
BRANCH   7   8
HETATM    8  C   UNL     1      -9.796  11.180  65.676  1.00  0.00    -0.280 C  
BRANCH   8   9
HETATM    9  C   UNL     1     -10.476  11.276  64.342  1.00  0.00    -0.407 C  
HETATM   10  C   UNL     1     -11.577  11.991  64.054  1.00  0.00    -0.495 C  
BRANCH  10  11
HETATM   11  C   UNL     1     -12.330  12.909  64.979  1.00  0.00    -0.541 C  
BRANCH  11  12
HETATM   12  C   UNL     1     -12.285  14.350  64.550  1.00  0.00    -0.483 C  
HETATM   13  C   UNL     1     -11.383  15.271  64.924  1.00  0.00    -0.387 C  
BRANCH  13  14
HETATM   14  C   UNL     1     -10.283  15.054  65.910  1.00  0.00    -0.335 C  
BRANCH  14  15
HETATM   15  C   UNL     1     -10.608  15.578  67.281  1.00  0.00    -0.299 C  
HETATM   16  C   UNL     1     -10.645  16.888  67.580  1.00  0.00    -0.307 C  
BRANCH  16  17
HETATM   17  C   UNL     1     -10.310  17.981  66.609  1.00  0.00    -0.375 C  
BRANCH  17  18
HETATM   18  C   UNL     1     -10.667  19.352  67.114  1.00  0.00    -0.593 C  
HETATM   19  C   UNL     1      -9.742  20.285  67.401  1.00  0.00    -0.584 C  
BRANCH  19  20
HETATM   20  C   UNL     1      -8.270  20.021  67.223  1.00  0.00    -0.368 C  
BRANCH  20  21
HETATM   21  C   UNL     1      -7.552  19.513  68.467  1.00  0.00    -0.378 C  
HETATM   22  C   UNL     1      -7.067  18.102  68.213  1.00  0.00    -0.247 C  
HETATM   23  O   UNL     1      -6.921  17.380  69.350  1.00  0.00    -0.219 OA 
HETATM   24  O   UNL     1      -6.799  17.639  67.118  1.00  0.00    -0.156 OA 
ENDBRANCH  20  21
ENDBRANCH  19  20
ENDBRANCH  17  18
ENDBRANCH  16  17
ENDBRANCH  14  15
ENDBRANCH  13  14
ENDBRANCH  11  12
ENDBRANCH  10  11
ENDBRANCH   8   9
ENDBRANCH   7   8
ENDBRANCH   5   6
ENDBRANCH   4   5
ENDBRANCH   2   3
TORSDOF 13
ENDMDL
MODEL       67
REMARK 921   NORMALIZED FREE ENERGY PREDICTED BY IDOCK:   -4.82 KCAL/MOL
REMARK 922        TOTAL FREE ENERGY PREDICTED BY IDOCK:  -11.26 KCAL/MOL
REMARK 923 INTER-LIGAND FREE ENERGY PREDICTED BY IDOCK:   -8.64 KCAL/MOL
REMARK 924 INTRA-LIGAND FREE ENERGY PREDICTED BY IDOCK:   -2.61 KCAL/MOL
REMARK 927      BINDING AFFINITY PREDICTED BY RF-SCORE:    0.00 PKD
ROOT
HETATM    1  C   UNL     1     -13.493  15.840  72.941  1.00  0.00    -0.666 C  
HETATM    2  C   UNL     1     -14.165  14.904  71.951  1.00  0.00    -0.640 C  
ENDROOT
BRANCH   2   3
HETATM    3  C   UNL     1     -13.260  13.791  71.504  1.00  0.00    -0.417 C  
HETATM    4  C   UNL     1     -12.369  13.868  70.500  1.00  0.00    -0.439 C  
BRANCH   4   5
HETATM    5  C   UNL     1     -12.184  15.048  69.587  1.00  0.00    -0.293 C  
BRANCH   5   6
HETATM    6  C   UNL     1     -11.190  16.034  70.137  1.00  0.00    -0.376 C  
HETATM    7  C   UNL     1     -10.191  16.619  69.455  1.00  0.00    -0.251 C  
BRANCH   7   8
HETATM    8  C   UNL     1      -9.877  16.354  68.012  1.00  0.00    -0.238 C  
BRANCH   8   9
HETATM    9  C   UNL     1      -9.366  14.962  67.780  1.00  0.00    -0.194 C  
HETATM   10  C   UNL     1      -9.558  14.210  66.683  1.00  0.00    -0.301 C  
BRANCH  10  11
HETATM   11  C   UNL     1     -10.260  14.619  65.416  1.00  0.00    -0.415 C  
BRANCH  11  12
HETATM   12  C   UNL     1     -11.753  14.716  65.570  1.00  0.00    -0.316 C  
HETATM   13  C   UNL     1     -12.648  13.740  65.348  1.00  0.00    -0.534 C  
BRANCH  13  14
HETATM   14  C   UNL     1     -12.331  12.378  64.826  1.00  0.00    -0.497 C  
BRANCH  14  15
HETATM   15  C   UNL     1     -11.495  12.405  63.577  1.00  0.00    -0.561 C  
HETATM   16  C   UNL     1     -10.526  11.509  63.320  1.00  0.00    -0.421 C  
BRANCH  16  17
HETATM   17  C   UNL     1     -10.118  10.418  64.264  1.00  0.00    -0.306 C  
BRANCH  17  18
HETATM   18  C   UNL     1      -9.100  10.861  65.278  1.00  0.00    -0.217 C  
HETATM   19  C   UNL     1      -9.329  10.822  66.603  1.00  0.00    -0.188 C  
BRANCH  19  20
HETATM   20  C   UNL     1     -10.629  10.313  67.167  1.00  0.00    -0.320 C  
BRANCH  20  21
HETATM   21  C   UNL     1     -11.140  11.067  68.389  1.00  0.00    -0.308 C  
HETATM   22  C   UNL     1     -11.092  10.146  69.589  1.00  0.00    -0.263 C  
HETATM   23  O   UNL     1     -11.985  10.484  70.551  1.00  0.00    -0.285 OA 
HETATM   24  O   UNL     1     -10.327   9.208  69.723  1.00  0.00    -0.199 OA 
ENDBRANCH  20  21
ENDBRANCH  19  20
ENDBRANCH  17  18
ENDBRANCH  16  17
ENDBRANCH  14  15
ENDBRANCH  13  14
ENDBRANCH  11  12
ENDBRANCH  10  11
ENDBRANCH   8   9
ENDBRANCH   7   8
ENDBRANCH   5   6
ENDBRANCH   4   5
ENDBRANCH   2   3
TORSDOF 13
ENDMDL
MODEL       68
REMARK 921   NORMALIZED FREE ENERGY PREDICTED BY IDOCK:   -4.82 KCAL/MOL
REMARK 922        TOTAL FREE ENERGY PREDICTED BY IDOCK:  -11.25 KCAL/MOL
REMARK 923 INTER-LIGAND FREE ENERGY PREDICTED BY IDOCK:   -9.27 KCAL/MOL
REMARK 924 INTRA-LIGAND FREE ENERGY PREDICTED BY IDOCK:   -1.99 KCAL/MOL
REMARK 927      BINDING AFFINITY PREDICTED BY RF-SCORE:    0.00 PKD
ROOT
HETATM    1  C   UNL     1      -7.029  17.780  67.365  1.00  0.00    -0.197 C  
HETATM    2  C   UNL     1      -7.510  18.577  66.165  1.00  0.00    -0.282 C  
ENDROOT
BRANCH   2   3
HETATM    3  C   UNL     1      -8.301  19.793  66.559  1.00  0.00    -0.373 C  
HETATM    4  C   UNL     1      -9.590  19.792  66.939  1.00  0.00    -0.494 C  
BRANCH   4   5
HETATM    5  C   UNL     1     -10.497  18.593  66.947  1.00  0.00    -0.449 C  
BRANCH   5   6
HETATM    6  C   UNL     1     -10.563  17.949  68.305  1.00  0.00    -0.314 C  
HETATM    7  C   UNL     1     -10.714  16.636  68.554  1.00  0.00    -0.351 C  
BRANCH   7   8
HETATM    8  C   UNL     1     -10.878  15.583  67.499  1.00  0.00    -0.306 C  
BRANCH   8   9
HETATM    9  C   UNL     1     -11.856  14.517  67.897  1.00  0.00    -0.370 C  
HETATM   10  C   UNL     1     -11.724  13.194  67.701  1.00  0.00    -0.414 C  
BRANCH  10  11
HETATM   11  C   UNL     1     -10.538  12.480  67.110  1.00  0.00    -0.247 C  
BRANCH  11  12
HETATM   12  C   UNL     1     -10.761  11.002  66.938  1.00  0.00    -0.325 C  
HETATM   13  C   UNL     1     -10.465  10.037  67.823  1.00  0.00    -0.282 C  
BRANCH  13  14
HETATM   14  C   UNL     1      -9.779  10.246  69.132  1.00  0.00    -0.229 C  
BRANCH  14  15
HETATM   15  C   UNL     1     -10.369   9.424  70.244  1.00  0.00    -0.293 C  
HETATM   16  C   UNL     1     -11.455   9.800  70.943  1.00  0.00    -0.447 C  
BRANCH  16  17
HETATM   17  C   UNL     1     -12.171  11.103  70.746  1.00  0.00    -0.484 C  
BRANCH  17  18
HETATM   18  C   UNL     1     -13.118  11.434  71.866  1.00  0.00    -0.505 C  
HETATM   19  C   UNL     1     -13.558  12.684  72.101  1.00  0.00    -0.510 C  
BRANCH  19  20
HETATM   20  C   UNL     1     -13.139  13.845  71.240  1.00  0.00    -0.385 C  
BRANCH  20  21
HETATM   21  C   UNL     1     -13.570  15.214  71.751  1.00  0.00    -0.553 C  
HETATM   22  C   UNL     1     -12.681  15.606  72.912  1.00  0.00    -0.453 C  
HETATM   23  O   UNL     1     -13.275  16.480  73.761  1.00  0.00    -0.602 OA 
HETATM   24  O   UNL     1     -11.539  15.220  73.083  1.00  0.00    -0.402 OA 
ENDBRANCH  20  21
ENDBRANCH  19  20
ENDBRANCH  17  18
ENDBRANCH  16  17
ENDBRANCH  14  15
ENDBRANCH  13  14
ENDBRANCH  11  12
ENDBRANCH  10  11
ENDBRANCH   8   9
ENDBRANCH   7   8
ENDBRANCH   5   6
ENDBRANCH   4   5
ENDBRANCH   2   3
TORSDOF 13
ENDMDL
MODEL       69
REMARK 921   NORMALIZED FREE ENERGY PREDICTED BY IDOCK:   -4.82 KCAL/MOL
REMARK 922        TOTAL FREE ENERGY PREDICTED BY IDOCK:  -11.25 KCAL/MOL
REMARK 923 INTER-LIGAND FREE ENERGY PREDICTED BY IDOCK:   -8.12 KCAL/MOL
REMARK 924 INTRA-LIGAND FREE ENERGY PREDICTED BY IDOCK:   -3.14 KCAL/MOL
REMARK 927      BINDING AFFINITY PREDICTED BY RF-SCORE:    0.00 PKD
ROOT
HETATM    1  C   UNL     1     -12.603  11.916  63.365  1.00  0.00    -0.555 C  
HETATM    2  C   UNL     1     -11.250  12.600  63.471  1.00  0.00    -0.489 C  
ENDROOT
BRANCH   2   3
HETATM    3  C   UNL     1     -10.105  11.648  63.271  1.00  0.00    -0.454 C  
HETATM    4  C   UNL     1      -9.654  10.770  64.183  1.00  0.00    -0.333 C  
BRANCH   4   5
HETATM    5  C   UNL     1     -10.152  10.647  65.596  1.00  0.00    -0.335 C  
BRANCH   5   6
HETATM    6  C   UNL     1      -9.069  10.937  66.599  1.00  0.00    -0.175 C  
HETATM    7  C   UNL     1      -8.989  10.441  67.846  1.00  0.00    -0.128 C  
BRANCH   7   8
HETATM    8  C   UNL     1     -10.003   9.524  68.465  1.00  0.00    -0.184 C  
BRANCH   8   9
HETATM    9  C   UNL     1      -9.918   9.498  69.962  1.00  0.00    -0.274 C  
HETATM   10  C   UNL     1     -10.873   9.881  70.826  1.00  0.00    -0.387 C  
BRANCH  10  11
HETATM   11  C   UNL     1     -12.264  10.349  70.491  1.00  0.00    -0.412 C  
BRANCH  11  12
HETATM   12  C   UNL     1     -12.549  11.748  70.964  1.00  0.00    -0.409 C  
HETATM   13  C   UNL     1     -12.183  12.890  70.360  1.00  0.00    -0.381 C  
BRANCH  13  14
HETATM   14  C   UNL     1     -11.348  12.986  69.127  1.00  0.00    -0.328 C  
BRANCH  14  15
HETATM   15  C   UNL     1     -12.137  12.789  67.863  1.00  0.00    -0.187 C  
HETATM   16  C   UNL     1     -12.024  13.592  66.790  1.00  0.00    -0.458 C  
BRANCH  16  17
HETATM   17  C   UNL     1     -11.152  14.810  66.741  1.00  0.00    -0.338 C  
BRANCH  17  18
HETATM   18  C   UNL     1      -9.775  14.532  66.204  1.00  0.00    -0.340 C  
HETATM   19  C   UNL     1      -8.718  15.323  66.466  1.00  0.00    -0.314 C  
BRANCH  19  20
HETATM   20  C   UNL     1      -8.843  16.546  67.336  1.00  0.00    -0.201 C  
BRANCH  20  21
HETATM   21  C   UNL     1      -9.010  17.859  66.580  1.00  0.00    -0.278 C  
HETATM   22  C   UNL     1     -10.159  18.633  67.188  1.00  0.00    -0.359 C  
HETATM   23  O   UNL     1     -10.737  19.494  66.316  1.00  0.00    -0.453 OA 
HETATM   24  O   UNL     1     -10.535  18.539  68.343  1.00  0.00    -0.345 OA 
ENDBRANCH  20  21
ENDBRANCH  19  20
ENDBRANCH  17  18
ENDBRANCH  16  17
ENDBRANCH  14  15
ENDBRANCH  13  14
ENDBRANCH  11  12
ENDBRANCH  10  11
ENDBRANCH   8   9
ENDBRANCH   7   8
ENDBRANCH   5   6
ENDBRANCH   4   5
ENDBRANCH   2   3
TORSDOF 13
ENDMDL
MODEL       70
REMARK 921   NORMALIZED FREE ENERGY PREDICTED BY IDOCK:   -4.80 KCAL/MOL
REMARK 922        TOTAL FREE ENERGY PREDICTED BY IDOCK:  -11.23 KCAL/MOL
REMARK 923 INTER-LIGAND FREE ENERGY PREDICTED BY IDOCK:   -8.92 KCAL/MOL
REMARK 924 INTRA-LIGAND FREE ENERGY PREDICTED BY IDOCK:   -2.31 KCAL/MOL
REMARK 927      BINDING AFFINITY PREDICTED BY RF-SCORE:    0.00 PKD
ROOT
HETATM    1  C   UNL     1     -11.932  12.614  63.387  1.00  0.00    -0.613 C  
HETATM    2  C   UNL     1     -11.056  12.403  64.610  1.00  0.00    -0.348 C  
ENDROOT
BRANCH   2   3
HETATM    3  C   UNL     1     -11.854  12.292  65.879  1.00  0.00    -0.420 C  
HETATM    4  C   UNL     1     -11.459  11.655  66.994  1.00  0.00    -0.336 C  
BRANCH   4   5
HETATM    5  C   UNL     1     -10.191  10.862  67.142  1.00  0.00    -0.249 C  
BRANCH   5   6
HETATM    6  C   UNL     1     -10.464   9.426  67.498  1.00  0.00    -0.343 C  
HETATM    7  C   UNL     1     -10.452   8.898  68.735  1.00  0.00    -0.223 C  
BRANCH   7   8
HETATM    8  C   UNL     1     -10.124   9.663  69.983  1.00  0.00    -0.293 C  
BRANCH   8   9
HETATM    9  C   UNL     1     -10.652   8.998  71.221  1.00  0.00    -0.378 C  
HETATM   10  C   UNL     1     -11.877   9.150  71.752  1.00  0.00    -0.453 C  
BRANCH  10  11
HETATM   11  C   UNL     1     -13.015   9.957  71.188  1.00  0.00    -0.456 C  
BRANCH  11  12
HETATM   12  C   UNL     1     -13.277  11.227  71.950  1.00  0.00    -0.491 C  
HETATM   13  C   UNL     1     -12.864  12.461  71.619  1.00  0.00    -0.375 C  
BRANCH  13  14
HETATM   14  C   UNL     1     -11.994  12.798  70.455  1.00  0.00    -0.331 C  
BRANCH  14  15
HETATM   15  C   UNL     1     -12.436  14.037  69.727  1.00  0.00    -0.255 C  
HETATM   16  C   UNL     1     -11.602  14.803  69.002  1.00  0.00    -0.324 C  
BRANCH  16  17
HETATM   17  C   UNL     1     -10.128  14.558  68.879  1.00  0.00    -0.224 C  
BRANCH  17  18
HETATM   18  C   UNL     1      -9.292  15.665  69.458  1.00  0.00    -0.263 C  
HETATM   19  C   UNL     1      -8.686  16.593  68.696  1.00  0.00    -0.250 C  
BRANCH  19  20
HETATM   20  C   UNL     1      -8.817  16.594  67.196  1.00  0.00    -0.209 C  
BRANCH  20  21
HETATM   21  C   UNL     1     -10.120  17.178  66.664  1.00  0.00    -0.306 C  
HETATM   22  C   UNL     1     -10.490  16.464  65.382  1.00  0.00    -0.311 C  
HETATM   23  O   UNL     1     -11.267  17.215  64.564  1.00  0.00    -1.104 OA 
HETATM   24  O   UNL     1     -10.167  15.325  65.094  1.00  0.00    -0.368 OA 
ENDBRANCH  20  21
ENDBRANCH  19  20
ENDBRANCH  17  18
ENDBRANCH  16  17
ENDBRANCH  14  15
ENDBRANCH  13  14
ENDBRANCH  11  12
ENDBRANCH  10  11
ENDBRANCH   8   9
ENDBRANCH   7   8
ENDBRANCH   5   6
ENDBRANCH   4   5
ENDBRANCH   2   3
TORSDOF 13
ENDMDL
MODEL       71
REMARK 921   NORMALIZED FREE ENERGY PREDICTED BY IDOCK:   -4.80 KCAL/MOL
REMARK 922        TOTAL FREE ENERGY PREDICTED BY IDOCK:  -11.23 KCAL/MOL
REMARK 923 INTER-LIGAND FREE ENERGY PREDICTED BY IDOCK:   -8.18 KCAL/MOL
REMARK 924 INTRA-LIGAND FREE ENERGY PREDICTED BY IDOCK:   -3.05 KCAL/MOL
REMARK 927      BINDING AFFINITY PREDICTED BY RF-SCORE:    0.00 PKD
ROOT
HETATM    1  C   UNL     1     -11.750  11.031  69.915  1.00  0.00    -0.424 C  
HETATM    2  C   UNL     1     -12.361  12.324  70.429  1.00  0.00    -0.309 C  
ENDROOT
BRANCH   2   3
HETATM    3  C   UNL     1     -13.098  12.138  71.725  1.00  0.00    -0.457 C  
HETATM    4  C   UNL     1     -13.775  13.096  72.380  1.00  0.00    -0.640 C  
BRANCH   4   5
HETATM    5  C   UNL     1     -13.840  14.544  71.984  1.00  0.00    -0.561 C  
BRANCH   5   6
HETATM    6  C   UNL     1     -12.697  15.336  72.559  1.00  0.00    -0.449 C  
HETATM    7  C   UNL     1     -11.777  16.024  71.861  1.00  0.00    -0.594 C  
BRANCH   7   8
HETATM    8  C   UNL     1     -11.720  16.092  70.363  1.00  0.00    -0.326 C  
BRANCH   8   9
HETATM    9  C   UNL     1     -10.550  15.340  69.798  1.00  0.00    -0.293 C  
HETATM   10  C   UNL     1     -10.452  14.825  68.561  1.00  0.00    -0.249 C  
BRANCH  10  11
HETATM   11  C   UNL     1     -11.454  14.948  67.445  1.00  0.00    -0.354 C  
BRANCH  11  12
HETATM   12  C   UNL     1     -12.094  13.638  67.075  1.00  0.00    -0.423 C  
HETATM   13  C   UNL     1     -11.660  12.766  66.152  1.00  0.00    -0.431 C  
BRANCH  13  14
HETATM   14  C   UNL     1     -10.485  12.969  65.255  1.00  0.00    -0.318 C  
BRANCH  14  15
HETATM   15  C   UNL     1     -10.628  12.273  63.929  1.00  0.00    -0.462 C  
HETATM   16  C   UNL     1     -10.074  11.078  63.661  1.00  0.00    -0.428 C  
BRANCH  16  17
HETATM   17  C   UNL     1      -9.201  10.322  64.617  1.00  0.00    -0.290 C  
BRANCH  17  18
HETATM   18  C   UNL     1      -9.974   9.625  65.703  1.00  0.00    -0.321 C  
HETATM   19  C   UNL     1      -9.585   9.630  66.990  1.00  0.00    -0.221 C  
BRANCH  19  20
HETATM   20  C   UNL     1      -8.343  10.353  67.439  1.00  0.00    -0.121 C  
BRANCH  20  21
HETATM   21  C   UNL     1      -8.579  11.748  68.005  1.00  0.00    -0.158 C  
HETATM   22  C   UNL     1      -7.298  12.546  67.894  1.00  0.00    -0.115 C  
HETATM   23  O   UNL     1      -7.214  13.541  68.810  1.00  0.00    -0.101 OA 
HETATM   24  O   UNL     1      -6.426  12.361  67.064  1.00  0.00    -0.132 OA 
ENDBRANCH  20  21
ENDBRANCH  19  20
ENDBRANCH  17  18
ENDBRANCH  16  17
ENDBRANCH  14  15
ENDBRANCH  13  14
ENDBRANCH  11  12
ENDBRANCH  10  11
ENDBRANCH   8   9
ENDBRANCH   7   8
ENDBRANCH   5   6
ENDBRANCH   4   5
ENDBRANCH   2   3
TORSDOF 13
ENDMDL
MODEL       72
REMARK 921   NORMALIZED FREE ENERGY PREDICTED BY IDOCK:   -4.80 KCAL/MOL
REMARK 922        TOTAL FREE ENERGY PREDICTED BY IDOCK:  -11.22 KCAL/MOL
REMARK 923 INTER-LIGAND FREE ENERGY PREDICTED BY IDOCK:   -8.40 KCAL/MOL
REMARK 924 INTRA-LIGAND FREE ENERGY PREDICTED BY IDOCK:   -2.82 KCAL/MOL
REMARK 927      BINDING AFFINITY PREDICTED BY RF-SCORE:    0.00 PKD
ROOT
HETATM    1  C   UNL     1      -9.693   3.290  70.355  1.00  0.00    -0.125 C  
HETATM    2  C   UNL     1      -9.775   4.784  70.623  1.00  0.00    -0.271 C  
ENDROOT
BRANCH   2   3
HETATM    3  C   UNL     1     -10.359   5.546  69.467  1.00  0.00    -0.357 C  
HETATM    4  C   UNL     1     -11.232   6.563  69.567  1.00  0.00    -0.434 C  
BRANCH   4   5
HETATM    5  C   UNL     1     -11.851   7.059  70.843  1.00  0.00    -0.401 C  
BRANCH   5   6
HETATM    6  C   UNL     1     -10.966   8.049  71.549  1.00  0.00    -0.279 C  
HETATM    7  C   UNL     1     -11.183   9.372  71.659  1.00  0.00    -0.431 C  
BRANCH   7   8
HETATM    8  C   UNL     1     -12.352  10.095  71.057  1.00  0.00    -0.474 C  
BRANCH   8   9
HETATM    9  C   UNL     1     -11.955  11.390  70.410  1.00  0.00    -0.465 C  
HETATM   10  C   UNL     1     -11.564  11.562  69.136  1.00  0.00    -0.382 C  
BRANCH  10  11
HETATM   11  C   UNL     1     -11.508  10.516  68.055  1.00  0.00    -0.230 C  
BRANCH  11  12
HETATM   12  C   UNL     1     -10.208   9.761  68.028  1.00  0.00    -0.229 C  
HETATM   13  C   UNL     1      -9.179   9.964  67.190  1.00  0.00    -0.158 C  
BRANCH  13  14
HETATM   14  C   UNL     1      -9.162  10.943  66.064  1.00  0.00    -0.210 C  
BRANCH  14  15
HETATM   15  C   UNL     1      -9.846  10.431  64.827  1.00  0.00    -0.406 C  
HETATM   16  C   UNL     1     -10.630  11.196  64.047  1.00  0.00    -0.436 C  
BRANCH  16  17
HETATM   17  C   UNL     1     -10.969  12.626  64.344  1.00  0.00    -0.386 C  
BRANCH  17  18
HETATM   18  C   UNL     1     -12.303  12.792  65.017  1.00  0.00    -0.559 C  
HETATM   19  C   UNL     1     -12.487  13.598  66.079  1.00  0.00    -0.477 C  
BRANCH  19  20
HETATM   20  C   UNL     1     -11.360  14.408  66.661  1.00  0.00    -0.359 C  
BRANCH  20  21
HETATM   21  C   UNL     1     -11.661  15.054  68.008  1.00  0.00    -0.356 C  
HETATM   22  C   UNL     1     -10.868  16.338  68.125  1.00  0.00    -0.342 C  
HETATM   23  O   UNL     1     -10.623  16.693  69.409  1.00  0.00    -0.312 OA 
HETATM   24  O   UNL     1     -10.496  17.021  67.187  1.00  0.00    -0.317 OA 
ENDBRANCH  20  21
ENDBRANCH  19  20
ENDBRANCH  17  18
ENDBRANCH  16  17
ENDBRANCH  14  15
ENDBRANCH  13  14
ENDBRANCH  11  12
ENDBRANCH  10  11
ENDBRANCH   8   9
ENDBRANCH   7   8
ENDBRANCH   5   6
ENDBRANCH   4   5
ENDBRANCH   2   3
TORSDOF 13
ENDMDL
MODEL       73
REMARK 921   NORMALIZED FREE ENERGY PREDICTED BY IDOCK:   -4.79 KCAL/MOL
REMARK 922        TOTAL FREE ENERGY PREDICTED BY IDOCK:  -11.21 KCAL/MOL
REMARK 923 INTER-LIGAND FREE ENERGY PREDICTED BY IDOCK:   -8.57 KCAL/MOL
REMARK 924 INTRA-LIGAND FREE ENERGY PREDICTED BY IDOCK:   -2.64 KCAL/MOL
REMARK 927      BINDING AFFINITY PREDICTED BY RF-SCORE:    0.00 PKD
ROOT
HETATM    1  C   UNL     1      -9.104   8.571  71.876  1.00  0.00    -0.314 C  
HETATM    2  C   UNL     1      -9.449   7.320  71.085  1.00  0.00    -0.156 C  
ENDROOT
BRANCH   2   3
HETATM    3  C   UNL     1     -10.267   6.342  71.881  1.00  0.00    -0.219 C  
HETATM    4  C   UNL     1     -11.588   6.139  71.742  1.00  0.00    -0.333 C  
BRANCH   4   5
HETATM    5  C   UNL     1     -12.500   6.916  70.834  1.00  0.00    -0.314 C  
BRANCH   5   6
HETATM    6  C   UNL     1     -13.592   7.613  71.598  1.00  0.00    -0.431 C  
HETATM    7  C   UNL     1     -13.572   8.886  72.028  1.00  0.00    -0.489 C  
BRANCH   7   8
HETATM    8  C   UNL     1     -12.421   9.830  71.841  1.00  0.00    -0.451 C  
BRANCH   8   9
HETATM    9  C   UNL     1     -12.758  10.975  70.932  1.00  0.00    -0.452 C  
HETATM   10  C   UNL     1     -12.015  11.432  69.910  1.00  0.00    -0.434 C  
BRANCH  10  11
HETATM   11  C   UNL     1     -10.721  10.856  69.401  1.00  0.00    -0.265 C  
BRANCH  11  12
HETATM   12  C   UNL     1     -10.906   9.583  68.620  1.00  0.00    -0.177 C  
HETATM   13  C   UNL     1     -10.599   9.383  67.329  1.00  0.00    -0.314 C  
BRANCH  13  14
HETATM   14  C   UNL     1     -10.079  10.422  66.392  1.00  0.00    -0.287 C  
BRANCH  14  15
HETATM   15  C   UNL     1      -9.604   9.852  65.084  1.00  0.00    -0.367 C  
HETATM   16  C   UNL     1      -9.674  10.521  63.920  1.00  0.00    -0.384 C  
BRANCH  16  17
HETATM   17  C   UNL     1     -10.286  11.881  63.768  1.00  0.00    -0.442 C  
BRANCH  17  18
HETATM   18  C   UNL     1     -11.787  11.851  63.688  1.00  0.00    -0.573 C  
HETATM   19  C   UNL     1     -12.566  12.770  64.286  1.00  0.00    -0.405 C  
BRANCH  19  20
HETATM   20  C   UNL     1     -11.981  13.911  65.074  1.00  0.00    -0.403 C  
BRANCH  20  21
HETATM   21  C   UNL     1     -12.058  13.755  66.588  1.00  0.00    -0.471 C  
HETATM   22  C   UNL     1     -11.131  14.761  67.234  1.00  0.00    -0.332 C  
HETATM   23  O   UNL     1     -10.706  14.377  68.462  1.00  0.00    -0.239 OA 
HETATM   24  O   UNL     1     -10.801  15.827  66.744  1.00  0.00    -0.316 OA 
ENDBRANCH  20  21
ENDBRANCH  19  20
ENDBRANCH  17  18
ENDBRANCH  16  17
ENDBRANCH  14  15
ENDBRANCH  13  14
ENDBRANCH  11  12
ENDBRANCH  10  11
ENDBRANCH   8   9
ENDBRANCH   7   8
ENDBRANCH   5   6
ENDBRANCH   4   5
ENDBRANCH   2   3
TORSDOF 13
ENDMDL
MODEL       74
REMARK 921   NORMALIZED FREE ENERGY PREDICTED BY IDOCK:   -4.79 KCAL/MOL
REMARK 922        TOTAL FREE ENERGY PREDICTED BY IDOCK:  -11.21 KCAL/MOL
REMARK 923 INTER-LIGAND FREE ENERGY PREDICTED BY IDOCK:   -8.72 KCAL/MOL
REMARK 924 INTRA-LIGAND FREE ENERGY PREDICTED BY IDOCK:   -2.49 KCAL/MOL
REMARK 927      BINDING AFFINITY PREDICTED BY RF-SCORE:    0.00 PKD
ROOT
HETATM    1  C   UNL     1     -10.063  18.729  68.251  1.00  0.00    -0.431 C  
HETATM    2  C   UNL     1      -9.883  17.378  68.923  1.00  0.00    -0.286 C  
ENDROOT
BRANCH   2   3
HETATM    3  C   UNL     1     -10.536  16.262  68.158  1.00  0.00    -0.307 C  
HETATM    4  C   UNL     1     -11.152  15.200  68.705  1.00  0.00    -0.272 C  
BRANCH   4   5
HETATM    5  C   UNL     1     -11.216  14.890  70.174  1.00  0.00    -0.275 C  
BRANCH   5   6
HETATM    6  C   UNL     1     -12.304  15.667  70.865  1.00  0.00    -0.479 C  
HETATM    7  C   UNL     1     -12.933  15.316  72.000  1.00  0.00    -0.455 C  
BRANCH   7   8
HETATM    8  C   UNL     1     -12.670  14.051  72.762  1.00  0.00    -0.307 C  
BRANCH   8   9
HETATM    9  C   UNL     1     -13.697  12.991  72.489  1.00  0.00    -0.501 C  
HETATM   10  C   UNL     1     -13.532  11.890  71.736  1.00  0.00    -0.185 C  
BRANCH  10  11
HETATM   11  C   UNL     1     -12.266  11.436  71.061  1.00  0.00    -0.391 C  
BRANCH  11  12
HETATM   12  C   UNL     1     -12.229  11.756  69.591  1.00  0.00    -0.248 C  
HETATM   13  C   UNL     1     -11.347  11.293  68.691  1.00  0.00    -0.336 C  
BRANCH  13  14
HETATM   14  C   UNL     1     -10.176  10.420  68.997  1.00  0.00    -0.233 C  
BRANCH  14  15
HETATM   15  C   UNL     1     -10.190   9.126  68.233  1.00  0.00    -0.242 C  
HETATM   16  C   UNL     1      -9.692   8.998  66.991  1.00  0.00    -0.247 C  
BRANCH  16  17
HETATM   17  C   UNL     1      -9.121  10.132  66.194  1.00  0.00    -0.184 C  
BRANCH  17  18
HETATM   18  C   UNL     1      -9.881  10.407  64.926  1.00  0.00    -0.400 C  
HETATM   19  C   UNL     1     -10.460  11.594  64.667  1.00  0.00    -0.354 C  
BRANCH  19  20
HETATM   20  C   UNL     1     -10.373  12.744  65.634  1.00  0.00    -0.296 C  
BRANCH  20  21
HETATM   21  C   UNL     1     -10.691  14.110  65.040  1.00  0.00    -0.429 C  
HETATM   22  C   UNL     1     -12.191  14.242  64.886  1.00  0.00    -0.440 C  
HETATM   23  O   UNL     1     -12.548  15.116  63.914  1.00  0.00    -0.794 OA 
HETATM   24  O   UNL     1     -13.019  13.661  65.564  1.00  0.00    -0.625 OA 
ENDBRANCH  20  21
ENDBRANCH  19  20
ENDBRANCH  17  18
ENDBRANCH  16  17
ENDBRANCH  14  15
ENDBRANCH  13  14
ENDBRANCH  11  12
ENDBRANCH  10  11
ENDBRANCH   8   9
ENDBRANCH   7   8
ENDBRANCH   5   6
ENDBRANCH   4   5
ENDBRANCH   2   3
TORSDOF 13
ENDMDL
MODEL       75
REMARK 921   NORMALIZED FREE ENERGY PREDICTED BY IDOCK:   -4.79 KCAL/MOL
REMARK 922        TOTAL FREE ENERGY PREDICTED BY IDOCK:  -11.21 KCAL/MOL
REMARK 923 INTER-LIGAND FREE ENERGY PREDICTED BY IDOCK:   -8.78 KCAL/MOL
REMARK 924 INTRA-LIGAND FREE ENERGY PREDICTED BY IDOCK:   -2.43 KCAL/MOL
REMARK 927      BINDING AFFINITY PREDICTED BY RF-SCORE:    0.00 PKD
ROOT
HETATM    1  C   UNL     1      -8.593   9.714  69.370  1.00  0.00    -0.160 C  
HETATM    2  C   UNL     1      -9.453  10.657  68.544  1.00  0.00    -0.176 C  
ENDROOT
BRANCH   2   3
HETATM    3  C   UNL     1     -10.385   9.927  67.619  1.00  0.00    -0.275 C  
HETATM    4  C   UNL     1     -10.147   9.665  66.322  1.00  0.00    -0.322 C  
BRANCH   4   5
HETATM    5  C   UNL     1      -8.952  10.136  65.542  1.00  0.00    -0.202 C  
BRANCH   5   6
HETATM    6  C   UNL     1      -9.056   9.778  64.085  1.00  0.00    -0.289 C  
HETATM    7  C   UNL     1      -9.574  10.549  63.113  1.00  0.00    -0.375 C  
BRANCH   7   8
HETATM    8  C   UNL     1     -10.174  11.907  63.332  1.00  0.00    -0.478 C  
BRANCH   8   9
HETATM    9  C   UNL     1     -11.646  11.847  63.613  1.00  0.00    -0.559 C  
HETATM   10  C   UNL     1     -12.398  12.818  64.158  1.00  0.00    -0.485 C  
BRANCH  10  11
HETATM   11  C   UNL     1     -11.952  14.204  64.537  1.00  0.00    -0.476 C  
BRANCH  11  12
HETATM   12  C   UNL     1     -10.726  14.215  65.408  1.00  0.00    -0.350 C  
HETATM   13  C   UNL     1     -10.648  13.824  66.689  1.00  0.00    -0.274 C  
BRANCH  13  14
HETATM   14  C   UNL     1     -11.798  13.367  67.525  1.00  0.00    -0.408 C  
BRANCH  14  15
HETATM   15  C   UNL     1     -11.965  14.169  68.786  1.00  0.00    -0.367 C  
HETATM   16  C   UNL     1     -12.058  13.612  70.006  1.00  0.00    -0.417 C  
BRANCH  16  17
HETATM   17  C   UNL     1     -12.069  12.134  70.257  1.00  0.00    -0.385 C  
BRANCH  17  18
HETATM   18  C   UNL     1     -12.940  11.735  71.416  1.00  0.00    -0.408 C  
HETATM   19  C   UNL     1     -13.065  10.461  71.828  1.00  0.00    -0.567 C  
BRANCH  19  20
HETATM   20  C   UNL     1     -12.323   9.336  71.156  1.00  0.00    -0.363 C  
BRANCH  20  21
HETATM   21  C   UNL     1     -11.059   8.880  71.874  1.00  0.00    -0.442 C  
HETATM   22  C   UNL     1     -11.298   7.506  72.463  1.00  0.00    -0.334 C  
HETATM   23  O   UNL     1     -10.508   7.245  73.533  1.00  0.00    -0.349 OA 
HETATM   24  O   UNL     1     -12.088   6.686  72.032  1.00  0.00    -0.321 OA 
ENDBRANCH  20  21
ENDBRANCH  19  20
ENDBRANCH  17  18
ENDBRANCH  16  17
ENDBRANCH  14  15
ENDBRANCH  13  14
ENDBRANCH  11  12
ENDBRANCH  10  11
ENDBRANCH   8   9
ENDBRANCH   7   8
ENDBRANCH   5   6
ENDBRANCH   4   5
ENDBRANCH   2   3
TORSDOF 13
ENDMDL
MODEL       76
REMARK 921   NORMALIZED FREE ENERGY PREDICTED BY IDOCK:   -4.78 KCAL/MOL
REMARK 922        TOTAL FREE ENERGY PREDICTED BY IDOCK:  -11.20 KCAL/MOL
REMARK 923 INTER-LIGAND FREE ENERGY PREDICTED BY IDOCK:   -8.25 KCAL/MOL
REMARK 924 INTRA-LIGAND FREE ENERGY PREDICTED BY IDOCK:   -2.95 KCAL/MOL
REMARK 927      BINDING AFFINITY PREDICTED BY RF-SCORE:    0.00 PKD
ROOT
HETATM    1  C   UNL     1     -10.650  14.992  66.879  1.00  0.00    -0.297 C  
HETATM    2  C   UNL     1     -11.879  14.580  67.672  1.00  0.00    -0.395 C  
ENDROOT
BRANCH   2   3
HETATM    3  C   UNL     1     -11.875  15.133  69.070  1.00  0.00    -0.331 C  
HETATM    4  C   UNL     1     -12.006  14.407  70.194  1.00  0.00    -0.386 C  
BRANCH   4   5
HETATM    5  C   UNL     1     -12.271  12.929  70.252  1.00  0.00    -0.362 C  
BRANCH   5   6
HETATM    6  C   UNL     1     -12.882  12.519  71.564  1.00  0.00    -0.367 C  
HETATM    7  C   UNL     1     -13.180  11.265  71.944  1.00  0.00    -0.491 C  
BRANCH   7   8
HETATM    8  C   UNL     1     -12.976  10.046  71.093  1.00  0.00    -0.478 C  
BRANCH   8   9
HETATM    9  C   UNL     1     -13.907   8.927  71.458  1.00  0.00    -0.388 C  
HETATM   10  C   UNL     1     -13.602   7.620  71.521  1.00  0.00    -0.422 C  
BRANCH  10  11
HETATM   11  C   UNL     1     -12.249   6.994  71.315  1.00  0.00    -0.419 C  
BRANCH  11  12
HETATM   12  C   UNL     1     -11.445   6.889  72.581  1.00  0.00    -0.235 C  
HETATM   13  C   UNL     1     -10.391   7.645  72.927  1.00  0.00    -0.380 C  
BRANCH  13  14
HETATM   14  C   UNL     1      -9.763   8.697  72.074  1.00  0.00    -0.391 C  
BRANCH  14  15
HETATM   15  C   UNL     1      -8.848   8.135  71.022  1.00  0.00    -0.163 C  
HETATM   16  C   UNL     1      -8.976   8.408  69.712  1.00  0.00    -0.146 C  
BRANCH  16  17
HETATM   17  C   UNL     1     -10.073   9.250  69.132  1.00  0.00    -0.204 C  
BRANCH  17  18
HETATM   18  C   UNL     1      -9.732  10.713  69.076  1.00  0.00    -0.214 C  
HETATM   19  C   UNL     1     -10.043  11.493  68.024  1.00  0.00    -0.197 C  
BRANCH  19  20
HETATM   20  C   UNL     1     -10.774  10.950  66.825  1.00  0.00    -0.309 C  
BRANCH  20  21
HETATM   21  C   UNL     1     -10.316  11.509  65.484  1.00  0.00    -0.322 C  
HETATM   22  C   UNL     1     -11.527  11.987  64.712  1.00  0.00    -0.298 C  
HETATM   23  O   UNL     1     -11.334  11.985  63.371  1.00  0.00    -0.415 OA 
HETATM   24  O   UNL     1     -12.571  12.369  65.211  1.00  0.00    -0.636 OA 
ENDBRANCH  20  21
ENDBRANCH  19  20
ENDBRANCH  17  18
ENDBRANCH  16  17
ENDBRANCH  14  15
ENDBRANCH  13  14
ENDBRANCH  11  12
ENDBRANCH  10  11
ENDBRANCH   8   9
ENDBRANCH   7   8
ENDBRANCH   5   6
ENDBRANCH   4   5
ENDBRANCH   2   3
TORSDOF 13
ENDMDL
MODEL       77
REMARK 921   NORMALIZED FREE ENERGY PREDICTED BY IDOCK:   -4.78 KCAL/MOL
REMARK 922        TOTAL FREE ENERGY PREDICTED BY IDOCK:  -11.19 KCAL/MOL
REMARK 923 INTER-LIGAND FREE ENERGY PREDICTED BY IDOCK:   -9.08 KCAL/MOL
REMARK 924 INTRA-LIGAND FREE ENERGY PREDICTED BY IDOCK:   -2.12 KCAL/MOL
REMARK 927      BINDING AFFINITY PREDICTED BY RF-SCORE:    0.00 PKD
ROOT
HETATM    1  C   UNL     1      -9.294   5.666  72.106  1.00  0.00    -0.160 C  
HETATM    2  C   UNL     1     -10.790   5.871  71.942  1.00  0.00    -0.307 C  
ENDROOT
BRANCH   2   3
HETATM    3  C   UNL     1     -11.133   6.647  70.702  1.00  0.00    -0.349 C  
HETATM    4  C   UNL     1     -11.356   7.972  70.649  1.00  0.00    -0.256 C  
BRANCH   4   5
HETATM    5  C   UNL     1     -11.394   8.897  71.833  1.00  0.00    -0.446 C  
BRANCH   5   6
HETATM    6  C   UNL     1     -12.803   9.199  72.264  1.00  0.00    -0.472 C  
HETATM    7  C   UNL     1     -13.443  10.374  72.124  1.00  0.00    -0.301 C  
BRANCH   7   8
HETATM    8  C   UNL     1     -12.832  11.610  71.532  1.00  0.00    -0.469 C  
BRANCH   8   9
HETATM    9  C   UNL     1     -13.491  12.867  72.018  1.00  0.00    -0.568 C  
HETATM   10  C   UNL     1     -13.081  14.126  71.792  1.00  0.00    -0.434 C  
BRANCH  10  11
HETATM   11  C   UNL     1     -11.917  14.561  70.942  1.00  0.00    -0.389 C  
BRANCH  11  12
HETATM   12  C   UNL     1     -12.248  14.636  69.477  1.00  0.00    -0.297 C  
HETATM   13  C   UNL     1     -11.833  13.795  68.516  1.00  0.00    -0.406 C  
BRANCH  13  14
HETATM   14  C   UNL     1     -10.890  12.655  68.714  1.00  0.00    -0.267 C  
BRANCH  14  15
HETATM   15  C   UNL     1     -11.512  11.318  68.424  1.00  0.00    -0.377 C  
HETATM   16  C   UNL     1     -11.100  10.513  67.429  1.00  0.00    -0.322 C  
BRANCH  16  17
HETATM   17  C   UNL     1     -10.019  10.870  66.453  1.00  0.00    -0.266 C  
BRANCH  17  18
HETATM   18  C   UNL     1     -10.398  10.597  65.023  1.00  0.00    -0.341 C  
HETATM   19  C   UNL     1     -11.142  11.447  64.293  1.00  0.00    -0.356 C  
BRANCH  19  20
HETATM   20  C   UNL     1     -11.641  12.749  64.859  1.00  0.00    -0.369 C  
BRANCH  20  21
HETATM   21  C   UNL     1     -11.844  13.860  63.836  1.00  0.00    -0.315 C  
HETATM   22  C   UNL     1     -11.590  15.195  64.504  1.00  0.00    -0.329 C  
HETATM   23  O   UNL     1     -12.241  16.219  63.902  1.00  0.00    -0.945 OA 
HETATM   24  O   UNL     1     -10.861  15.372  65.463  1.00  0.00    -0.338 OA 
ENDBRANCH  20  21
ENDBRANCH  19  20
ENDBRANCH  17  18
ENDBRANCH  16  17
ENDBRANCH  14  15
ENDBRANCH  13  14
ENDBRANCH  11  12
ENDBRANCH  10  11
ENDBRANCH   8   9
ENDBRANCH   7   8
ENDBRANCH   5   6
ENDBRANCH   4   5
ENDBRANCH   2   3
TORSDOF 13
ENDMDL
MODEL       78
REMARK 921   NORMALIZED FREE ENERGY PREDICTED BY IDOCK:   -4.78 KCAL/MOL
REMARK 922        TOTAL FREE ENERGY PREDICTED BY IDOCK:  -11.19 KCAL/MOL
REMARK 923 INTER-LIGAND FREE ENERGY PREDICTED BY IDOCK:   -8.47 KCAL/MOL
REMARK 924 INTRA-LIGAND FREE ENERGY PREDICTED BY IDOCK:   -2.73 KCAL/MOL
REMARK 927      BINDING AFFINITY PREDICTED BY RF-SCORE:    0.00 PKD
ROOT
HETATM    1  C   UNL     1     -13.879  14.089  72.417  1.00  0.00    -0.653 C  
HETATM    2  C   UNL     1     -13.345  12.742  71.957  1.00  0.00    -0.565 C  
ENDROOT
BRANCH   2   3
HETATM    3  C   UNL     1     -12.329  12.871  70.858  1.00  0.00    -0.365 C  
HETATM    4  C   UNL     1     -11.877  11.861  70.094  1.00  0.00    -0.390 C  
BRANCH   4   5
HETATM    5  C   UNL     1     -12.237  10.412  70.262  1.00  0.00    -0.349 C  
BRANCH   5   6
HETATM    6  C   UNL     1     -11.430   9.756  71.349  1.00  0.00    -0.435 C  
HETATM    7  C   UNL     1     -10.181   9.273  71.231  1.00  0.00    -0.383 C  
BRANCH   7   8
HETATM    8  C   UNL     1      -9.382   9.281  69.961  1.00  0.00    -0.232 C  
BRANCH   8   9
HETATM    9  C   UNL     1      -9.260   7.917  69.349  1.00  0.00    -0.145 C  
HETATM   10  C   UNL     1      -9.846   7.490  68.217  1.00  0.00    -0.177 C  
BRANCH  10  11
HETATM   11  C   UNL     1     -10.691   8.302  67.273  1.00  0.00    -0.241 C  
BRANCH  11  12
HETATM   12  C   UNL     1      -9.904   8.904  66.141  1.00  0.00    -0.326 C  
HETATM   13  C   UNL     1      -9.715  10.211  65.901  1.00  0.00    -0.292 C  
BRANCH  13  14
HETATM   14  C   UNL     1     -10.320  11.330  66.681  1.00  0.00    -0.279 C  
BRANCH  14  15
HETATM   15  C   UNL     1      -9.303  12.148  67.426  1.00  0.00    -0.181 C  
HETATM   16  C   UNL     1      -9.351  13.489  67.506  1.00  0.00    -0.220 C  
BRANCH  16  17
HETATM   17  C   UNL     1     -10.379  14.336  66.818  1.00  0.00    -0.274 C  
BRANCH  17  18
HETATM   18  C   UNL     1     -11.410  14.897  67.758  1.00  0.00    -0.341 C  
HETATM   19  C   UNL     1     -11.315  16.129  68.290  1.00  0.00    -0.316 C  
BRANCH  19  20
HETATM   20  C   UNL     1     -10.163  17.043  67.968  1.00  0.00    -0.319 C  
BRANCH  20  21
HETATM   21  C   UNL     1     -10.557  18.467  67.594  1.00  0.00    -0.437 C  
HETATM   22  C   UNL     1     -10.440  18.631  66.094  1.00  0.00    -0.430 C  
HETATM   23  O   UNL     1     -10.228  19.915  65.717  1.00  0.00    -0.464 OA 
HETATM   24  O   UNL     1     -10.548  17.731  65.279  1.00  0.00    -0.651 OA 
ENDBRANCH  20  21
ENDBRANCH  19  20
ENDBRANCH  17  18
ENDBRANCH  16  17
ENDBRANCH  14  15
ENDBRANCH  13  14
ENDBRANCH  11  12
ENDBRANCH  10  11
ENDBRANCH   8   9
ENDBRANCH   7   8
ENDBRANCH   5   6
ENDBRANCH   4   5
ENDBRANCH   2   3
TORSDOF 13
ENDMDL
MODEL       79
REMARK 921   NORMALIZED FREE ENERGY PREDICTED BY IDOCK:   -4.77 KCAL/MOL
REMARK 922        TOTAL FREE ENERGY PREDICTED BY IDOCK:  -11.18 KCAL/MOL
REMARK 923 INTER-LIGAND FREE ENERGY PREDICTED BY IDOCK:   -8.81 KCAL/MOL
REMARK 924 INTRA-LIGAND FREE ENERGY PREDICTED BY IDOCK:   -2.37 KCAL/MOL
REMARK 927      BINDING AFFINITY PREDICTED BY RF-SCORE:    0.00 PKD
ROOT
HETATM    1  C   UNL     1     -11.165   5.022  73.119  1.00  0.00    -0.408 C  
HETATM    2  C   UNL     1     -11.694   6.238  72.378  1.00  0.00    -0.301 C  
ENDROOT
BRANCH   2   3
HETATM    3  C   UNL     1     -10.864   6.588  71.176  1.00  0.00    -0.296 C  
HETATM    4  C   UNL     1     -10.431   7.821  70.861  1.00  0.00    -0.214 C  
BRANCH   4   5
HETATM    5  C   UNL     1     -10.777   9.083  71.602  1.00  0.00    -0.441 C  
BRANCH   5   6
HETATM    6  C   UNL     1     -12.132   9.608  71.214  1.00  0.00    -0.457 C  
HETATM    7  C   UNL     1     -12.379  10.610  70.352  1.00  0.00    -0.428 C  
BRANCH   7   8
HETATM    8  C   UNL     1     -11.320  11.406  69.647  1.00  0.00    -0.347 C  
BRANCH   8   9
HETATM    9  C   UNL     1     -10.883  10.770  68.361  1.00  0.00    -0.276 C  
HETATM   10  C   UNL     1     -11.120  11.227  67.119  1.00  0.00    -0.364 C  
BRANCH  10  11
HETATM   11  C   UNL     1     -11.808  12.511  66.742  1.00  0.00    -0.416 C  
BRANCH  11  12
HETATM   12  C   UNL     1     -12.283  12.533  65.315  1.00  0.00    -0.493 C  
HETATM   13  C   UNL     1     -12.244  13.577  64.473  1.00  0.00    -0.445 C  
BRANCH  13  14
HETATM   14  C   UNL     1     -11.783  14.953  64.822  1.00  0.00    -0.402 C  
BRANCH  14  15
HETATM   15  C   UNL     1     -10.286  15.086  64.848  1.00  0.00    -0.317 C  
HETATM   16  C   UNL     1      -9.601  15.488  65.932  1.00  0.00    -0.383 C  
BRANCH  16  17
HETATM   17  C   UNL     1     -10.239  15.912  67.220  1.00  0.00    -0.278 C  
BRANCH  17  18
HETATM   18  C   UNL     1      -9.759  15.124  68.408  1.00  0.00    -0.212 C  
HETATM   19  C   UNL     1     -10.493  14.971  69.525  1.00  0.00    -0.245 C  
BRANCH  19  20
HETATM   20  C   UNL     1     -11.865  15.574  69.657  1.00  0.00    -0.384 C  
BRANCH  20  21
HETATM   21  C   UNL     1     -12.821  14.806  70.563  1.00  0.00    -0.374 C  
HETATM   22  C   UNL     1     -12.563  15.205  72.000  1.00  0.00    -0.343 C  
HETATM   23  O   UNL     1     -12.927  14.249  72.888  1.00  0.00    -0.476 OA 
HETATM   24  O   UNL     1     -12.104  16.275  72.359  1.00  0.00    -0.510 OA 
ENDBRANCH  20  21
ENDBRANCH  19  20
ENDBRANCH  17  18
ENDBRANCH  16  17
ENDBRANCH  14  15
ENDBRANCH  13  14
ENDBRANCH  11  12
ENDBRANCH  10  11
ENDBRANCH   8   9
ENDBRANCH   7   8
ENDBRANCH   5   6
ENDBRANCH   4   5
ENDBRANCH   2   3
TORSDOF 13
ENDMDL
MODEL       80
REMARK 921   NORMALIZED FREE ENERGY PREDICTED BY IDOCK:   -4.77 KCAL/MOL
REMARK 922        TOTAL FREE ENERGY PREDICTED BY IDOCK:  -11.17 KCAL/MOL
REMARK 923 INTER-LIGAND FREE ENERGY PREDICTED BY IDOCK:   -8.05 KCAL/MOL
REMARK 924 INTRA-LIGAND FREE ENERGY PREDICTED BY IDOCK:   -3.12 KCAL/MOL
REMARK 927      BINDING AFFINITY PREDICTED BY RF-SCORE:    0.00 PKD
ROOT
HETATM    1  C   UNL     1      -8.104  13.141  68.030  1.00  0.00    -0.157 C  
HETATM    2  C   UNL     1      -8.727  11.798  67.690  1.00  0.00    -0.159 C  
ENDROOT
BRANCH   2   3
HETATM    3  C   UNL     1      -7.937  11.040  66.661  1.00  0.00    -0.156 C  
HETATM    4  C   UNL     1      -8.427  10.552  65.508  1.00  0.00    -0.177 C  
BRANCH   4   5
HETATM    5  C   UNL     1      -9.868  10.596  65.085  1.00  0.00    -0.344 C  
BRANCH   5   6
HETATM    6  C   UNL     1     -10.025  11.102  63.677  1.00  0.00    -0.411 C  
HETATM    7  C   UNL     1     -11.043  11.843  63.208  1.00  0.00    -0.390 C  
BRANCH   7   8
HETATM    8  C   UNL     1     -12.231  12.269  64.021  1.00  0.00    -0.569 C  
BRANCH   8   9
HETATM    9  C   UNL     1     -12.120  13.686  64.502  1.00  0.00    -0.459 C  
HETATM   10  C   UNL     1     -12.055  14.095  65.781  1.00  0.00    -0.433 C  
BRANCH  10  11
HETATM   11  C   UNL     1     -12.004  13.227  67.009  1.00  0.00    -0.419 C  
BRANCH  11  12
HETATM   12  C   UNL     1     -11.858  14.011  68.284  1.00  0.00    -0.406 C  
HETATM   13  C   UNL     1     -11.822  13.515  69.531  1.00  0.00    -0.392 C  
BRANCH  13  14
HETATM   14  C   UNL     1     -11.997  12.079  69.896  1.00  0.00    -0.391 C  
BRANCH  14  15
HETATM   15  C   UNL     1     -12.697  11.886  71.213  1.00  0.00    -0.401 C  
HETATM   16  C   UNL     1     -12.828  10.688  71.809  1.00  0.00    -0.549 C  
BRANCH  16  17
HETATM   17  C   UNL     1     -12.355   9.396  71.213  1.00  0.00    -0.422 C  
BRANCH  17  18
HETATM   18  C   UNL     1     -11.288   8.721  72.030  1.00  0.00    -0.441 C  
HETATM   19  C   UNL     1      -9.991   8.722  71.675  1.00  0.00    -0.381 C  
BRANCH  19  20
HETATM   20  C   UNL     1      -9.512   9.417  70.429  1.00  0.00    -0.319 C  
BRANCH  20  21
HETATM   21  C   UNL     1      -8.979   8.493  69.341  1.00  0.00    -0.149 C  
HETATM   22  C   UNL     1     -10.038   8.330  68.273  1.00  0.00    -0.198 C  
HETATM   23  O   UNL     1      -9.919   7.170  67.583  1.00  0.00    -0.143 OA 
HETATM   24  O   UNL     1     -10.904   9.146  68.013  1.00  0.00    -0.185 OA 
ENDBRANCH  20  21
ENDBRANCH  19  20
ENDBRANCH  17  18
ENDBRANCH  16  17
ENDBRANCH  14  15
ENDBRANCH  13  14
ENDBRANCH  11  12
ENDBRANCH  10  11
ENDBRANCH   8   9
ENDBRANCH   7   8
ENDBRANCH   5   6
ENDBRANCH   4   5
ENDBRANCH   2   3
TORSDOF 13
ENDMDL
MODEL       81
REMARK 921   NORMALIZED FREE ENERGY PREDICTED BY IDOCK:   -4.76 KCAL/MOL
REMARK 922        TOTAL FREE ENERGY PREDICTED BY IDOCK:  -11.16 KCAL/MOL
REMARK 923 INTER-LIGAND FREE ENERGY PREDICTED BY IDOCK:   -8.31 KCAL/MOL
REMARK 924 INTRA-LIGAND FREE ENERGY PREDICTED BY IDOCK:   -2.85 KCAL/MOL
REMARK 927      BINDING AFFINITY PREDICTED BY RF-SCORE:    0.00 PKD
ROOT
HETATM    1  C   UNL     1     -14.353   7.473  71.572  1.00  0.00    -0.603 C  
HETATM    2  C   UNL     1     -14.073   8.957  71.741  1.00  0.00    -0.426 C  
ENDROOT
BRANCH   2   3
HETATM    3  C   UNL     1     -12.603   9.266  71.783  1.00  0.00    -0.461 C  
HETATM    4  C   UNL     1     -12.050  10.458  71.504  1.00  0.00    -0.364 C  
BRANCH   4   5
HETATM    5  C   UNL     1     -12.791  11.668  71.009  1.00  0.00    -0.339 C  
BRANCH   5   6
HETATM    6  C   UNL     1     -13.543  12.358  72.114  1.00  0.00    -0.405 C  
HETATM    7  C   UNL     1     -13.350  13.618  72.541  1.00  0.00    -0.638 C  
BRANCH   7   8
HETATM    8  C   UNL     1     -12.311  14.552  71.994  1.00  0.00    -0.367 C  
BRANCH   8   9
HETATM    9  C   UNL     1     -12.780  15.282  70.770  1.00  0.00    -0.491 C  
HETATM   10  C   UNL     1     -12.115  15.410  69.609  1.00  0.00    -0.354 C  
BRANCH  10  11
HETATM   11  C   UNL     1     -10.791  14.792  69.250  1.00  0.00    -0.275 C  
BRANCH  11  12
HETATM   12  C   UNL     1      -9.738  15.806  68.898  1.00  0.00    -0.225 C  
HETATM   13  C   UNL     1      -8.710  15.635  68.052  1.00  0.00    -0.167 C  
BRANCH  13  14
HETATM   14  C   UNL     1      -8.371  14.363  67.349  1.00  0.00    -0.216 C  
BRANCH  14  15
HETATM   15  C   UNL     1      -7.701  13.356  68.241  1.00  0.00    -0.141 C  
HETATM   16  C   UNL     1      -8.014  12.049  68.243  1.00  0.00    -0.149 C  
BRANCH  16  17
HETATM   17  C   UNL     1      -9.105  11.445  67.409  1.00  0.00    -0.160 C  
BRANCH  17  18
HETATM   18  C   UNL     1     -10.429  11.385  68.118  1.00  0.00    -0.212 C  
HETATM   19  C   UNL     1     -11.591  11.700  67.517  1.00  0.00    -0.345 C  
BRANCH  19  20
HETATM   20  C   UNL     1     -11.645  12.126  66.074  1.00  0.00    -0.420 C  
BRANCH  20  21
HETATM   21  C   UNL     1     -12.008  13.588  65.848  1.00  0.00    -0.444 C  
HETATM   22  C   UNL     1     -10.971  14.217  64.942  1.00  0.00    -0.404 C  
HETATM   23  O   UNL     1     -10.869  15.558  65.108  1.00  0.00    -0.386 OA 
HETATM   24  O   UNL     1     -10.302  13.618  64.120  1.00  0.00    -0.315 OA 
ENDBRANCH  20  21
ENDBRANCH  19  20
ENDBRANCH  17  18
ENDBRANCH  16  17
ENDBRANCH  14  15
ENDBRANCH  13  14
ENDBRANCH  11  12
ENDBRANCH  10  11
ENDBRANCH   8   9
ENDBRANCH   7   8
ENDBRANCH   5   6
ENDBRANCH   4   5
ENDBRANCH   2   3
TORSDOF 13
ENDMDL
MODEL       82
REMARK 921   NORMALIZED FREE ENERGY PREDICTED BY IDOCK:   -4.76 KCAL/MOL
REMARK 922        TOTAL FREE ENERGY PREDICTED BY IDOCK:  -11.15 KCAL/MOL
REMARK 923 INTER-LIGAND FREE ENERGY PREDICTED BY IDOCK:   -8.85 KCAL/MOL
REMARK 924 INTRA-LIGAND FREE ENERGY PREDICTED BY IDOCK:   -2.30 KCAL/MOL
REMARK 927      BINDING AFFINITY PREDICTED BY RF-SCORE:    0.00 PKD
ROOT
HETATM    1  C   UNL     1      -7.879   7.065  74.187  1.00  0.00    -0.129 C  
HETATM    2  C   UNL     1      -9.358   7.374  74.026  1.00  0.00    -0.282 C  
ENDROOT
BRANCH   2   3
HETATM    3  C   UNL     1     -10.226   6.166  74.239  1.00  0.00    -0.326 C  
HETATM    4  C   UNL     1     -10.875   5.494  73.273  1.00  0.00    -0.337 C  
BRANCH   4   5
HETATM    5  C   UNL     1     -10.925   5.883  71.822  1.00  0.00    -0.327 C  
BRANCH   5   6
HETATM    6  C   UNL     1     -12.276   6.414  71.429  1.00  0.00    -0.192 C  
HETATM    7  C   UNL     1     -12.690   7.689  71.532  1.00  0.00    -0.373 C  
BRANCH   7   8
HETATM    8  C   UNL     1     -11.865   8.808  72.097  1.00  0.00    -0.436 C  
BRANCH   8   9
HETATM    9  C   UNL     1     -10.814   9.289  71.139  1.00  0.00    -0.407 C  
HETATM   10  C   UNL     1     -10.962  10.234  70.196  1.00  0.00    -0.377 C  
BRANCH  10  11
HETATM   11  C   UNL     1     -12.183  11.074  69.938  1.00  0.00    -0.408 C  
BRANCH  11  12
HETATM   12  C   UNL     1     -12.077  12.465  70.500  1.00  0.00    -0.363 C  
HETATM   13  C   UNL     1     -11.844  13.593  69.810  1.00  0.00    -0.392 C  
BRANCH  13  14
HETATM   14  C   UNL     1     -11.568  13.670  68.345  1.00  0.00    -0.377 C  
BRANCH  14  15
HETATM   15  C   UNL     1     -10.119  13.461  68.006  1.00  0.00    -0.241 C  
HETATM   16  C   UNL     1      -9.675  12.422  67.276  1.00  0.00    -0.201 C  
BRANCH  16  17
HETATM   17  C   UNL     1     -10.552  11.318  66.767  1.00  0.00    -0.305 C  
BRANCH  17  18
HETATM   18  C   UNL     1     -10.001  10.639  65.543  1.00  0.00    -0.333 C  
HETATM   19  C   UNL     1     -10.467  10.880  64.305  1.00  0.00    -0.405 C  
BRANCH  19  20
HETATM   20  C   UNL     1     -11.577  11.867  64.056  1.00  0.00    -0.476 C  
BRANCH  20  21
HETATM   21  C   UNL     1     -11.139  13.325  63.997  1.00  0.00    -0.342 C  
HETATM   22  C   UNL     1     -12.285  14.201  64.458  1.00  0.00    -0.445 C  
HETATM   23  O   UNL     1     -12.228  15.456  63.952  1.00  0.00    -0.607 OA 
HETATM   24  O   UNL     1     -13.166  13.856  65.225  1.00  0.00    -0.774 OA 
ENDBRANCH  20  21
ENDBRANCH  19  20
ENDBRANCH  17  18
ENDBRANCH  16  17
ENDBRANCH  14  15
ENDBRANCH  13  14
ENDBRANCH  11  12
ENDBRANCH  10  11
ENDBRANCH   8   9
ENDBRANCH   7   8
ENDBRANCH   5   6
ENDBRANCH   4   5
ENDBRANCH   2   3
TORSDOF 13
ENDMDL
MODEL       83
REMARK 921   NORMALIZED FREE ENERGY PREDICTED BY IDOCK:   -4.76 KCAL/MOL
REMARK 922        TOTAL FREE ENERGY PREDICTED BY IDOCK:  -11.15 KCAL/MOL
REMARK 923 INTER-LIGAND FREE ENERGY PREDICTED BY IDOCK:   -8.55 KCAL/MOL
REMARK 924 INTRA-LIGAND FREE ENERGY PREDICTED BY IDOCK:   -2.59 KCAL/MOL
REMARK 927      BINDING AFFINITY PREDICTED BY RF-SCORE:    0.00 PKD
ROOT
HETATM    1  C   UNL     1     -11.251   8.026  72.791  1.00  0.00    -0.448 C  
HETATM    2  C   UNL     1     -10.466   8.836  71.772  1.00  0.00    -0.417 C  
ENDROOT
BRANCH   2   3
HETATM    3  C   UNL     1     -11.246  10.007  71.243  1.00  0.00    -0.270 C  
HETATM    4  C   UNL     1     -11.378  10.331  69.945  1.00  0.00    -0.354 C  
BRANCH   4   5
HETATM    5  C   UNL     1     -10.695   9.638  68.799  1.00  0.00    -0.234 C  
BRANCH   5   6
HETATM    6  C   UNL     1      -9.666  10.518  68.144  1.00  0.00    -0.166 C  
HETATM    7  C   UNL     1      -9.519  10.721  66.823  1.00  0.00    -0.198 C  
BRANCH   7   8
HETATM    8  C   UNL     1     -10.354  10.064  65.764  1.00  0.00    -0.191 C  
BRANCH   8   9
HETATM    9  C   UNL     1      -9.901  10.413  64.376  1.00  0.00    -0.395 C  
HETATM   10  C   UNL     1     -10.249  11.502  63.670  1.00  0.00    -0.450 C  
BRANCH  10  11
HETATM   11  C   UNL     1     -11.106  12.648  64.135  1.00  0.00    -0.428 C  
BRANCH  11  12
HETATM   12  C   UNL     1     -10.323  13.732  64.824  1.00  0.00    -0.422 C  
HETATM   13  C   UNL     1     -10.675  14.390  65.940  1.00  0.00    -0.308 C  
BRANCH  13  14
HETATM   14  C   UNL     1     -11.963  14.220  66.674  1.00  0.00    -0.454 C  
BRANCH  14  15
HETATM   15  C   UNL     1     -11.837  13.347  67.892  1.00  0.00    -0.392 C  
HETATM   16  C   UNL     1     -11.978  13.808  69.147  1.00  0.00    -0.403 C  
BRANCH  16  17
HETATM   17  C   UNL     1     -12.214  15.248  69.492  1.00  0.00    -0.273 C  
BRANCH  17  18
HETATM   18  C   UNL     1     -11.019  15.911  70.120  1.00  0.00    -0.369 C  
HETATM   19  C   UNL     1     -10.296  16.856  69.490  1.00  0.00    -0.189 C  
BRANCH  19  20
HETATM   20  C   UNL     1     -10.647  17.327  68.104  1.00  0.00    -0.386 C  
BRANCH  20  21
HETATM   21  C   UNL     1     -10.231  18.758  67.786  1.00  0.00    -0.446 C  
HETATM   22  C   UNL     1     -10.141  18.921  66.284  1.00  0.00    -0.414 C  
HETATM   23  O   UNL     1      -9.293  19.909  65.909  1.00  0.00    -0.355 OA 
HETATM   24  O   UNL     1     -10.771  18.270  65.469  1.00  0.00    -0.596 OA 
ENDBRANCH  20  21
ENDBRANCH  19  20
ENDBRANCH  17  18
ENDBRANCH  16  17
ENDBRANCH  14  15
ENDBRANCH  13  14
ENDBRANCH  11  12
ENDBRANCH  10  11
ENDBRANCH   8   9
ENDBRANCH   7   8
ENDBRANCH   5   6
ENDBRANCH   4   5
ENDBRANCH   2   3
TORSDOF 13
ENDMDL
MODEL       84
REMARK 921   NORMALIZED FREE ENERGY PREDICTED BY IDOCK:   -4.75 KCAL/MOL
REMARK 922        TOTAL FREE ENERGY PREDICTED BY IDOCK:  -11.14 KCAL/MOL
REMARK 923 INTER-LIGAND FREE ENERGY PREDICTED BY IDOCK:   -7.99 KCAL/MOL
REMARK 924 INTRA-LIGAND FREE ENERGY PREDICTED BY IDOCK:   -3.15 KCAL/MOL
REMARK 927      BINDING AFFINITY PREDICTED BY RF-SCORE:    0.00 PKD
ROOT
HETATM    1  C   UNL     1     -13.705  15.256  72.396  1.00  0.00    -0.622 C  
HETATM    2  C   UNL     1     -12.670  14.354  71.744  1.00  0.00    -0.427 C  
ENDROOT
BRANCH   2   3
HETATM    3  C   UNL     1     -11.462  15.112  71.271  1.00  0.00    -0.395 C  
HETATM    4  C   UNL     1     -11.255  15.541  70.014  1.00  0.00    -0.325 C  
BRANCH   4   5
HETATM    5  C   UNL     1     -12.149  15.261  68.839  1.00  0.00    -0.223 C  
BRANCH   5   6
HETATM    6  C   UNL     1     -11.375  14.753  67.653  1.00  0.00    -0.352 C  
HETATM    7  C   UNL     1     -11.263  13.470  67.268  1.00  0.00    -0.319 C  
BRANCH   7   8
HETATM    8  C   UNL     1     -11.878  12.308  67.991  1.00  0.00    -0.368 C  
BRANCH   8   9
HETATM    9  C   UNL     1     -11.067  11.873  69.177  1.00  0.00    -0.285 C  
HETATM   10  C   UNL     1     -11.514  11.197  70.248  1.00  0.00    -0.329 C  
BRANCH  10  11
HETATM   11  C   UNL     1     -12.902  10.659  70.466  1.00  0.00    -0.356 C  
BRANCH  11  12
HETATM   12  C   UNL     1     -13.160  10.242  71.888  1.00  0.00    -0.568 C  
HETATM   13  C   UNL     1     -13.392   8.996  72.330  1.00  0.00    -0.516 C  
BRANCH  13  14
HETATM   14  C   UNL     1     -13.511   7.782  71.470  1.00  0.00    -0.379 C  
BRANCH  14  15
HETATM   15  C   UNL     1     -12.499   6.722  71.802  1.00  0.00    -0.394 C  
HETATM   16  C   UNL     1     -11.402   6.492  71.059  1.00  0.00    -0.378 C  
BRANCH  16  17
HETATM   17  C   UNL     1     -11.085   7.213  69.784  1.00  0.00    -0.239 C  
BRANCH  17  18
HETATM   18  C   UNL     1      -9.865   8.086  69.884  1.00  0.00    -0.186 C  
HETATM   19  C   UNL     1      -9.168   8.490  68.806  1.00  0.00    -0.142 C  
BRANCH  19  20
HETATM   20  C   UNL     1      -9.576   8.101  67.410  1.00  0.00    -0.204 C  
BRANCH  20  21
HETATM   21  C   UNL     1     -10.461   9.113  66.693  1.00  0.00    -0.237 C  
HETATM   22  C   UNL     1      -9.704   9.677  65.510  1.00  0.00    -0.301 C  
HETATM   23  O   UNL     1     -10.131  10.911  65.149  1.00  0.00    -0.256 OA 
HETATM   24  O   UNL     1      -8.818   9.100  64.905  1.00  0.00    -0.190 OA 
ENDBRANCH  20  21
ENDBRANCH  19  20
ENDBRANCH  17  18
ENDBRANCH  16  17
ENDBRANCH  14  15
ENDBRANCH  13  14
ENDBRANCH  11  12
ENDBRANCH  10  11
ENDBRANCH   8   9
ENDBRANCH   7   8
ENDBRANCH   5   6
ENDBRANCH   4   5
ENDBRANCH   2   3
TORSDOF 13
ENDMDL
MODEL       85
REMARK 921   NORMALIZED FREE ENERGY PREDICTED BY IDOCK:   -4.74 KCAL/MOL
REMARK 922        TOTAL FREE ENERGY PREDICTED BY IDOCK:  -11.12 KCAL/MOL
REMARK 923 INTER-LIGAND FREE ENERGY PREDICTED BY IDOCK:   -8.68 KCAL/MOL
REMARK 924 INTRA-LIGAND FREE ENERGY PREDICTED BY IDOCK:   -2.45 KCAL/MOL
REMARK 927      BINDING AFFINITY PREDICTED BY RF-SCORE:    0.00 PKD
ROOT
HETATM    1  C   UNL     1      -9.093  15.406  67.892  1.00  0.00    -0.178 C  
HETATM    2  C   UNL     1      -9.928  15.122  66.655  1.00  0.00    -0.261 C  
ENDROOT
BRANCH   2   3
HETATM    3  C   UNL     1     -11.288  14.576  66.990  1.00  0.00    -0.359 C  
HETATM    4  C   UNL     1     -12.217  14.199  66.095  1.00  0.00    -0.465 C  
BRANCH   4   5
HETATM    5  C   UNL     1     -12.101  14.343  64.604  1.00  0.00    -0.485 C  
BRANCH   5   6
HETATM    6  C   UNL     1     -12.526  13.092  63.884  1.00  0.00    -0.356 C  
HETATM    7  C   UNL     1     -11.758  12.015  63.642  1.00  0.00    -0.587 C  
BRANCH   7   8
HETATM    8  C   UNL     1     -10.314  11.895  64.029  1.00  0.00    -0.403 C  
BRANCH   8   9
HETATM    9  C   UNL     1      -9.968  10.530  64.546  1.00  0.00    -0.413 C  
HETATM   10  C   UNL     1     -10.141  10.080  65.800  1.00  0.00    -0.320 C  
BRANCH  10  11
HETATM   11  C   UNL     1     -10.787  10.814  66.945  1.00  0.00    -0.288 C  
BRANCH  11  12
HETATM   12  C   UNL     1      -9.797  11.518  67.832  1.00  0.00    -0.192 C  
HETATM   13  C   UNL     1      -9.047  10.962  68.797  1.00  0.00    -0.174 C  
BRANCH  13  14
HETATM   14  C   UNL     1      -9.111   9.535  69.227  1.00  0.00    -0.161 C  
BRANCH  14  15
HETATM   15  C   UNL     1      -9.288   9.373  70.711  1.00  0.00    -0.292 C  
HETATM   16  C   UNL     1     -10.488   9.394  71.316  1.00  0.00    -0.385 C  
BRANCH  16  17
HETATM   17  C   UNL     1     -11.784   9.641  70.604  1.00  0.00    -0.353 C  
BRANCH  17  18
HETATM   18  C   UNL     1     -12.974   9.650  71.524  1.00  0.00    -0.486 C  
HETATM   19  C   UNL     1     -13.506  10.784  72.015  1.00  0.00    -0.296 C  
BRANCH  19  20
HETATM   20  C   UNL     1     -12.948  12.136  71.662  1.00  0.00    -0.427 C  
BRANCH  20  21
HETATM   21  C   UNL     1     -13.777  13.320  72.146  1.00  0.00    -0.619 C  
HETATM   22  C   UNL     1     -12.875  14.528  72.281  1.00  0.00    -0.349 C  
HETATM   23  O   UNL     1     -13.334  15.433  73.179  1.00  0.00    -0.484 OA 
HETATM   24  O   UNL     1     -11.852  14.715  71.646  1.00  0.00    -0.342 OA 
ENDBRANCH  20  21
ENDBRANCH  19  20
ENDBRANCH  17  18
ENDBRANCH  16  17
ENDBRANCH  14  15
ENDBRANCH  13  14
ENDBRANCH  11  12
ENDBRANCH  10  11
ENDBRANCH   8   9
ENDBRANCH   7   8
ENDBRANCH   5   6
ENDBRANCH   4   5
ENDBRANCH   2   3
TORSDOF 13
ENDMDL
MODEL       86
REMARK 921   NORMALIZED FREE ENERGY PREDICTED BY IDOCK:   -4.74 KCAL/MOL
REMARK 922        TOTAL FREE ENERGY PREDICTED BY IDOCK:  -11.12 KCAL/MOL
REMARK 923 INTER-LIGAND FREE ENERGY PREDICTED BY IDOCK:   -8.74 KCAL/MOL
REMARK 924 INTRA-LIGAND FREE ENERGY PREDICTED BY IDOCK:   -2.38 KCAL/MOL
REMARK 927      BINDING AFFINITY PREDICTED BY RF-SCORE:    0.00 PKD
ROOT
HETATM    1  C   UNL     1     -10.141   5.464  70.065  1.00  0.00    -0.324 C  
HETATM    2  C   UNL     1     -11.282   6.462  69.961  1.00  0.00    -0.475 C  
ENDROOT
BRANCH   2   3
HETATM    3  C   UNL     1     -11.832   6.850  71.305  1.00  0.00    -0.385 C  
HETATM    4  C   UNL     1     -11.715   8.063  71.873  1.00  0.00    -0.351 C  
BRANCH   4   5
HETATM    5  C   UNL     1     -10.937   9.219  71.310  1.00  0.00    -0.421 C  
BRANCH   5   6
HETATM    6  C   UNL     1     -11.832  10.227  70.643  1.00  0.00    -0.439 C  
HETATM    7  C   UNL     1     -11.623  10.807  69.448  1.00  0.00    -0.380 C  
BRANCH   7   8
HETATM    8  C   UNL     1     -10.423  10.563  68.581  1.00  0.00    -0.211 C  
BRANCH   8   9
HETATM    9  C   UNL     1     -10.657   9.481  67.567  1.00  0.00    -0.338 C  
HETATM   10  C   UNL     1     -10.355   9.531  66.259  1.00  0.00    -0.226 C  
BRANCH  10  11
HETATM   11  C   UNL     1      -9.651  10.645  65.533  1.00  0.00    -0.271 C  
BRANCH  11  12
HETATM   12  C   UNL     1     -10.085  10.787  64.099  1.00  0.00    -0.418 C  
HETATM   13  C   UNL     1     -10.549  11.898  63.507  1.00  0.00    -0.507 C  
BRANCH  13  14
HETATM   14  C   UNL     1     -10.796  13.203  64.189  1.00  0.00    -0.407 C  
BRANCH  14  15
HETATM   15  C   UNL     1     -12.208  13.354  64.680  1.00  0.00    -0.456 C  
HETATM   16  C   UNL     1     -12.521  13.570  65.970  1.00  0.00    -0.456 C  
BRANCH  16  17
HETATM   17  C   UNL     1     -11.516  13.624  67.081  1.00  0.00    -0.367 C  
BRANCH  17  18
HETATM   18  C   UNL     1     -12.023  14.335  68.305  1.00  0.00    -0.346 C  
HETATM   19  C   UNL     1     -11.491  15.488  68.749  1.00  0.00    -0.363 C  
BRANCH  19  20
HETATM   20  C   UNL     1     -10.348  16.159  68.034  1.00  0.00    -0.271 C  
BRANCH  20  21
HETATM   21  C   UNL     1     -10.749  17.302  67.110  1.00  0.00    -0.181 C  
HETATM   22  C   UNL     1     -10.156  18.591  67.637  1.00  0.00    -0.364 C  
HETATM   23  O   UNL     1     -10.854  19.688  67.256  1.00  0.00    -0.474 OA 
HETATM   24  O   UNL     1      -9.144  18.673  68.310  1.00  0.00    -0.303 OA 
ENDBRANCH  20  21
ENDBRANCH  19  20
ENDBRANCH  17  18
ENDBRANCH  16  17
ENDBRANCH  14  15
ENDBRANCH  13  14
ENDBRANCH  11  12
ENDBRANCH  10  11
ENDBRANCH   8   9
ENDBRANCH   7   8
ENDBRANCH   5   6
ENDBRANCH   4   5
ENDBRANCH   2   3
TORSDOF 13
ENDMDL
MODEL       87
REMARK 921   NORMALIZED FREE ENERGY PREDICTED BY IDOCK:   -4.74 KCAL/MOL
REMARK 922        TOTAL FREE ENERGY PREDICTED BY IDOCK:  -11.12 KCAL/MOL
REMARK 923 INTER-LIGAND FREE ENERGY PREDICTED BY IDOCK:   -7.92 KCAL/MOL
REMARK 924 INTRA-LIGAND FREE ENERGY PREDICTED BY IDOCK:   -3.20 KCAL/MOL
REMARK 927      BINDING AFFINITY PREDICTED BY RF-SCORE:    0.00 PKD
ROOT
HETATM    1  C   UNL     1     -12.647  11.907  63.321  1.00  0.00    -0.473 C  
HETATM    2  C   UNL     1     -11.992  12.443  64.583  1.00  0.00    -0.462 C  
ENDROOT
BRANCH   2   3
HETATM    3  C   UNL     1     -10.546  12.049  64.693  1.00  0.00    -0.351 C  
HETATM    4  C   UNL     1     -10.021  11.279  65.662  1.00  0.00    -0.292 C  
BRANCH   4   5
HETATM    5  C   UNL     1     -10.765  10.752  66.856  1.00  0.00    -0.309 C  
BRANCH   5   6
HETATM    6  C   UNL     1      -9.837  10.144  67.872  1.00  0.00    -0.176 C  
HETATM    7  C   UNL     1      -9.884   8.883  68.337  1.00  0.00    -0.191 C  
BRANCH   7   8
HETATM    8  C   UNL     1     -10.911   7.866  67.934  1.00  0.00    -0.063 C  
BRANCH   8   9
HETATM    9  C   UNL     1     -10.782   6.583  68.703  1.00  0.00    -0.323 C  
HETATM   10  C   UNL     1     -11.317   6.313  69.905  1.00  0.00    -0.504 C  
BRANCH  10  11
HETATM   11  C   UNL     1     -12.223   7.202  70.715  1.00  0.00    -0.308 C  
BRANCH  11  12
HETATM   12  C   UNL     1     -11.477   8.115  71.650  1.00  0.00    -0.323 C  
HETATM   13  C   UNL     1     -11.543   9.455  71.685  1.00  0.00    -0.466 C  
BRANCH  13  14
HETATM   14  C   UNL     1     -12.323  10.307  70.741  1.00  0.00    -0.445 C  
BRANCH  14  15
HETATM   15  C   UNL     1     -12.766  11.609  71.349  1.00  0.00    -0.445 C  
HETATM   16  C   UNL     1     -12.413  12.810  70.858  1.00  0.00    -0.373 C  
BRANCH  16  17
HETATM   17  C   UNL     1     -11.493  13.003  69.690  1.00  0.00    -0.253 C  
BRANCH  17  18
HETATM   18  C   UNL     1     -12.098  13.827  68.588  1.00  0.00    -0.333 C  
HETATM   19  C   UNL     1     -11.355  14.483  67.678  1.00  0.00    -0.354 C  
BRANCH  19  20
HETATM   20  C   UNL     1      -9.851  14.425  67.695  1.00  0.00    -0.224 C  
BRANCH  20  21
HETATM   21  C   UNL     1      -9.168  15.075  66.498  1.00  0.00    -0.320 C  
HETATM   22  C   UNL     1      -8.622  16.423  66.917  1.00  0.00    -0.214 C  
HETATM   23  O   UNL     1      -8.499  17.289  65.882  1.00  0.00    -0.533 OA 
HETATM   24  O   UNL     1      -8.290  16.724  68.050  1.00  0.00    -0.191 OA 
ENDBRANCH  20  21
ENDBRANCH  19  20
ENDBRANCH  17  18
ENDBRANCH  16  17
ENDBRANCH  14  15
ENDBRANCH  13  14
ENDBRANCH  11  12
ENDBRANCH  10  11
ENDBRANCH   8   9
ENDBRANCH   7   8
ENDBRANCH   5   6
ENDBRANCH   4   5
ENDBRANCH   2   3
TORSDOF 13
ENDMDL
MODEL       88
REMARK 921   NORMALIZED FREE ENERGY PREDICTED BY IDOCK:   -4.73 KCAL/MOL
REMARK 922        TOTAL FREE ENERGY PREDICTED BY IDOCK:  -11.11 KCAL/MOL
REMARK 923 INTER-LIGAND FREE ENERGY PREDICTED BY IDOCK:   -8.99 KCAL/MOL
REMARK 924 INTRA-LIGAND FREE ENERGY PREDICTED BY IDOCK:   -2.12 KCAL/MOL
REMARK 927      BINDING AFFINITY PREDICTED BY RF-SCORE:    0.00 PKD
ROOT
HETATM    1  C   UNL     1     -13.396   9.119  72.330  1.00  0.00    -0.540 C  
HETATM    2  C   UNL     1     -12.074   9.175  71.584  1.00  0.00    -0.432 C  
ENDROOT
BRANCH   2   3
HETATM    3  C   UNL     1     -11.970  10.373  70.683  1.00  0.00    -0.448 C  
HETATM    4  C   UNL     1     -11.160  10.476  69.615  1.00  0.00    -0.338 C  
BRANCH   4   5
HETATM    5  C   UNL     1     -10.148   9.451  69.186  1.00  0.00    -0.200 C  
BRANCH   5   6
HETATM    6  C   UNL     1     -10.656   8.598  68.056  1.00  0.00    -0.205 C  
HETATM    7  C   UNL     1     -10.542   8.867  66.744  1.00  0.00    -0.212 C  
BRANCH   7   8
HETATM    8  C   UNL     1      -9.903  10.103  66.182  1.00  0.00    -0.297 C  
BRANCH   8   9
HETATM    9  C   UNL     1      -9.283   9.869  64.835  1.00  0.00    -0.301 C  
HETATM   10  C   UNL     1      -9.360  10.678  63.766  1.00  0.00    -0.304 C  
BRANCH  10  11
HETATM   11  C   UNL     1     -10.016  12.031  63.698  1.00  0.00    -0.387 C  
BRANCH  11  12
HETATM   12  C   UNL     1     -11.503  11.958  63.478  1.00  0.00    -0.523 C  
HETATM   13  C   UNL     1     -12.449  12.608  64.173  1.00  0.00    -0.488 C  
BRANCH  13  14
HETATM   14  C   UNL     1     -12.206  13.481  65.359  1.00  0.00    -0.482 C  
BRANCH  14  15
HETATM   15  C   UNL     1     -11.910  12.704  66.612  1.00  0.00    -0.449 C  
HETATM   16  C   UNL     1     -11.665  13.286  67.799  1.00  0.00    -0.398 C  
BRANCH  16  17
HETATM   17  C   UNL     1     -11.594  14.768  68.009  1.00  0.00    -0.367 C  
BRANCH  17  18
HETATM   18  C   UNL     1     -10.811  15.157  69.233  1.00  0.00    -0.255 C  
HETATM   19  C   UNL     1     -11.398  15.482  70.399  1.00  0.00    -0.360 C  
BRANCH  19  20
HETATM   20  C   UNL     1     -12.894  15.466  70.564  1.00  0.00    -0.425 C  
BRANCH  20  21
HETATM   21  C   UNL     1     -13.488  14.107  70.915  1.00  0.00    -0.148 C  
HETATM   22  C   UNL     1     -13.473  13.938  72.419  1.00  0.00    -0.560 C  
HETATM   23  O   UNL     1     -13.450  12.640  72.805  1.00  0.00    -0.336 OA 
HETATM   24  O   UNL     1     -13.506  14.849  73.227  1.00  0.00    -0.536 OA 
ENDBRANCH  20  21
ENDBRANCH  19  20
ENDBRANCH  17  18
ENDBRANCH  16  17
ENDBRANCH  14  15
ENDBRANCH  13  14
ENDBRANCH  11  12
ENDBRANCH  10  11
ENDBRANCH   8   9
ENDBRANCH   7   8
ENDBRANCH   5   6
ENDBRANCH   4   5
ENDBRANCH   2   3
TORSDOF 13
ENDMDL
MODEL       89
REMARK 921   NORMALIZED FREE ENERGY PREDICTED BY IDOCK:   -4.73 KCAL/MOL
REMARK 922        TOTAL FREE ENERGY PREDICTED BY IDOCK:  -11.10 KCAL/MOL
REMARK 923 INTER-LIGAND FREE ENERGY PREDICTED BY IDOCK:   -8.62 KCAL/MOL
REMARK 924 INTRA-LIGAND FREE ENERGY PREDICTED BY IDOCK:   -2.48 KCAL/MOL
REMARK 927      BINDING AFFINITY PREDICTED BY RF-SCORE:    0.00 PKD
ROOT
HETATM    1  C   UNL     1      -9.200  16.325  66.153  1.00  0.00    -0.376 C  
HETATM    2  C   UNL     1     -10.197  17.251  66.830  1.00  0.00    -0.322 C  
ENDROOT
BRANCH   2   3
HETATM    3  C   UNL     1     -10.030  17.283  68.323  1.00  0.00    -0.313 C  
HETATM    4  C   UNL     1     -10.735  16.549  69.201  1.00  0.00    -0.335 C  
BRANCH   4   5
HETATM    5  C   UNL     1     -11.878  15.636  68.855  1.00  0.00    -0.368 C  
BRANCH   5   6
HETATM    6  C   UNL     1     -11.405  14.249  68.514  1.00  0.00    -0.309 C  
HETATM    7  C   UNL     1     -11.712  13.556  67.404  1.00  0.00    -0.419 C  
BRANCH   7   8
HETATM    8  C   UNL     1     -12.621  14.049  66.317  1.00  0.00    -0.352 C  
BRANCH   8   9
HETATM    9  C   UNL     1     -11.886  14.346  65.043  1.00  0.00    -0.400 C  
HETATM   10  C   UNL     1     -11.537  13.461  64.093  1.00  0.00    -0.440 C  
BRANCH  10  11
HETATM   11  C   UNL     1     -11.869  11.994  64.056  1.00  0.00    -0.500 C  
BRANCH  11  12
HETATM   12  C   UNL     1     -10.662  11.118  63.864  1.00  0.00    -0.407 C  
HETATM   13  C   UNL     1      -9.934  10.532  64.827  1.00  0.00    -0.412 C  
BRANCH  13  14
HETATM   14  C   UNL     1     -10.144  10.702  66.295  1.00  0.00    -0.291 C  
BRANCH  14  15
HETATM   15  C   UNL     1     -10.330   9.399  67.020  1.00  0.00    -0.322 C  
HETATM   16  C   UNL     1     -10.347   9.296  68.360  1.00  0.00    -0.244 C  
BRANCH  16  17
HETATM   17  C   UNL     1     -10.122  10.448  69.294  1.00  0.00    -0.248 C  
BRANCH  17  18
HETATM   18  C   UNL     1     -11.376  10.903  69.988  1.00  0.00    -0.386 C  
HETATM   19  C   UNL     1     -11.827  10.335  71.122  1.00  0.00    -0.455 C  
BRANCH  19  20
HETATM   20  C   UNL     1     -11.090   9.203  71.786  1.00  0.00    -0.437 C  
BRANCH  20  21
HETATM   21  C   UNL     1     -11.928   7.959  72.053  1.00  0.00    -0.364 C  
HETATM   22  C   UNL     1     -11.134   7.009  72.924  1.00  0.00    -0.278 C  
HETATM   23  O   UNL     1     -11.511   5.716  72.778  1.00  0.00    -0.299 OA 
HETATM   24  O   UNL     1     -10.261   7.340  73.707  1.00  0.00    -0.343 OA 
ENDBRANCH  20  21
ENDBRANCH  19  20
ENDBRANCH  17  18
ENDBRANCH  16  17
ENDBRANCH  14  15
ENDBRANCH  13  14
ENDBRANCH  11  12
ENDBRANCH  10  11
ENDBRANCH   8   9
ENDBRANCH   7   8
ENDBRANCH   5   6
ENDBRANCH   4   5
ENDBRANCH   2   3
TORSDOF 13
ENDMDL
MODEL       90
REMARK 921   NORMALIZED FREE ENERGY PREDICTED BY IDOCK:   -4.73 KCAL/MOL
REMARK 922        TOTAL FREE ENERGY PREDICTED BY IDOCK:  -11.09 KCAL/MOL
REMARK 923 INTER-LIGAND FREE ENERGY PREDICTED BY IDOCK:   -7.49 KCAL/MOL
REMARK 924 INTRA-LIGAND FREE ENERGY PREDICTED BY IDOCK:   -3.61 KCAL/MOL
REMARK 927      BINDING AFFINITY PREDICTED BY RF-SCORE:    0.00 PKD
ROOT
HETATM    1  C   UNL     1     -11.645  11.808  63.469  1.00  0.00    -0.487 C  
HETATM    2  C   UNL     1     -10.179  11.571  63.792  1.00  0.00    -0.429 C  
ENDROOT
BRANCH   2   3
HETATM    3  C   UNL     1      -9.968  10.363  64.659  1.00  0.00    -0.408 C  
HETATM    4  C   UNL     1      -9.208  10.323  65.767  1.00  0.00    -0.215 C  
BRANCH   4   5
HETATM    5  C   UNL     1      -8.361  11.451  66.284  1.00  0.00    -0.111 C  
BRANCH   5   6
HETATM    6  C   UNL     1      -8.257  11.433  67.785  1.00  0.00    -0.125 C  
HETATM    7  C   UNL     1      -7.955  12.480  68.573  1.00  0.00    -0.097 C  
BRANCH   7   8
HETATM    8  C   UNL     1      -7.635  13.858  68.072  1.00  0.00    -0.144 C  
BRANCH   8   9
HETATM    9  C   UNL     1      -7.636  14.883  69.168  1.00  0.00    -0.160 C  
HETATM   10  C   UNL     1      -8.519  15.883  69.329  1.00  0.00    -0.242 C  
BRANCH  10  11
HETATM   11  C   UNL     1      -9.742  16.155  68.495  1.00  0.00    -0.217 C  
BRANCH  11  12
HETATM   12  C   UNL     1      -9.427  16.792  67.169  1.00  0.00    -0.237 C  
HETATM   13  C   UNL     1      -9.533  16.220  65.959  1.00  0.00    -0.369 C  
BRANCH  13  14
HETATM   14  C   UNL     1      -9.918  14.801  65.704  1.00  0.00    -0.390 C  
BRANCH  14  15
HETATM   15  C   UNL     1     -11.402  14.608  65.566  1.00  0.00    -0.341 C  
HETATM   16  C   UNL     1     -12.146  13.943  66.467  1.00  0.00    -0.484 C  
BRANCH  16  17
HETATM   17  C   UNL     1     -11.586  13.263  67.681  1.00  0.00    -0.386 C  
BRANCH  17  18
HETATM   18  C   UNL     1     -11.859  11.784  67.711  1.00  0.00    -0.266 C  
HETATM   19  C   UNL     1     -11.917  11.079  68.855  1.00  0.00    -0.332 C  
BRANCH  19  20
HETATM   20  C   UNL     1     -11.724  11.731  70.198  1.00  0.00    -0.354 C  
BRANCH  20  21
HETATM   21  C   UNL     1     -12.703  11.285  71.277  1.00  0.00    -0.510 C  
HETATM   22  C   UNL     1     -12.376   9.863  71.679  1.00  0.00    -0.406 C  
HETATM   23  O   UNL     1     -13.443   9.198  72.184  1.00  0.00    -0.405 OA 
HETATM   24  O   UNL     1     -11.276   9.347  71.598  1.00  0.00    -0.370 OA 
ENDBRANCH  20  21
ENDBRANCH  19  20
ENDBRANCH  17  18
ENDBRANCH  16  17
ENDBRANCH  14  15
ENDBRANCH  13  14
ENDBRANCH  11  12
ENDBRANCH  10  11
ENDBRANCH   8   9
ENDBRANCH   7   8
ENDBRANCH   5   6
ENDBRANCH   4   5
ENDBRANCH   2   3
TORSDOF 13
ENDMDL
MODEL       91
REMARK 921   NORMALIZED FREE ENERGY PREDICTED BY IDOCK:   -4.72 KCAL/MOL
REMARK 922        TOTAL FREE ENERGY PREDICTED BY IDOCK:  -11.08 KCAL/MOL
REMARK 923 INTER-LIGAND FREE ENERGY PREDICTED BY IDOCK:   -8.58 KCAL/MOL
REMARK 924 INTRA-LIGAND FREE ENERGY PREDICTED BY IDOCK:   -2.49 KCAL/MOL
REMARK 927      BINDING AFFINITY PREDICTED BY RF-SCORE:    0.00 PKD
ROOT
HETATM    1  C   UNL     1     -13.066   9.397  72.204  1.00  0.00    -0.526 C  
HETATM    2  C   UNL     1     -12.145   9.372  70.996  1.00  0.00    -0.373 C  
ENDROOT
BRANCH   2   3
HETATM    3  C   UNL     1     -12.046  10.710  70.319  1.00  0.00    -0.423 C  
HETATM    4  C   UNL     1     -11.110  11.060  69.420  1.00  0.00    -0.320 C  
BRANCH   4   5
HETATM    5  C   UNL     1      -9.943  10.211  69.001  1.00  0.00    -0.216 C  
BRANCH   5   6
HETATM    6  C   UNL     1     -10.350   9.136  68.031  1.00  0.00    -0.272 C  
HETATM    7  C   UNL     1     -10.224   9.183  66.693  1.00  0.00    -0.328 C  
BRANCH   7   8
HETATM    8  C   UNL     1      -9.674  10.353  65.931  1.00  0.00    -0.272 C  
BRANCH   8   9
HETATM    9  C   UNL     1      -9.436  10.037  64.484  1.00  0.00    -0.359 C  
HETATM   10  C   UNL     1      -9.873  10.743  63.427  1.00  0.00    -0.400 C  
BRANCH  10  11
HETATM   11  C   UNL     1     -10.631  12.042  63.456  1.00  0.00    -0.514 C  
BRANCH  11  12
HETATM   12  C   UNL     1     -12.082  11.874  63.817  1.00  0.00    -0.547 C  
HETATM   13  C   UNL     1     -12.806  12.673  64.617  1.00  0.00    -0.361 C  
BRANCH  13  14
HETATM   14  C   UNL     1     -12.282  13.852  65.367  1.00  0.00    -0.463 C  
BRANCH  14  15
HETATM   15  C   UNL     1     -11.871  13.520  66.775  1.00  0.00    -0.450 C  
HETATM   16  C   UNL     1     -10.608  13.634  67.220  1.00  0.00    -0.267 C  
BRANCH  16  17
HETATM   17  C   UNL     1      -9.448  14.042  66.362  1.00  0.00    -0.278 C  
BRANCH  17  18
HETATM   18  C   UNL     1      -8.337  14.695  67.137  1.00  0.00    -0.236 C  
HETATM   19  C   UNL     1      -8.114  16.021  67.112  1.00  0.00    -0.232 C  
BRANCH  19  20
HETATM   20  C   UNL     1      -8.980  16.954  66.307  1.00  0.00    -0.305 C  
BRANCH  20  21
HETATM   21  C   UNL     1     -10.231  17.449  67.023  1.00  0.00    -0.323 C  
HETATM   22  C   UNL     1     -10.392  18.931  66.763  1.00  0.00    -0.414 C  
HETATM   23  O   UNL     1     -11.093  19.565  67.733  1.00  0.00    -0.286 OA 
HETATM   24  O   UNL     1      -9.973  19.520  65.782  1.00  0.00    -0.418 OA 
ENDBRANCH  20  21
ENDBRANCH  19  20
ENDBRANCH  17  18
ENDBRANCH  16  17
ENDBRANCH  14  15
ENDBRANCH  13  14
ENDBRANCH  11  12
ENDBRANCH  10  11
ENDBRANCH   8   9
ENDBRANCH   7   8
ENDBRANCH   5   6
ENDBRANCH   4   5
ENDBRANCH   2   3
TORSDOF 13
ENDMDL
MODEL       92
REMARK 921   NORMALIZED FREE ENERGY PREDICTED BY IDOCK:   -4.71 KCAL/MOL
REMARK 922        TOTAL FREE ENERGY PREDICTED BY IDOCK:  -11.07 KCAL/MOL
REMARK 923 INTER-LIGAND FREE ENERGY PREDICTED BY IDOCK:   -7.45 KCAL/MOL
REMARK 924 INTRA-LIGAND FREE ENERGY PREDICTED BY IDOCK:   -3.62 KCAL/MOL
REMARK 927      BINDING AFFINITY PREDICTED BY RF-SCORE:    0.00 PKD
ROOT
HETATM    1  C   UNL     1     -12.645  13.958  65.429  1.00  0.00    -0.538 C  
HETATM    2  C   UNL     1     -12.805  12.606  64.754  1.00  0.00    -0.349 C  
ENDROOT
BRANCH   2   3
HETATM    3  C   UNL     1     -11.914  12.453  63.554  1.00  0.00    -0.627 C  
HETATM    4  C   UNL     1     -10.839  11.650  63.480  1.00  0.00    -0.497 C  
BRANCH   4   5
HETATM    5  C   UNL     1     -10.280  10.834  64.612  1.00  0.00    -0.419 C  
BRANCH   5   6
HETATM    6  C   UNL     1      -9.374  11.647  65.496  1.00  0.00    -0.172 C  
HETATM    7  C   UNL     1      -9.592  11.956  66.786  1.00  0.00    -0.214 C  
BRANCH   7   8
HETATM    8  C   UNL     1     -10.814  11.561  67.562  1.00  0.00    -0.285 C  
BRANCH   8   9
HETATM    9  C   UNL     1     -11.047  12.439  68.756  1.00  0.00    -0.307 C  
HETATM   10  C   UNL     1     -11.788  12.142  69.837  1.00  0.00    -0.392 C  
BRANCH  10  11
HETATM   11  C   UNL     1     -12.488  10.841  70.126  1.00  0.00    -0.357 C  
BRANCH  11  12
HETATM   12  C   UNL     1     -12.095  10.237  71.447  1.00  0.00    -0.457 C  
HETATM   13  C   UNL     1     -11.075   9.393  71.671  1.00  0.00    -0.409 C  
BRANCH  13  14
HETATM   14  C   UNL     1     -10.174   8.828  70.624  1.00  0.00    -0.247 C  
BRANCH  14  15
HETATM   15  C   UNL     1      -8.997   9.713  70.319  1.00  0.00    -0.263 C  
HETATM   16  C   UNL     1      -8.089   9.430  69.368  1.00  0.00    -0.105 C  
BRANCH  16  17
HETATM   17  C   UNL     1      -8.099   8.179  68.542  1.00  0.00    -0.124 C  
BRANCH  17  18
HETATM   18  C   UNL     1      -8.351   8.434  67.082  1.00  0.00    -0.122 C  
HETATM   19  C   UNL     1      -9.469   8.025  66.454  1.00  0.00    -0.268 C  
BRANCH  19  20
HETATM   20  C   UNL     1     -10.561   7.288  67.183  1.00  0.00    -0.416 C  
BRANCH  20  21
HETATM   21  C   UNL     1     -10.566   5.779  66.978  1.00  0.00    -0.373 C  
HETATM   22  C   UNL     1     -10.182   5.105  68.278  1.00  0.00    -0.111 C  
HETATM   23  O   UNL     1      -9.636   3.878  68.096  1.00  0.00    -0.167 OA 
HETATM   24  O   UNL     1     -10.357   5.573  69.389  1.00  0.00    -0.231 OA 
ENDBRANCH  20  21
ENDBRANCH  19  20
ENDBRANCH  17  18
ENDBRANCH  16  17
ENDBRANCH  14  15
ENDBRANCH  13  14
ENDBRANCH  11  12
ENDBRANCH  10  11
ENDBRANCH   8   9
ENDBRANCH   7   8
ENDBRANCH   5   6
ENDBRANCH   4   5
ENDBRANCH   2   3
TORSDOF 13
ENDMDL
MODEL       93
REMARK 921   NORMALIZED FREE ENERGY PREDICTED BY IDOCK:   -4.71 KCAL/MOL
REMARK 922        TOTAL FREE ENERGY PREDICTED BY IDOCK:  -11.06 KCAL/MOL
REMARK 923 INTER-LIGAND FREE ENERGY PREDICTED BY IDOCK:   -7.81 KCAL/MOL
REMARK 924 INTRA-LIGAND FREE ENERGY PREDICTED BY IDOCK:   -3.25 KCAL/MOL
REMARK 927      BINDING AFFINITY PREDICTED BY RF-SCORE:    0.00 PKD
ROOT
HETATM    1  C   UNL     1      -9.341  15.623  65.894  1.00  0.00    -0.357 C  
HETATM    2  C   UNL     1     -10.146  16.368  66.946  1.00  0.00    -0.281 C  
ENDROOT
BRANCH   2   3
HETATM    3  C   UNL     1      -9.851  15.891  68.340  1.00  0.00    -0.214 C  
HETATM    4  C   UNL     1     -10.605  15.029  69.043  1.00  0.00    -0.245 C  
BRANCH   4   5
HETATM    5  C   UNL     1     -11.923  14.459  68.599  1.00  0.00    -0.332 C  
BRANCH   5   6
HETATM    6  C   UNL     1     -11.798  13.023  68.170  1.00  0.00    -0.381 C  
HETATM    7  C   UNL     1     -11.889  12.559  66.911  1.00  0.00    -0.404 C  
BRANCH   7   8
HETATM    8  C   UNL     1     -12.166  13.412  65.708  1.00  0.00    -0.507 C  
BRANCH   8   9
HETATM    9  C   UNL     1     -12.650  12.612  64.535  1.00  0.00    -0.491 C  
HETATM   10  C   UNL     1     -11.889  12.047  63.581  1.00  0.00    -0.602 C  
BRANCH  10  11
HETATM   11  C   UNL     1     -10.386  12.025  63.516  1.00  0.00    -0.492 C  
BRANCH  11  12
HETATM   12  C   UNL     1      -9.815  10.636  63.440  1.00  0.00    -0.376 C  
HETATM   13  C   UNL     1      -9.376   9.892  64.467  1.00  0.00    -0.336 C  
BRANCH  13  14
HETATM   14  C   UNL     1      -9.300  10.338  65.889  1.00  0.00    -0.226 C  
BRANCH  14  15
HETATM   15  C   UNL     1      -8.092  11.184  66.178  1.00  0.00    -0.111 C  
HETATM   16  C   UNL     1      -7.830  11.706  67.389  1.00  0.00    -0.147 C  
BRANCH  16  17
HETATM   17  C   UNL     1      -8.733  11.566  68.578  1.00  0.00    -0.138 C  
BRANCH  17  18
HETATM   18  C   UNL     1      -8.341  10.437  69.491  1.00  0.00    -0.126 C  
HETATM   19  C   UNL     1      -9.237   9.589  70.026  1.00  0.00    -0.264 C  
BRANCH  19  20
HETATM   20  C   UNL     1     -10.709   9.706  69.734  1.00  0.00    -0.269 C  
BRANCH  20  21
HETATM   21  C   UNL     1     -11.519  10.445  70.791  1.00  0.00    -0.422 C  
HETATM   22  C   UNL     1     -12.353   9.442  71.560  1.00  0.00    -0.370 C  
HETATM   23  O   UNL     1     -13.464   9.989  72.110  1.00  0.00    -0.428 OA 
HETATM   24  O   UNL     1     -12.072   8.267  71.714  1.00  0.00    -0.287 OA 
ENDBRANCH  20  21
ENDBRANCH  19  20
ENDBRANCH  17  18
ENDBRANCH  16  17
ENDBRANCH  14  15
ENDBRANCH  13  14
ENDBRANCH  11  12
ENDBRANCH  10  11
ENDBRANCH   8   9
ENDBRANCH   7   8
ENDBRANCH   5   6
ENDBRANCH   4   5
ENDBRANCH   2   3
TORSDOF 13
ENDMDL
MODEL       94
REMARK 921   NORMALIZED FREE ENERGY PREDICTED BY IDOCK:   -4.70 KCAL/MOL
REMARK 922        TOTAL FREE ENERGY PREDICTED BY IDOCK:  -11.05 KCAL/MOL
REMARK 923 INTER-LIGAND FREE ENERGY PREDICTED BY IDOCK:   -8.01 KCAL/MOL
REMARK 924 INTRA-LIGAND FREE ENERGY PREDICTED BY IDOCK:   -3.03 KCAL/MOL
REMARK 927      BINDING AFFINITY PREDICTED BY RF-SCORE:    0.00 PKD
ROOT
HETATM    1  C   UNL     1      -8.274   6.435  70.191  1.00  0.00    -0.129 C  
HETATM    2  C   UNL     1      -9.395   5.537  69.695  1.00  0.00    -0.172 C  
ENDROOT
BRANCH   2   3
HETATM    3  C   UNL     1     -10.541   6.315  69.112  1.00  0.00    -0.325 C  
HETATM    4  C   UNL     1     -11.634   6.712  69.786  1.00  0.00    -0.354 C  
BRANCH   4   5
HETATM    5  C   UNL     1     -11.950   6.371  71.215  1.00  0.00    -0.288 C  
BRANCH   5   6
HETATM    6  C   UNL     1     -11.331   7.349  72.176  1.00  0.00    -0.311 C  
HETATM    7  C   UNL     1     -11.855   8.527  72.558  1.00  0.00    -0.398 C  
BRANCH   7   8
HETATM    8  C   UNL     1     -13.154   9.084  72.053  1.00  0.00    -0.474 C  
BRANCH   8   9
HETATM    9  C   UNL     1     -13.087  10.561  71.800  1.00  0.00    -0.570 C  
HETATM   10  C   UNL     1     -12.516  11.169  70.746  1.00  0.00    -0.479 C  
BRANCH  10  11
HETATM   11  C   UNL     1     -11.885  10.506  69.551  1.00  0.00    -0.287 C  
BRANCH  11  12
HETATM   12  C   UNL     1     -10.423  10.206  69.742  1.00  0.00    -0.301 C  
HETATM   13  C   UNL     1      -9.524   9.953  68.778  1.00  0.00    -0.157 C  
BRANCH  13  14
HETATM   14  C   UNL     1      -9.825   9.847  67.320  1.00  0.00    -0.228 C  
BRANCH  14  15
HETATM   15  C   UNL     1      -9.307  11.012  66.524  1.00  0.00    -0.200 C  
HETATM   16  C   UNL     1     -10.081  12.039  66.133  1.00  0.00    -0.252 C  
BRANCH  16  17
HETATM   17  C   UNL     1     -11.557  12.122  66.383  1.00  0.00    -0.429 C  
BRANCH  17  18
HETATM   18  C   UNL     1     -12.087  13.529  66.351  1.00  0.00    -0.467 C  
HETATM   19  C   UNL     1     -11.934  14.388  67.376  1.00  0.00    -0.407 C  
BRANCH  19  20
HETATM   20  C   UNL     1     -11.203  13.997  68.633  1.00  0.00    -0.294 C  
BRANCH  20  21
HETATM   21  C   UNL     1     -11.923  14.342  69.930  1.00  0.00    -0.391 C  
HETATM   22  C   UNL     1     -11.377  15.650  70.461  1.00  0.00    -0.367 C  
HETATM   23  O   UNL     1     -11.518  15.776  71.803  1.00  0.00    -0.400 OA 
HETATM   24  O   UNL     1     -10.883  16.532  69.782  1.00  0.00    -0.331 OA 
ENDBRANCH  20  21
ENDBRANCH  19  20
ENDBRANCH  17  18
ENDBRANCH  16  17
ENDBRANCH  14  15
ENDBRANCH  13  14
ENDBRANCH  11  12
ENDBRANCH  10  11
ENDBRANCH   8   9
ENDBRANCH   7   8
ENDBRANCH   5   6
ENDBRANCH   4   5
ENDBRANCH   2   3
TORSDOF 13
ENDMDL
MODEL       95
REMARK 921   NORMALIZED FREE ENERGY PREDICTED BY IDOCK:   -4.69 KCAL/MOL
REMARK 922        TOTAL FREE ENERGY PREDICTED BY IDOCK:  -11.04 KCAL/MOL
REMARK 923 INTER-LIGAND FREE ENERGY PREDICTED BY IDOCK:   -7.66 KCAL/MOL
REMARK 924 INTRA-LIGAND FREE ENERGY PREDICTED BY IDOCK:   -3.38 KCAL/MOL
REMARK 927      BINDING AFFINITY PREDICTED BY RF-SCORE:    0.00 PKD
ROOT
HETATM    1  C   UNL     1     -11.579  15.085  64.669  1.00  0.00    -0.386 C  
HETATM    2  C   UNL     1     -12.358  13.783  64.581  1.00  0.00    -0.410 C  
ENDROOT
BRANCH   2   3
HETATM    3  C   UNL     1     -11.885  12.902  63.459  1.00  0.00    -0.605 C  
HETATM    4  C   UNL     1     -10.931  11.961  63.559  1.00  0.00    -0.505 C  
BRANCH   4   5
HETATM    5  C   UNL     1     -10.103  11.684  64.782  1.00  0.00    -0.304 C  
BRANCH   5   6
HETATM    6  C   UNL     1     -10.074  10.218  65.120  1.00  0.00    -0.355 C  
HETATM    7  C   UNL     1      -9.952   9.689  66.351  1.00  0.00    -0.323 C  
BRANCH   7   8
HETATM    8  C   UNL     1      -9.789  10.490  67.609  1.00  0.00    -0.192 C  
BRANCH   8   9
HETATM    9  C   UNL     1     -11.033  10.506  68.447  1.00  0.00    -0.310 C  
HETATM   10  C   UNL     1     -11.887  11.533  68.595  1.00  0.00    -0.382 C  
BRANCH  10  11
HETATM   11  C   UNL     1     -11.829  12.867  67.901  1.00  0.00    -0.388 C  
BRANCH  11  12
HETATM   12  C   UNL     1     -11.179  13.940  68.731  1.00  0.00    -0.302 C  
HETATM   13  C   UNL     1     -10.094  14.659  68.406  1.00  0.00    -0.237 C  
BRANCH  13  14
HETATM   14  C   UNL     1      -9.271  14.475  67.174  1.00  0.00    -0.233 C  
BRANCH  14  15
HETATM   15  C   UNL     1      -8.108  13.545  67.374  1.00  0.00    -0.184 C  
HETATM   16  C   UNL     1      -6.857  13.971  67.618  1.00  0.00    -0.195 C  
BRANCH  16  17
HETATM   17  C   UNL     1      -6.454  15.415  67.657  1.00  0.00    -0.190 C  
BRANCH  17  18
HETATM   18  C   UNL     1      -6.549  16.020  69.031  1.00  0.00    -0.151 C  
HETATM   19  C   UNL     1      -7.188  17.179  69.272  1.00  0.00    -0.135 C  
BRANCH  19  20
HETATM   20  C   UNL     1      -7.870  17.950  68.174  1.00  0.00    -0.266 C  
BRANCH  20  21
HETATM   21  C   UNL     1      -9.301  18.375  68.479  1.00  0.00    -0.354 C  
HETATM   22  C   UNL     1     -10.068  18.489  67.179  1.00  0.00    -0.353 C  
HETATM   23  O   UNL     1     -11.115  19.346  67.256  1.00  0.00    -0.458 OA 
HETATM   24  O   UNL     1      -9.816  17.871  66.160  1.00  0.00    -0.440 OA 
ENDBRANCH  20  21
ENDBRANCH  19  20
ENDBRANCH  17  18
ENDBRANCH  16  17
ENDBRANCH  14  15
ENDBRANCH  13  14
ENDBRANCH  11  12
ENDBRANCH  10  11
ENDBRANCH   8   9
ENDBRANCH   7   8
ENDBRANCH   5   6
ENDBRANCH   4   5
ENDBRANCH   2   3
TORSDOF 13
ENDMDL
MODEL       96
REMARK 921   NORMALIZED FREE ENERGY PREDICTED BY IDOCK:   -4.69 KCAL/MOL
REMARK 922        TOTAL FREE ENERGY PREDICTED BY IDOCK:  -11.04 KCAL/MOL
REMARK 923 INTER-LIGAND FREE ENERGY PREDICTED BY IDOCK:   -8.90 KCAL/MOL
REMARK 924 INTRA-LIGAND FREE ENERGY PREDICTED BY IDOCK:   -2.14 KCAL/MOL
REMARK 927      BINDING AFFINITY PREDICTED BY RF-SCORE:    0.00 PKD
ROOT
HETATM    1  C   UNL     1     -11.966  12.145  63.280  1.00  0.00    -0.489 C  
HETATM    2  C   UNL     1     -11.148  11.932  64.543  1.00  0.00    -0.381 C  
ENDROOT
BRANCH   2   3
HETATM    3  C   UNL     1     -10.185  10.785  64.419  1.00  0.00    -0.432 C  
HETATM    4  C   UNL     1      -9.939   9.869  65.372  1.00  0.00    -0.349 C  
BRANCH   4   5
HETATM    5  C   UNL     1     -10.511   9.881  66.762  1.00  0.00    -0.261 C  
BRANCH   5   6
HETATM    6  C   UNL     1      -9.945   8.776  67.611  1.00  0.00    -0.247 C  
HETATM    7  C   UNL     1      -9.846   8.776  68.952  1.00  0.00    -0.183 C  
BRANCH   7   8
HETATM    8  C   UNL     1     -10.262   9.914  69.836  1.00  0.00    -0.298 C  
BRANCH   8   9
HETATM    9  C   UNL     1     -11.142   9.472  70.968  1.00  0.00    -0.433 C  
HETATM   10  C   UNL     1     -12.127  10.183  71.542  1.00  0.00    -0.442 C  
BRANCH  10  11
HETATM   11  C   UNL     1     -12.618  11.546  71.134  1.00  0.00    -0.463 C  
BRANCH  11  12
HETATM   12  C   UNL     1     -13.651  12.109  72.070  1.00  0.00    -0.263 C  
HETATM   13  C   UNL     1     -13.702  13.362  72.548  1.00  0.00    -0.636 C  
BRANCH  13  14
HETATM   14  C   UNL     1     -12.686  14.426  72.296  1.00  0.00    -0.397 C  
BRANCH  14  15
HETATM   15  C   UNL     1     -13.082  15.371  71.196  1.00  0.00    -0.565 C  
HETATM   16  C   UNL     1     -12.432  15.448  70.021  1.00  0.00    -0.316 C  
BRANCH  16  17
HETATM   17  C   UNL     1     -11.204  14.654  69.687  1.00  0.00    -0.307 C  
BRANCH  17  18
HETATM   18  C   UNL     1     -11.491  13.453  68.827  1.00  0.00    -0.344 C  
HETATM   19  C   UNL     1     -11.615  13.529  67.490  1.00  0.00    -0.385 C  
BRANCH  19  20
HETATM   20  C   UNL     1     -11.460  14.833  66.754  1.00  0.00    -0.343 C  
BRANCH  20  21
HETATM   21  C   UNL     1     -10.049  15.130  66.260  1.00  0.00    -0.299 C  
HETATM   22  C   UNL     1      -9.691  16.555  66.625  1.00  0.00    -0.260 C  
HETATM   23  O   UNL     1      -8.753  17.090  65.806  1.00  0.00    -0.522 OA 
HETATM   24  O   UNL     1     -10.155  17.177  67.564  1.00  0.00    -0.282 OA 
ENDBRANCH  20  21
ENDBRANCH  19  20
ENDBRANCH  17  18
ENDBRANCH  16  17
ENDBRANCH  14  15
ENDBRANCH  13  14
ENDBRANCH  11  12
ENDBRANCH  10  11
ENDBRANCH   8   9
ENDBRANCH   7   8
ENDBRANCH   5   6
ENDBRANCH   4   5
ENDBRANCH   2   3
TORSDOF 13
ENDMDL
MODEL       97
REMARK 921   NORMALIZED FREE ENERGY PREDICTED BY IDOCK:   -4.69 KCAL/MOL
REMARK 922        TOTAL FREE ENERGY PREDICTED BY IDOCK:  -11.02 KCAL/MOL
REMARK 923 INTER-LIGAND FREE ENERGY PREDICTED BY IDOCK:   -7.63 KCAL/MOL
REMARK 924 INTRA-LIGAND FREE ENERGY PREDICTED BY IDOCK:   -3.39 KCAL/MOL
REMARK 927      BINDING AFFINITY PREDICTED BY RF-SCORE:    0.00 PKD
ROOT
HETATM    1  C   UNL     1     -12.286  14.933  64.154  1.00  0.00    -0.212 C  
HETATM    2  C   UNL     1     -12.132  13.427  64.016  1.00  0.00    -0.506 C  
ENDROOT
BRANCH   2   3
HETATM    3  C   UNL     1     -12.230  12.714  65.335  1.00  0.00    -0.517 C  
HETATM    4  C   UNL     1     -11.405  11.741  65.756  1.00  0.00    -0.309 C  
BRANCH   4   5
HETATM    5  C   UNL     1     -10.296  11.127  64.948  1.00  0.00    -0.375 C  
BRANCH   5   6
HETATM    6  C   UNL     1      -9.853   9.806  65.516  1.00  0.00    -0.378 C  
HETATM    7  C   UNL     1      -8.830   9.610  66.366  1.00  0.00    -0.168 C  
BRANCH   7   8
HETATM    8  C   UNL     1      -7.925  10.694  66.873  1.00  0.00    -0.124 C  
BRANCH   8   9
HETATM    9  C   UNL     1      -8.459  11.360  68.107  1.00  0.00    -0.152 C  
HETATM   10  C   UNL     1      -8.455  12.677  68.373  1.00  0.00    -0.121 C  
BRANCH  10  11
HETATM   11  C   UNL     1      -7.985  13.783  67.468  1.00  0.00    -0.190 C  
BRANCH  11  12
HETATM   12  C   UNL     1      -9.095  14.403  66.664  1.00  0.00    -0.265 C  
HETATM   13  C   UNL     1     -10.055  15.223  67.120  1.00  0.00    -0.240 C  
BRANCH  13  14
HETATM   14  C   UNL     1     -10.248  15.620  68.546  1.00  0.00    -0.211 C  
BRANCH  14  15
HETATM   15  C   UNL     1     -11.695  15.733  68.935  1.00  0.00    -0.404 C  
HETATM   16  C   UNL     1     -12.347  14.787  69.634  1.00  0.00    -0.253 C  
BRANCH  16  17
HETATM   17  C   UNL     1     -11.737  13.484  70.055  1.00  0.00    -0.311 C  
BRANCH  17  18
HETATM   18  C   UNL     1     -11.893  12.396  69.029  1.00  0.00    -0.349 C  
HETATM   19  C   UNL     1     -11.930  11.091  69.352  1.00  0.00    -0.408 C  
BRANCH  19  20
HETATM   20  C   UNL     1     -11.830  10.626  70.780  1.00  0.00    -0.459 C  
BRANCH  20  21
HETATM   21  C   UNL     1     -13.157  10.254  71.430  1.00  0.00    -0.512 C  
HETATM   22  C   UNL     1     -13.017   8.900  72.092  1.00  0.00    -0.416 C  
HETATM   23  O   UNL     1     -14.197   8.244  72.209  1.00  0.00    -0.362 OA 
HETATM   24  O   UNL     1     -11.975   8.429  72.513  1.00  0.00    -0.393 OA 
ENDBRANCH  20  21
ENDBRANCH  19  20
ENDBRANCH  17  18
ENDBRANCH  16  17
ENDBRANCH  14  15
ENDBRANCH  13  14
ENDBRANCH  11  12
ENDBRANCH  10  11
ENDBRANCH   8   9
ENDBRANCH   7   8
ENDBRANCH   5   6
ENDBRANCH   4   5
ENDBRANCH   2   3
TORSDOF 13
ENDMDL
MODEL       98
REMARK 921   NORMALIZED FREE ENERGY PREDICTED BY IDOCK:   -4.68 KCAL/MOL
REMARK 922        TOTAL FREE ENERGY PREDICTED BY IDOCK:  -11.01 KCAL/MOL
REMARK 923 INTER-LIGAND FREE ENERGY PREDICTED BY IDOCK:   -8.93 KCAL/MOL
REMARK 924 INTRA-LIGAND FREE ENERGY PREDICTED BY IDOCK:   -2.09 KCAL/MOL
REMARK 927      BINDING AFFINITY PREDICTED BY RF-SCORE:    0.00 PKD
ROOT
HETATM    1  C   UNL     1      -9.693   5.231  70.645  1.00  0.00    -0.249 C  
HETATM    2  C   UNL     1     -10.818   5.499  71.631  1.00  0.00    -0.271 C  
ENDROOT
BRANCH   2   3
HETATM    3  C   UNL     1     -10.357   6.270  72.836  1.00  0.00    -0.226 C  
HETATM    4  C   UNL     1     -10.774   7.501  73.178  1.00  0.00    -0.452 C  
BRANCH   4   5
HETATM    5  C   UNL     1     -11.703   8.363  72.371  1.00  0.00    -0.452 C  
BRANCH   5   6
HETATM    6  C   UNL     1     -10.957   9.241  71.403  1.00  0.00    -0.429 C  
HETATM    7  C   UNL     1     -11.470  10.268  70.703  1.00  0.00    -0.435 C  
BRANCH   7   8
HETATM    8  C   UNL     1     -12.908  10.694  70.749  1.00  0.00    -0.439 C  
BRANCH   8   9
HETATM    9  C   UNL     1     -13.212  11.564  71.934  1.00  0.00    -0.479 C  
HETATM   10  C   UNL     1     -13.323  12.903  71.937  1.00  0.00    -0.530 C  
BRANCH  10  11
HETATM   11  C   UNL     1     -13.242  13.822  70.749  1.00  0.00    -0.077 C  
BRANCH  11  12
HETATM   12  C   UNL     1     -11.831  14.188  70.377  1.00  0.00    -0.367 C  
HETATM   13  C   UNL     1     -11.260  14.055  69.170  1.00  0.00    -0.308 C  
BRANCH  13  14
HETATM   14  C   UNL     1     -11.904  13.441  67.971  1.00  0.00    -0.392 C  
BRANCH  14  15
HETATM   15  C   UNL     1     -12.033  14.396  66.817  1.00  0.00    -0.423 C  
HETATM   16  C   UNL     1     -12.342  14.005  65.569  1.00  0.00    -0.503 C  
BRANCH  16  17
HETATM   17  C   UNL     1     -12.533  12.576  65.158  1.00  0.00    -0.451 C  
BRANCH  17  18
HETATM   18  C   UNL     1     -11.937  12.260  63.814  1.00  0.00    -0.609 C  
HETATM   19  C   UNL     1     -10.707  11.735  63.670  1.00  0.00    -0.503 C  
BRANCH  19  20
HETATM   20  C   UNL     1      -9.840  11.411  64.858  1.00  0.00    -0.301 C  
BRANCH  20  21
HETATM   21  C   UNL     1      -9.664   9.925  65.141  1.00  0.00    -0.376 C  
HETATM   22  C   UNL     1     -10.127   9.635  66.553  1.00  0.00    -0.244 C  
HETATM   23  O   UNL     1      -9.538   8.538  67.087  1.00  0.00    -0.157 OA 
HETATM   24  O   UNL     1     -10.960  10.281  67.164  1.00  0.00    -0.251 OA 
ENDBRANCH  20  21
ENDBRANCH  19  20
ENDBRANCH  17  18
ENDBRANCH  16  17
ENDBRANCH  14  15
ENDBRANCH  13  14
ENDBRANCH  11  12
ENDBRANCH  10  11
ENDBRANCH   8   9
ENDBRANCH   7   8
ENDBRANCH   5   6
ENDBRANCH   4   5
ENDBRANCH   2   3
TORSDOF 13
ENDMDL
MODEL       99
REMARK 921   NORMALIZED FREE ENERGY PREDICTED BY IDOCK:   -4.68 KCAL/MOL
REMARK 922        TOTAL FREE ENERGY PREDICTED BY IDOCK:  -11.01 KCAL/MOL
REMARK 923 INTER-LIGAND FREE ENERGY PREDICTED BY IDOCK:   -8.82 KCAL/MOL
REMARK 924 INTRA-LIGAND FREE ENERGY PREDICTED BY IDOCK:   -2.19 KCAL/MOL
REMARK 927      BINDING AFFINITY PREDICTED BY RF-SCORE:    0.00 PKD
ROOT
HETATM    1  C   UNL     1     -13.694  15.694  72.684  1.00  0.00    -0.666 C  
HETATM    2  C   UNL     1     -14.041  14.602  71.686  1.00  0.00    -0.571 C  
ENDROOT
BRANCH   2   3
HETATM    3  C   UNL     1     -13.770  13.224  72.221  1.00  0.00    -0.686 C  
HETATM    4  C   UNL     1     -12.969  12.310  71.647  1.00  0.00    -0.416 C  
BRANCH   4   5
HETATM    5  C   UNL     1     -12.277  12.466  70.322  1.00  0.00    -0.345 C  
BRANCH   5   6
HETATM    6  C   UNL     1     -12.044  11.140  69.651  1.00  0.00    -0.406 C  
HETATM    7  C   UNL     1     -11.474  10.948  68.449  1.00  0.00    -0.374 C  
BRANCH   7   8
HETATM    8  C   UNL     1     -10.998  12.049  67.547  1.00  0.00    -0.303 C  
BRANCH   8   9
HETATM    9  C   UNL     1     -12.103  12.631  66.716  1.00  0.00    -0.236 C  
HETATM   10  C   UNL     1     -12.272  13.926  66.401  1.00  0.00    -0.487 C  
BRANCH  10  11
HETATM   11  C   UNL     1     -11.355  15.069  66.743  1.00  0.00    -0.293 C  
BRANCH  11  12
HETATM   12  C   UNL     1     -11.371  15.425  68.205  1.00  0.00    -0.353 C  
HETATM   13  C   UNL     1     -10.329  15.391  69.050  1.00  0.00    -0.243 C  
BRANCH  13  14
HETATM   14  C   UNL     1      -8.955  14.916  68.711  1.00  0.00    -0.188 C  
BRANCH  14  15
HETATM   15  C   UNL     1      -7.875  15.660  69.446  1.00  0.00    -0.222 C  
HETATM   16  C   UNL     1      -7.346  16.816  69.006  1.00  0.00    -0.231 C  
BRANCH  16  17
HETATM   17  C   UNL     1      -7.718  17.470  67.709  1.00  0.00    -0.209 C  
BRANCH  17  18
HETATM   18  C   UNL     1      -6.803  18.602  67.332  1.00  0.00    -0.206 C  
HETATM   19  C   UNL     1      -7.237  19.864  67.167  1.00  0.00    -0.272 C  
BRANCH  19  20
HETATM   20  C   UNL     1      -8.682  20.235  67.364  1.00  0.00    -0.428 C  
BRANCH  20  21
HETATM   21  C   UNL     1      -9.538  20.183  66.105  1.00  0.00    -0.440 C  
HETATM   22  C   UNL     1     -10.651  19.177  66.308  1.00  0.00    -0.434 C  
HETATM   23  O   UNL     1     -11.111  18.656  65.145  1.00  0.00    -0.449 OA 
HETATM   24  O   UNL     1     -11.126  18.866  67.385  1.00  0.00    -0.359 OA 
ENDBRANCH  20  21
ENDBRANCH  19  20
ENDBRANCH  17  18
ENDBRANCH  16  17
ENDBRANCH  14  15
ENDBRANCH  13  14
ENDBRANCH  11  12
ENDBRANCH  10  11
ENDBRANCH   8   9
ENDBRANCH   7   8
ENDBRANCH   5   6
ENDBRANCH   4   5
ENDBRANCH   2   3
TORSDOF 13
ENDMDL
MODEL      100
REMARK 921   NORMALIZED FREE ENERGY PREDICTED BY IDOCK:   -4.68 KCAL/MOL
REMARK 922        TOTAL FREE ENERGY PREDICTED BY IDOCK:  -11.00 KCAL/MOL
REMARK 923 INTER-LIGAND FREE ENERGY PREDICTED BY IDOCK:   -8.40 KCAL/MOL
REMARK 924 INTRA-LIGAND FREE ENERGY PREDICTED BY IDOCK:   -2.61 KCAL/MOL
REMARK 927      BINDING AFFINITY PREDICTED BY RF-SCORE:    0.00 PKD
ROOT
HETATM    1  C   UNL     1     -11.585  15.601  72.208  1.00  0.00    -0.534 C  
HETATM    2  C   UNL     1     -12.841  15.101  71.512  1.00  0.00    -0.442 C  
ENDROOT
BRANCH   2   3
HETATM    3  C   UNL     1     -13.558  14.045  72.305  1.00  0.00    -0.622 C  
HETATM    4  C   UNL     1     -13.376  12.719  72.178  1.00  0.00    -0.593 C  
BRANCH   4   5
HETATM    5  C   UNL     1     -12.496  12.053  71.158  1.00  0.00    -0.353 C  
BRANCH   5   6
HETATM    6  C   UNL     1     -13.082  10.755  70.672  1.00  0.00    -0.204 C  
HETATM    7  C   UNL     1     -12.606   9.524  70.928  1.00  0.00    -0.251 C  
BRANCH   7   8
HETATM    8  C   UNL     1     -11.370   9.239  71.729  1.00  0.00    -0.437 C  
BRANCH   8   9
HETATM    9  C   UNL     1     -11.516   8.027  72.602  1.00  0.00    -0.465 C  
HETATM   10  C   UNL     1     -11.042   6.795  72.349  1.00  0.00    -0.292 C  
BRANCH  10  11
HETATM   11  C   UNL     1     -10.196   6.372  71.179  1.00  0.00    -0.224 C  
BRANCH  11  12
HETATM   12  C   UNL     1     -11.004   6.023  69.959  1.00  0.00    -0.450 C  
HETATM   13  C   UNL     1     -11.032   6.694  68.797  1.00  0.00    -0.322 C  
BRANCH  13  14
HETATM   14  C   UNL     1     -10.315   7.973  68.518  1.00  0.00    -0.229 C  
BRANCH  14  15
HETATM   15  C   UNL     1     -10.292   8.331  67.058  1.00  0.00    -0.393 C  
HETATM   16  C   UNL     1     -10.235   9.597  66.610  1.00  0.00    -0.302 C  
BRANCH  16  17
HETATM   17  C   UNL     1     -10.250  10.804  67.500  1.00  0.00    -0.231 C  
BRANCH  17  18
HETATM   18  C   UNL     1     -11.590  11.484  67.555  1.00  0.00    -0.322 C  
HETATM   19  C   UNL     1     -11.736  12.815  67.424  1.00  0.00    -0.425 C  
BRANCH  19  20
HETATM   20  C   UNL     1     -10.556  13.722  67.197  1.00  0.00    -0.277 C  
BRANCH  20  21
HETATM   21  C   UNL     1      -9.991  14.372  68.454  1.00  0.00    -0.241 C  
HETATM   22  C   UNL     1     -10.317  15.850  68.432  1.00  0.00    -0.240 C  
HETATM   23  O   UNL     1      -9.447  16.593  69.157  1.00  0.00    -0.252 OA 
HETATM   24  O   UNL     1     -11.267  16.350  67.857  1.00  0.00    -0.295 OA 
ENDBRANCH  20  21
ENDBRANCH  19  20
ENDBRANCH  17  18
ENDBRANCH  16  17
ENDBRANCH  14  15
ENDBRANCH  13  14
ENDBRANCH  11  12
ENDBRANCH  10  11
ENDBRANCH   8   9
ENDBRANCH   7   8
ENDBRANCH   5   6
ENDBRANCH   4   5
ENDBRANCH   2   3
TORSDOF 13
ENDMDL
MODEL      101
REMARK 921   NORMALIZED FREE ENERGY PREDICTED BY IDOCK:   -4.66 KCAL/MOL
REMARK 922        TOTAL FREE ENERGY PREDICTED BY IDOCK:  -10.98 KCAL/MOL
REMARK 923 INTER-LIGAND FREE ENERGY PREDICTED BY IDOCK:   -8.45 KCAL/MOL
REMARK 924 INTRA-LIGAND FREE ENERGY PREDICTED BY IDOCK:   -2.53 KCAL/MOL
REMARK 927      BINDING AFFINITY PREDICTED BY RF-SCORE:    0.00 PKD
ROOT
HETATM    1  C   UNL     1      -5.986  19.125  65.182  1.00  0.00    -0.289 C  
HETATM    2  C   UNL     1      -7.067  20.088  65.645  1.00  0.00    -0.338 C  
ENDROOT
BRANCH   2   3
HETATM    3  C   UNL     1      -6.747  20.721  66.969  1.00  0.00    -0.375 C  
HETATM    4  C   UNL     1      -7.148  20.263  68.168  1.00  0.00    -0.295 C  
BRANCH   4   5
HETATM    5  C   UNL     1      -8.063  19.093  68.392  1.00  0.00    -0.378 C  
BRANCH   5   6
HETATM    6  C   UNL     1      -9.495  19.431  68.078  1.00  0.00    -0.413 C  
HETATM    7  C   UNL     1     -10.283  18.802  67.188  1.00  0.00    -0.433 C  
BRANCH   7   8
HETATM    8  C   UNL     1      -9.845  17.657  66.324  1.00  0.00    -0.297 C  
BRANCH   8   9
HETATM    9  C   UNL     1     -10.828  16.523  66.329  1.00  0.00    -0.037 C  
HETATM   10  C   UNL     1     -10.897  15.526  67.228  1.00  0.00    -0.313 C  
BRANCH  10  11
HETATM   11  C   UNL     1     -10.058  15.363  68.466  1.00  0.00    -0.213 C  
BRANCH  11  12
HETATM   12  C   UNL     1     -10.694  15.951  69.695  1.00  0.00    -0.304 C  
HETATM   13  C   UNL     1     -11.771  15.482  70.344  1.00  0.00    -0.363 C  
BRANCH  13  14
HETATM   14  C   UNL     1     -12.597  14.314  69.917  1.00  0.00    -0.214 C  
BRANCH  14  15
HETATM   15  C   UNL     1     -12.444  13.122  70.820  1.00  0.00    -0.389 C  
HETATM   16  C   UNL     1     -12.129  11.894  70.372  1.00  0.00    -0.421 C  
BRANCH  16  17
HETATM   17  C   UNL     1     -11.953  11.547  68.924  1.00  0.00    -0.364 C  
BRANCH  17  18
HETATM   18  C   UNL     1     -10.587  11.884  68.395  1.00  0.00    -0.239 C  
HETATM   19  C   UNL     1     -10.301  11.906  67.081  1.00  0.00    -0.235 C  
BRANCH  19  20
HETATM   20  C   UNL     1     -11.344  11.605  66.039  1.00  0.00    -0.261 C  
BRANCH  20  21
HETATM   21  C   UNL     1     -12.094  12.821  65.508  1.00  0.00    -0.517 C  
HETATM   22  C   UNL     1     -12.279  12.669  64.013  1.00  0.00    -0.463 C  
HETATM   23  O   UNL     1     -12.418  13.856  63.375  1.00  0.00    -0.833 OA 
HETATM   24  O   UNL     1     -12.332  11.608  63.417  1.00  0.00    -0.469 OA 
ENDBRANCH  20  21
ENDBRANCH  19  20
ENDBRANCH  17  18
ENDBRANCH  16  17
ENDBRANCH  14  15
ENDBRANCH  13  14
ENDBRANCH  11  12
ENDBRANCH  10  11
ENDBRANCH   8   9
ENDBRANCH   7   8
ENDBRANCH   5   6
ENDBRANCH   4   5
ENDBRANCH   2   3
TORSDOF 13
ENDMDL
MODEL      102
REMARK 921   NORMALIZED FREE ENERGY PREDICTED BY IDOCK:   -4.66 KCAL/MOL
REMARK 922        TOTAL FREE ENERGY PREDICTED BY IDOCK:  -10.97 KCAL/MOL
REMARK 923 INTER-LIGAND FREE ENERGY PREDICTED BY IDOCK:   -8.96 KCAL/MOL
REMARK 924 INTRA-LIGAND FREE ENERGY PREDICTED BY IDOCK:   -2.01 KCAL/MOL
REMARK 927      BINDING AFFINITY PREDICTED BY RF-SCORE:    0.00 PKD
ROOT
HETATM    1  C   UNL     1     -10.765   5.877  70.871  1.00  0.00    -0.338 C  
HETATM    2  C   UNL     1     -12.011   6.747  70.841  1.00  0.00    -0.437 C  
ENDROOT
BRANCH   2   3
HETATM    3  C   UNL     1     -12.127   7.630  72.051  1.00  0.00    -0.336 C  
HETATM    4  C   UNL     1     -11.696   8.901  72.132  1.00  0.00    -0.411 C  
BRANCH   4   5
HETATM    5  C   UNL     1     -10.939   9.635  71.061  1.00  0.00    -0.431 C  
BRANCH   5   6
HETATM    6  C   UNL     1     -11.860  10.236  70.034  1.00  0.00    -0.305 C  
HETATM    7  C   UNL     1     -12.397  11.468  70.074  1.00  0.00    -0.287 C  
BRANCH   7   8
HETATM    8  C   UNL     1     -12.186  12.453  71.186  1.00  0.00    -0.092 C  
BRANCH   8   9
HETATM    9  C   UNL     1     -13.344  12.499  72.140  1.00  0.00    -0.540 C  
HETATM   10  C   UNL     1     -14.030  13.592  72.515  1.00  0.00    -0.572 C  
BRANCH  10  11
HETATM   11  C   UNL     1     -13.844  14.997  72.009  1.00  0.00    -0.578 C  
BRANCH  11  12
HETATM   12  C   UNL     1     -12.537  15.611  72.430  1.00  0.00    -0.510 C  
HETATM   13  C   UNL     1     -11.548  16.026  71.623  1.00  0.00    -0.538 C  
BRANCH  13  14
HETATM   14  C   UNL     1     -11.528  15.885  70.137  1.00  0.00    -0.366 C  
BRANCH  14  15
HETATM   15  C   UNL     1     -10.295  15.194  69.626  1.00  0.00    -0.238 C  
HETATM   16  C   UNL     1     -10.302  14.353  68.577  1.00  0.00    -0.248 C  
BRANCH  16  17
HETATM   17  C   UNL     1     -11.539  13.953  67.829  1.00  0.00    -0.381 C  
BRANCH  17  18
HETATM   18  C   UNL     1     -11.704  14.682  66.524  1.00  0.00    -0.335 C  
HETATM   19  C   UNL     1     -11.470  14.102  65.333  1.00  0.00    -0.325 C  
BRANCH  19  20
HETATM   20  C   UNL     1     -11.035  12.665  65.224  1.00  0.00    -0.320 C  
BRANCH  20  21
HETATM   21  C   UNL     1     -10.764  12.180  63.806  1.00  0.00    -0.488 C  
HETATM   22  C   UNL     1     -10.029  10.858  63.870  1.00  0.00    -0.343 C  
HETATM   23  O   UNL     1      -9.281  10.615  62.768  1.00  0.00    -0.243 OA 
HETATM   24  O   UNL     1     -10.102  10.060  64.787  1.00  0.00    -0.296 OA 
ENDBRANCH  20  21
ENDBRANCH  19  20
ENDBRANCH  17  18
ENDBRANCH  16  17
ENDBRANCH  14  15
ENDBRANCH  13  14
ENDBRANCH  11  12
ENDBRANCH  10  11
ENDBRANCH   8   9
ENDBRANCH   7   8
ENDBRANCH   5   6
ENDBRANCH   4   5
ENDBRANCH   2   3
TORSDOF 13
ENDMDL
MODEL      103
REMARK 921   NORMALIZED FREE ENERGY PREDICTED BY IDOCK:   -4.65 KCAL/MOL
REMARK 922        TOTAL FREE ENERGY PREDICTED BY IDOCK:  -10.96 KCAL/MOL
REMARK 923 INTER-LIGAND FREE ENERGY PREDICTED BY IDOCK:   -7.31 KCAL/MOL
REMARK 924 INTRA-LIGAND FREE ENERGY PREDICTED BY IDOCK:   -3.65 KCAL/MOL
REMARK 927      BINDING AFFINITY PREDICTED BY RF-SCORE:    0.00 PKD
ROOT
HETATM    1  C   UNL     1      -6.123  15.168  70.073  1.00  0.00    -0.148 C  
HETATM    2  C   UNL     1      -6.155  15.991  68.796  1.00  0.00    -0.110 C  
ENDROOT
BRANCH   2   3
HETATM    3  C   UNL     1      -6.607  17.404  69.032  1.00  0.00    -0.232 C  
HETATM    4  C   UNL     1      -7.450  18.094  68.244  1.00  0.00    -0.280 C  
BRANCH   4   5
HETATM    5  C   UNL     1      -8.018  17.609  66.940  1.00  0.00    -0.252 C  
BRANCH   5   6
HETATM    6  C   UNL     1      -9.360  18.223  66.649  1.00  0.00    -0.304 C  
HETATM    7  C   UNL     1     -10.409  17.606  66.079  1.00  0.00    -0.305 C  
BRANCH   7   8
HETATM    8  C   UNL     1     -10.403  16.184  65.600  1.00  0.00    -0.405 C  
BRANCH   8   9
HETATM    9  C   UNL     1     -11.364  15.953  64.471  1.00  0.00    -0.316 C  
HETATM   10  C   UNL     1     -12.278  14.971  64.385  1.00  0.00    -0.353 C  
BRANCH  10  11
HETATM   11  C   UNL     1     -12.594  13.934  65.428  1.00  0.00    -0.538 C  
BRANCH  11  12
HETATM   12  C   UNL     1     -12.235  12.537  65.003  1.00  0.00    -0.519 C  
HETATM   13  C   UNL     1     -11.387  11.702  65.625  1.00  0.00    -0.233 C  
BRANCH  13  14
HETATM   14  C   UNL     1     -10.575  12.035  66.832  1.00  0.00    -0.260 C  
BRANCH  14  15
HETATM   15  C   UNL     1      -9.359  12.861  66.515  1.00  0.00    -0.224 C  
HETATM   16  C   UNL     1      -8.756  13.660  67.413  1.00  0.00    -0.214 C  
BRANCH  16  17
HETATM   17  C   UNL     1      -9.250  13.874  68.812  1.00  0.00    -0.013 C  
BRANCH  17  18
HETATM   18  C   UNL     1      -9.749  15.272  69.058  1.00  0.00    -0.234 C  
HETATM   19  C   UNL     1     -11.052  15.559  69.231  1.00  0.00    -0.285 C  
BRANCH  19  20
HETATM   20  C   UNL     1     -12.109  14.487  69.205  1.00  0.00    -0.325 C  
BRANCH  20  21
HETATM   21  C   UNL     1     -12.338  13.777  70.533  1.00  0.00    -0.429 C  
HETATM   22  C   UNL     1     -13.187  14.660  71.423  1.00  0.00    -0.357 C  
HETATM   23  O   UNL     1     -13.003  14.413  72.742  1.00  0.00    -0.438 OA 
HETATM   24  O   UNL     1     -13.982  15.494  71.029  1.00  0.00    -0.535 OA 
ENDBRANCH  20  21
ENDBRANCH  19  20
ENDBRANCH  17  18
ENDBRANCH  16  17
ENDBRANCH  14  15
ENDBRANCH  13  14
ENDBRANCH  11  12
ENDBRANCH  10  11
ENDBRANCH   8   9
ENDBRANCH   7   8
ENDBRANCH   5   6
ENDBRANCH   4   5
ENDBRANCH   2   3
TORSDOF 13
ENDMDL
MODEL      104
REMARK 921   NORMALIZED FREE ENERGY PREDICTED BY IDOCK:   -4.64 KCAL/MOL
REMARK 922        TOTAL FREE ENERGY PREDICTED BY IDOCK:  -10.95 KCAL/MOL
REMARK 923 INTER-LIGAND FREE ENERGY PREDICTED BY IDOCK:   -8.40 KCAL/MOL
REMARK 924 INTRA-LIGAND FREE ENERGY PREDICTED BY IDOCK:   -2.55 KCAL/MOL
REMARK 927      BINDING AFFINITY PREDICTED BY RF-SCORE:    0.00 PKD
ROOT
HETATM    1  C   UNL     1     -11.244   6.198  69.215  1.00  0.00    -0.438 C  
HETATM    2  C   UNL     1     -10.190   6.117  70.306  1.00  0.00    -0.254 C  
ENDROOT
BRANCH   2   3
HETATM    3  C   UNL     1     -10.788   6.016  71.681  1.00  0.00    -0.314 C  
HETATM    4  C   UNL     1     -11.254   7.049  72.404  1.00  0.00    -0.305 C  
BRANCH   4   5
HETATM    5  C   UNL     1     -11.174   8.497  72.009  1.00  0.00    -0.418 C  
BRANCH   5   6
HETATM    6  C   UNL     1     -12.502   9.191  72.150  1.00  0.00    -0.436 C  
HETATM    7  C   UNL     1     -13.014  10.105  71.307  1.00  0.00    -0.510 C  
BRANCH   7   8
HETATM    8  C   UNL     1     -12.317  10.616  70.080  1.00  0.00    -0.370 C  
BRANCH   8   9
HETATM    9  C   UNL     1     -12.019  12.084  70.158  1.00  0.00    -0.401 C  
HETATM   10  C   UNL     1     -11.776  12.908  69.124  1.00  0.00    -0.376 C  
BRANCH  10  11
HETATM   11  C   UNL     1     -11.823  12.563  67.660  1.00  0.00    -0.381 C  
BRANCH  11  12
HETATM   12  C   UNL     1     -12.156  13.740  66.784  1.00  0.00    -0.460 C  
HETATM   13  C   UNL     1     -12.506  13.702  65.489  1.00  0.00    -0.544 C  
BRANCH  13  14
HETATM   14  C   UNL     1     -12.560  12.474  64.643  1.00  0.00    -0.507 C  
BRANCH  14  15
HETATM   15  C   UNL     1     -11.550  12.479  63.529  1.00  0.00    -0.584 C  
HETATM   16  C   UNL     1     -10.302  11.999  63.664  1.00  0.00    -0.482 C  
BRANCH  16  17
HETATM   17  C   UNL     1      -9.743  11.458  64.947  1.00  0.00    -0.283 C  
BRANCH  17  18
HETATM   18  C   UNL     1      -9.924   9.973  65.093  1.00  0.00    -0.350 C  
HETATM   19  C   UNL     1      -9.664   9.318  66.239  1.00  0.00    -0.340 C  
BRANCH  19  20
HETATM   20  C   UNL     1      -9.184  10.038  67.470  1.00  0.00    -0.151 C  
BRANCH  20  21
HETATM   21  C   UNL     1      -9.291   9.241  68.765  1.00  0.00    -0.139 C  
HETATM   22  C   UNL     1      -8.170   9.659  69.692  1.00  0.00    -0.144 C  
HETATM   23  O   UNL     1      -7.834   8.695  70.583  1.00  0.00    -0.079 OA 
HETATM   24  O   UNL     1      -7.623  10.747  69.685  1.00  0.00    -0.131 OA 
ENDBRANCH  20  21
ENDBRANCH  19  20
ENDBRANCH  17  18
ENDBRANCH  16  17
ENDBRANCH  14  15
ENDBRANCH  13  14
ENDBRANCH  11  12
ENDBRANCH  10  11
ENDBRANCH   8   9
ENDBRANCH   7   8
ENDBRANCH   5   6
ENDBRANCH   4   5
ENDBRANCH   2   3
TORSDOF 13
ENDMDL
MODEL      105
REMARK 921   NORMALIZED FREE ENERGY PREDICTED BY IDOCK:   -4.64 KCAL/MOL
REMARK 922        TOTAL FREE ENERGY PREDICTED BY IDOCK:  -10.94 KCAL/MOL
REMARK 923 INTER-LIGAND FREE ENERGY PREDICTED BY IDOCK:   -8.38 KCAL/MOL
REMARK 924 INTRA-LIGAND FREE ENERGY PREDICTED BY IDOCK:   -2.56 KCAL/MOL
REMARK 927      BINDING AFFINITY PREDICTED BY RF-SCORE:    0.00 PKD
ROOT
HETATM    1  C   UNL     1     -12.769  15.404  71.813  1.00  0.00    -0.467 C  
HETATM    2  C   UNL     1     -12.718  14.022  71.183  1.00  0.00    -0.436 C  
ENDROOT
BRANCH   2   3
HETATM    3  C   UNL     1     -13.273  12.956  72.085  1.00  0.00    -0.552 C  
HETATM    4  C   UNL     1     -13.159  11.631  71.886  1.00  0.00    -0.490 C  
BRANCH   4   5
HETATM    5  C   UNL     1     -12.538  10.980  70.682  1.00  0.00    -0.427 C  
BRANCH   5   6
HETATM    6  C   UNL     1     -11.563   9.901  71.067  1.00  0.00    -0.470 C  
HETATM    7  C   UNL     1     -10.436   9.577  70.409  1.00  0.00    -0.336 C  
BRANCH   7   8
HETATM    8  C   UNL     1      -9.974  10.231  69.140  1.00  0.00    -0.235 C  
BRANCH   8   9
HETATM    9  C   UNL     1     -10.038   9.305  67.961  1.00  0.00    -0.234 C  
HETATM   10  C   UNL     1      -9.936   9.649  66.666  1.00  0.00    -0.301 C  
BRANCH  10  11
HETATM   11  C   UNL     1      -9.662  11.021  66.111  1.00  0.00    -0.257 C  
BRANCH  11  12
HETATM   12  C   UNL     1     -10.838  11.614  65.385  1.00  0.00    -0.336 C  
HETATM   13  C   UNL     1     -11.801  12.385  65.913  1.00  0.00    -0.467 C  
BRANCH  13  14
HETATM   14  C   UNL     1     -11.928  12.744  67.356  1.00  0.00    -0.335 C  
BRANCH  14  15
HETATM   15  C   UNL     1     -12.185  14.208  67.580  1.00  0.00    -0.258 C  
HETATM   16  C   UNL     1     -11.207  15.101  67.812  1.00  0.00    -0.327 C  
BRANCH  16  17
HETATM   17  C   UNL     1      -9.756  14.744  67.938  1.00  0.00    -0.211 C  
BRANCH  17  18
HETATM   18  C   UNL     1      -8.988  14.922  66.658  1.00  0.00    -0.301 C  
HETATM   19  C   UNL     1      -8.304  16.044  66.370  1.00  0.00    -0.344 C  
BRANCH  19  20
HETATM   20  C   UNL     1      -8.250  17.205  67.327  1.00  0.00    -0.206 C  
BRANCH  20  21
HETATM   21  C   UNL     1      -9.314  18.273  67.104  1.00  0.00    -0.264 C  
HETATM   22  C   UNL     1      -9.256  19.270  68.242  1.00  0.00    -0.341 C  
HETATM   23  O   UNL     1     -10.435  19.905  68.450  1.00  0.00    -0.430 OA 
HETATM   24  O   UNL     1      -8.265  19.521  68.903  1.00  0.00    -0.359 OA 
ENDBRANCH  20  21
ENDBRANCH  19  20
ENDBRANCH  17  18
ENDBRANCH  16  17
ENDBRANCH  14  15
ENDBRANCH  13  14
ENDBRANCH  11  12
ENDBRANCH  10  11
ENDBRANCH   8   9
ENDBRANCH   7   8
ENDBRANCH   5   6
ENDBRANCH   4   5
ENDBRANCH   2   3
TORSDOF 13
ENDMDL
MODEL      106
REMARK 921   NORMALIZED FREE ENERGY PREDICTED BY IDOCK:   -4.64 KCAL/MOL
REMARK 922        TOTAL FREE ENERGY PREDICTED BY IDOCK:  -10.94 KCAL/MOL
REMARK 923 INTER-LIGAND FREE ENERGY PREDICTED BY IDOCK:   -8.42 KCAL/MOL
REMARK 924 INTRA-LIGAND FREE ENERGY PREDICTED BY IDOCK:   -2.52 KCAL/MOL
REMARK 927      BINDING AFFINITY PREDICTED BY RF-SCORE:    0.00 PKD
ROOT
HETATM    1  C   UNL     1     -12.823  13.736  65.312  1.00  0.00    -0.430 C  
HETATM    2  C   UNL     1     -11.509  13.658  64.554  1.00  0.00    -0.401 C  
ENDROOT
BRANCH   2   3
HETATM    3  C   UNL     1     -11.365  12.378  63.779  1.00  0.00    -0.536 C  
HETATM    4  C   UNL     1     -10.818  11.243  64.246  1.00  0.00    -0.398 C  
BRANCH   4   5
HETATM    5  C   UNL     1     -10.168  11.077  65.591  1.00  0.00    -0.318 C  
BRANCH   5   6
HETATM    6  C   UNL     1      -9.099  10.019  65.571  1.00  0.00    -0.227 C  
HETATM    7  C   UNL     1      -9.188   8.789  66.107  1.00  0.00    -0.273 C  
BRANCH   7   8
HETATM    8  C   UNL     1     -10.381   8.272  66.855  1.00  0.00    -0.391 C  
BRANCH   8   9
HETATM    9  C   UNL     1     -10.394   6.774  66.952  1.00  0.00    -0.324 C  
HETATM   10  C   UNL     1     -10.838   6.042  67.987  1.00  0.00    -0.374 C  
BRANCH  10  11
HETATM   11  C   UNL     1     -11.489   6.552  69.245  1.00  0.00    -0.307 C  
BRANCH  11  12
HETATM   12  C   UNL     1     -10.576   6.520  70.440  1.00  0.00    -0.282 C  
HETATM   13  C   UNL     1      -9.983   7.573  71.025  1.00  0.00    -0.189 C  
BRANCH  13  14
HETATM   14  C   UNL     1     -10.059   8.985  70.547  1.00  0.00    -0.263 C  
BRANCH  14  15
HETATM   15  C   UNL     1     -11.215   9.745  71.135  1.00  0.00    -0.444 C  
HETATM   16  C   UNL     1     -11.967  10.607  70.428  1.00  0.00    -0.436 C  
BRANCH  16  17
HETATM   17  C   UNL     1     -11.712  10.963  68.994  1.00  0.00    -0.391 C  
BRANCH  17  18
HETATM   18  C   UNL     1     -10.540  11.888  68.812  1.00  0.00    -0.234 C  
HETATM   19  C   UNL     1     -10.672  13.225  68.745  1.00  0.00    -0.253 C  
BRANCH  19  20
HETATM   20  C   UNL     1     -12.015  13.894  68.865  1.00  0.00    -0.393 C  
BRANCH  20  21
HETATM   21  C   UNL     1     -12.428  14.259  70.285  1.00  0.00    -0.422 C  
HETATM   22  C   UNL     1     -11.664  15.493  70.717  1.00  0.00    -0.362 C  
HETATM   23  O   UNL     1     -11.525  15.584  72.062  1.00  0.00    -0.423 OA 
HETATM   24  O   UNL     1     -11.231  16.348  69.966  1.00  0.00    -0.348 OA 
ENDBRANCH  20  21
ENDBRANCH  19  20
ENDBRANCH  17  18
ENDBRANCH  16  17
ENDBRANCH  14  15
ENDBRANCH  13  14
ENDBRANCH  11  12
ENDBRANCH  10  11
ENDBRANCH   8   9
ENDBRANCH   7   8
ENDBRANCH   5   6
ENDBRANCH   4   5
ENDBRANCH   2   3
TORSDOF 13
ENDMDL
MODEL      107
REMARK 921   NORMALIZED FREE ENERGY PREDICTED BY IDOCK:   -4.62 KCAL/MOL
REMARK 922        TOTAL FREE ENERGY PREDICTED BY IDOCK:  -10.91 KCAL/MOL
REMARK 923 INTER-LIGAND FREE ENERGY PREDICTED BY IDOCK:   -8.14 KCAL/MOL
REMARK 924 INTRA-LIGAND FREE ENERGY PREDICTED BY IDOCK:   -2.77 KCAL/MOL
REMARK 927      BINDING AFFINITY PREDICTED BY RF-SCORE:    0.00 PKD
ROOT
HETATM    1  C   UNL     1      -5.445  18.310  65.707  1.00  0.00    -0.220 C  
HETATM    2  C   UNL     1      -6.614  19.225  65.382  1.00  0.00    -0.307 C  
ENDROOT
BRANCH   2   3
HETATM    3  C   UNL     1      -6.574  20.509  66.161  1.00  0.00    -0.278 C  
HETATM    4  C   UNL     1      -7.275  20.764  67.279  1.00  0.00    -0.415 C  
BRANCH   4   5
HETATM    5  C   UNL     1      -8.293  19.848  67.897  1.00  0.00    -0.326 C  
BRANCH   5   6
HETATM    6  C   UNL     1      -9.700  20.310  67.632  1.00  0.00    -0.555 C  
HETATM    7  C   UNL     1     -10.593  19.715  66.822  1.00  0.00    -0.602 C  
BRANCH   7   8
HETATM    8  C   UNL     1     -10.316  18.484  66.010  1.00  0.00    -0.423 C  
BRANCH   8   9
HETATM    9  C   UNL     1     -10.640  17.220  66.752  1.00  0.00    -0.192 C  
HETATM   10  C   UNL     1      -9.851  16.140  66.877  1.00  0.00    -0.247 C  
BRANCH  10  11
HETATM   11  C   UNL     1      -8.444  15.982  66.370  1.00  0.00    -0.363 C  
BRANCH  11  12
HETATM   12  C   UNL     1      -7.435  15.790  67.468  1.00  0.00    -0.198 C  
HETATM   13  C   UNL     1      -7.333  14.732  68.289  1.00  0.00    -0.115 C  
BRANCH  13  14
HETATM   14  C   UNL     1      -8.263  13.565  68.314  1.00  0.00    -0.157 C  
BRANCH  14  15
HETATM   15  C   UNL     1      -7.582  12.262  67.996  1.00  0.00    -0.126 C  
HETATM   16  C   UNL     1      -8.070  11.372  67.116  1.00  0.00    -0.155 C  
BRANCH  16  17
HETATM   17  C   UNL     1      -9.374  11.533  66.392  1.00  0.00    -0.222 C  
BRANCH  17  18
HETATM   18  C   UNL     1     -10.560  11.078  67.197  1.00  0.00    -0.294 C  
HETATM   19  C   UNL     1     -11.614  11.874  67.453  1.00  0.00    -0.367 C  
BRANCH  19  20
HETATM   20  C   UNL     1     -11.684  13.285  66.933  1.00  0.00    -0.437 C  
BRANCH  20  21
HETATM   21  C   UNL     1     -12.654  13.497  65.777  1.00  0.00    -0.490 C  
HETATM   22  C   UNL     1     -11.884  14.004  64.577  1.00  0.00    -0.434 C  
HETATM   23  O   UNL     1     -12.651  14.721  63.721  1.00  0.00    -0.806 OA 
HETATM   24  O   UNL     1     -10.706  13.787  64.356  1.00  0.00    -0.407 OA 
ENDBRANCH  20  21
ENDBRANCH  19  20
ENDBRANCH  17  18
ENDBRANCH  16  17
ENDBRANCH  14  15
ENDBRANCH  13  14
ENDBRANCH  11  12
ENDBRANCH  10  11
ENDBRANCH   8   9
ENDBRANCH   7   8
ENDBRANCH   5   6
ENDBRANCH   4   5
ENDBRANCH   2   3
TORSDOF 13
ENDMDL
MODEL      108
REMARK 921   NORMALIZED FREE ENERGY PREDICTED BY IDOCK:   -4.62 KCAL/MOL
REMARK 922        TOTAL FREE ENERGY PREDICTED BY IDOCK:  -10.91 KCAL/MOL
REMARK 923 INTER-LIGAND FREE ENERGY PREDICTED BY IDOCK:   -7.67 KCAL/MOL
REMARK 924 INTRA-LIGAND FREE ENERGY PREDICTED BY IDOCK:   -3.24 KCAL/MOL
REMARK 927      BINDING AFFINITY PREDICTED BY RF-SCORE:    0.00 PKD
ROOT
HETATM    1  C   UNL     1      -9.356  10.264  63.212  1.00  0.00    -0.340 C  
HETATM    2  C   UNL     1      -9.673  11.041  64.479  1.00  0.00    -0.323 C  
ENDROOT
BRANCH   2   3
HETATM    3  C   UNL     1     -10.381  10.204  65.506  1.00  0.00    -0.196 C  
HETATM    4  C   UNL     1      -9.933   9.954  66.749  1.00  0.00    -0.272 C  
BRANCH   4   5
HETATM    5  C   UNL     1      -8.604  10.387  67.300  1.00  0.00    -0.126 C  
BRANCH   5   6
HETATM    6  C   UNL     1      -8.757  11.378  68.422  1.00  0.00    -0.157 C  
HETATM    7  C   UNL     1      -8.515  12.698  68.354  1.00  0.00    -0.121 C  
BRANCH   7   8
HETATM    8  C   UNL     1      -8.011  13.409  67.132  1.00  0.00    -0.068 C  
BRANCH   8   9
HETATM    9  C   UNL     1      -8.565  14.798  67.005  1.00  0.00    -0.260 C  
HETATM   10  C   UNL     1      -9.480  15.217  66.115  1.00  0.00    -0.354 C  
BRANCH  10  11
HETATM   11  C   UNL     1     -10.208  14.377  65.100  1.00  0.00    -0.420 C  
BRANCH  11  12
HETATM   12  C   UNL     1     -11.704  14.478  65.210  1.00  0.00    -0.361 C  
HETATM   13  C   UNL     1     -12.478  13.923  66.156  1.00  0.00    -0.478 C  
BRANCH  13  14
HETATM   14  C   UNL     1     -11.999  13.028  67.250  1.00  0.00    -0.379 C  
BRANCH  14  15
HETATM   15  C   UNL     1     -12.023  13.684  68.602  1.00  0.00    -0.395 C  
HETATM   16  C   UNL     1     -11.969  12.996  69.756  1.00  0.00    -0.377 C  
BRANCH  16  17
HETATM   17  C   UNL     1     -11.941  11.500  69.842  1.00  0.00    -0.426 C  
BRANCH  17  18
HETATM   18  C   UNL     1     -12.781  10.954  70.964  1.00  0.00    -0.505 C  
HETATM   19  C   UNL     1     -12.543   9.760  71.536  1.00  0.00    -0.493 C  
BRANCH  19  20
HETATM   20  C   UNL     1     -11.400   8.885  71.096  1.00  0.00    -0.357 C  
BRANCH  20  21
HETATM   21  C   UNL     1     -10.376   8.569  72.179  1.00  0.00    -0.409 C  
HETATM   22  C   UNL     1     -10.797   7.306  72.899  1.00  0.00    -0.337 C  
HETATM   23  O   UNL     1     -10.316   7.233  74.164  1.00  0.00    -0.244 OA 
HETATM   24  O   UNL     1     -11.472   6.415  72.415  1.00  0.00    -0.274 OA 
ENDBRANCH  20  21
ENDBRANCH  19  20
ENDBRANCH  17  18
ENDBRANCH  16  17
ENDBRANCH  14  15
ENDBRANCH  13  14
ENDBRANCH  11  12
ENDBRANCH  10  11
ENDBRANCH   8   9
ENDBRANCH   7   8
ENDBRANCH   5   6
ENDBRANCH   4   5
ENDBRANCH   2   3
TORSDOF 13
ENDMDL
MODEL      109
REMARK 921   NORMALIZED FREE ENERGY PREDICTED BY IDOCK:   -4.61 KCAL/MOL
REMARK 922        TOTAL FREE ENERGY PREDICTED BY IDOCK:  -10.90 KCAL/MOL
REMARK 923 INTER-LIGAND FREE ENERGY PREDICTED BY IDOCK:   -8.72 KCAL/MOL
REMARK 924 INTRA-LIGAND FREE ENERGY PREDICTED BY IDOCK:   -2.17 KCAL/MOL
REMARK 927      BINDING AFFINITY PREDICTED BY RF-SCORE:    0.00 PKD
ROOT
HETATM    1  C   UNL     1      -6.369  16.998  69.397  1.00  0.00    -0.236 C  
HETATM    2  C   UNL     1      -7.585  16.787  68.510  1.00  0.00    -0.217 C  
ENDROOT
BRANCH   2   3
HETATM    3  C   UNL     1      -7.519  15.500  67.738  1.00  0.00    -0.168 C  
HETATM    4  C   UNL     1      -8.475  15.037  66.914  1.00  0.00    -0.269 C  
BRANCH   4   5
HETATM    5  C   UNL     1      -9.817  15.675  66.690  1.00  0.00    -0.258 C  
BRANCH   5   6
HETATM    6  C   UNL     1     -10.931  14.864  67.294  1.00  0.00    -0.323 C  
HETATM    7  C   UNL     1     -11.676  15.207  68.360  1.00  0.00    -0.338 C  
BRANCH   7   8
HETATM    8  C   UNL     1     -11.492  16.464  69.157  1.00  0.00    -0.188 C  
BRANCH   8   9
HETATM    9  C   UNL     1     -10.936  16.202  70.526  1.00  0.00    -0.284 C  
HETATM   10  C   UNL     1     -11.638  15.906  71.633  1.00  0.00    -0.541 C  
BRANCH  10  11
HETATM   11  C   UNL     1     -13.125  15.699  71.735  1.00  0.00    -0.546 C  
BRANCH  11  12
HETATM   12  C   UNL     1     -13.502  14.505  72.568  1.00  0.00    -0.580 C  
HETATM   13  C   UNL     1     -13.275  13.215  72.271  1.00  0.00    -0.555 C  
BRANCH  13  14
HETATM   14  C   UNL     1     -12.664  12.714  71.005  1.00  0.00    -0.316 C  
BRANCH  14  15
HETATM   15  C   UNL     1     -12.563  11.215  70.952  1.00  0.00    -0.483 C  
HETATM   16  C   UNL     1     -12.004  10.550  69.926  1.00  0.00    -0.339 C  
BRANCH  16  17
HETATM   17  C   UNL     1     -11.472  11.207  68.688  1.00  0.00    -0.363 C  
BRANCH  17  18
HETATM   18  C   UNL     1     -10.699  10.269  67.803  1.00  0.00    -0.324 C  
HETATM   19  C   UNL     1     -10.287  10.607  66.568  1.00  0.00    -0.299 C  
BRANCH  19  20
HETATM   20  C   UNL     1     -10.562  11.969  65.988  1.00  0.00    -0.303 C  
BRANCH  20  21
HETATM   21  C   UNL     1     -11.911  12.111  65.293  1.00  0.00    -0.356 C  
HETATM   22  C   UNL     1     -11.682  12.295  63.809  1.00  0.00    -0.478 C  
HETATM   23  O   UNL     1     -12.695  12.954  63.195  1.00  0.00    -0.606 OA 
HETATM   24  O   UNL     1     -10.716  11.884  63.192  1.00  0.00    -0.354 OA 
ENDBRANCH  20  21
ENDBRANCH  19  20
ENDBRANCH  17  18
ENDBRANCH  16  17
ENDBRANCH  14  15
ENDBRANCH  13  14
ENDBRANCH  11  12
ENDBRANCH  10  11
ENDBRANCH   8   9
ENDBRANCH   7   8
ENDBRANCH   5   6
ENDBRANCH   4   5
ENDBRANCH   2   3
TORSDOF 13
ENDMDL
MODEL      110
REMARK 921   NORMALIZED FREE ENERGY PREDICTED BY IDOCK:   -4.61 KCAL/MOL
REMARK 922        TOTAL FREE ENERGY PREDICTED BY IDOCK:  -10.89 KCAL/MOL
REMARK 923 INTER-LIGAND FREE ENERGY PREDICTED BY IDOCK:   -8.51 KCAL/MOL
REMARK 924 INTRA-LIGAND FREE ENERGY PREDICTED BY IDOCK:   -2.37 KCAL/MOL
REMARK 927      BINDING AFFINITY PREDICTED BY RF-SCORE:    0.00 PKD
ROOT
HETATM    1  C   UNL     1      -5.568  17.980  66.123  1.00  0.00    -0.226 C  
HETATM    2  C   UNL     1      -6.999  18.308  65.729  1.00  0.00    -0.284 C  
ENDROOT
BRANCH   2   3
HETATM    3  C   UNL     1      -7.345  19.752  65.963  1.00  0.00    -0.319 C  
HETATM    4  C   UNL     1      -7.865  20.254  67.096  1.00  0.00    -0.370 C  
BRANCH   4   5
HETATM    5  C   UNL     1      -8.280  19.450  68.296  1.00  0.00    -0.372 C  
BRANCH   5   6
HETATM    6  C   UNL     1      -9.775  19.303  68.383  1.00  0.00    -0.474 C  
HETATM    7  C   UNL     1     -10.492  18.236  67.991  1.00  0.00    -0.387 C  
BRANCH   7   8
HETATM    8  C   UNL     1      -9.911  17.005  67.360  1.00  0.00    -0.278 C  
BRANCH   8   9
HETATM    9  C   UNL     1      -9.140  16.167  68.337  1.00  0.00    -0.199 C  
HETATM   10  C   UNL     1      -9.653  15.346  69.269  1.00  0.00    -0.268 C  
BRANCH  10  11
HETATM   11  C   UNL     1     -11.106  15.025  69.493  1.00  0.00    -0.292 C  
BRANCH  11  12
HETATM   12  C   UNL     1     -11.748  14.335  68.320  1.00  0.00    -0.377 C  
HETATM   13  C   UNL     1     -11.840  13.011  68.120  1.00  0.00    -0.381 C  
BRANCH  13  14
HETATM   14  C   UNL     1     -11.248  11.960  69.000  1.00  0.00    -0.316 C  
BRANCH  14  15
HETATM   15  C   UNL     1      -9.798  11.692  68.704  1.00  0.00    -0.173 C  
HETATM   16  C   UNL     1      -9.381  11.003  67.628  1.00  0.00    -0.162 C  
BRANCH  16  17
HETATM   17  C   UNL     1     -10.300  10.366  66.629  1.00  0.00    -0.292 C  
BRANCH  17  18
HETATM   18  C   UNL     1      -9.726  10.320  65.240  1.00  0.00    -0.354 C  
HETATM   19  C   UNL     1     -10.202  11.072  64.231  1.00  0.00    -0.414 C  
BRANCH  19  20
HETATM   20  C   UNL     1     -11.346  12.030  64.430  1.00  0.00    -0.411 C  
BRANCH  20  21
HETATM   21  C   UNL     1     -10.955  13.503  64.451  1.00  0.00    -0.399 C  
HETATM   22  C   UNL     1     -12.210  14.342  64.560  1.00  0.00    -0.463 C  
HETATM   23  O   UNL     1     -12.057  15.590  64.053  1.00  0.00    -0.583 OA 
HETATM   24  O   UNL     1     -13.255  13.979  65.069  1.00  0.00    -0.720 OA 
ENDBRANCH  20  21
ENDBRANCH  19  20
ENDBRANCH  17  18
ENDBRANCH  16  17
ENDBRANCH  14  15
ENDBRANCH  13  14
ENDBRANCH  11  12
ENDBRANCH  10  11
ENDBRANCH   8   9
ENDBRANCH   7   8
ENDBRANCH   5   6
ENDBRANCH   4   5
ENDBRANCH   2   3
TORSDOF 13
ENDMDL
MODEL      111
REMARK 921   NORMALIZED FREE ENERGY PREDICTED BY IDOCK:   -4.61 KCAL/MOL
REMARK 922        TOTAL FREE ENERGY PREDICTED BY IDOCK:  -10.89 KCAL/MOL
REMARK 923 INTER-LIGAND FREE ENERGY PREDICTED BY IDOCK:   -7.97 KCAL/MOL
REMARK 924 INTRA-LIGAND FREE ENERGY PREDICTED BY IDOCK:   -2.91 KCAL/MOL
REMARK 927      BINDING AFFINITY PREDICTED BY RF-SCORE:    0.00 PKD
ROOT
HETATM    1  C   UNL     1     -11.609  12.961  65.585  1.00  0.00    -0.401 C  
HETATM    2  C   UNL     1     -11.369  12.932  67.085  1.00  0.00    -0.352 C  
ENDROOT
BRANCH   2   3
HETATM    3  C   UNL     1     -11.538  11.558  67.669  1.00  0.00    -0.320 C  
HETATM    4  C   UNL     1     -11.897  11.290  68.937  1.00  0.00    -0.413 C  
BRANCH   4   5
HETATM    5  C   UNL     1     -12.102  12.312  70.019  1.00  0.00    -0.346 C  
BRANCH   5   6
HETATM    6  C   UNL     1     -12.666  11.698  71.272  1.00  0.00    -0.444 C  
HETATM    7  C   UNL     1     -13.425  12.321  72.190  1.00  0.00    -0.431 C  
BRANCH   7   8
HETATM    8  C   UNL     1     -13.816  13.768  72.131  1.00  0.00    -0.649 C  
BRANCH   8   9
HETATM    9  C   UNL     1     -13.063  14.608  73.121  1.00  0.00    -0.580 C  
HETATM   10  C   UNL     1     -12.209  15.607  72.840  1.00  0.00    -0.563 C  
BRANCH  10  11
HETATM   11  C   UNL     1     -11.875  16.157  71.479  1.00  0.00    -0.528 C  
BRANCH  11  12
HETATM   12  C   UNL     1     -10.729  15.443  70.816  1.00  0.00    -0.205 C  
HETATM   13  C   UNL     1     -10.430  15.450  69.508  1.00  0.00    -0.264 C  
BRANCH  13  14
HETATM   14  C   UNL     1     -11.232  16.116  68.440  1.00  0.00    -0.358 C  
BRANCH  14  15
HETATM   15  C   UNL     1     -10.615  17.396  67.950  1.00  0.00    -0.383 C  
HETATM   16  C   UNL     1      -9.689  17.443  66.977  1.00  0.00    -0.276 C  
BRANCH  16  17
HETATM   17  C   UNL     1      -9.113  16.232  66.306  1.00  0.00    -0.366 C  
BRANCH  17  18
HETATM   18  C   UNL     1      -7.672  15.986  66.660  1.00  0.00    -0.239 C  
HETATM   19  C   UNL     1      -7.248  14.844  67.231  1.00  0.00    -0.142 C  
BRANCH  19  20
HETATM   20  C   UNL     1      -8.196  13.717  67.544  1.00  0.00    -0.189 C  
BRANCH  20  21
HETATM   21  C   UNL     1      -7.544  12.475  68.139  1.00  0.00    -0.127 C  
HETATM   22  C   UNL     1      -7.948  11.268  67.319  1.00  0.00    -0.141 C  
HETATM   23  O   UNL     1      -7.902  10.111  68.024  1.00  0.00    -0.095 OA 
HETATM   24  O   UNL     1      -8.260  11.292  66.142  1.00  0.00    -0.160 OA 
ENDBRANCH  20  21
ENDBRANCH  19  20
ENDBRANCH  17  18
ENDBRANCH  16  17
ENDBRANCH  14  15
ENDBRANCH  13  14
ENDBRANCH  11  12
ENDBRANCH  10  11
ENDBRANCH   8   9
ENDBRANCH   7   8
ENDBRANCH   5   6
ENDBRANCH   4   5
ENDBRANCH   2   3
TORSDOF 13
ENDMDL
MODEL      112
REMARK 921   NORMALIZED FREE ENERGY PREDICTED BY IDOCK:   -4.60 KCAL/MOL
REMARK 922        TOTAL FREE ENERGY PREDICTED BY IDOCK:  -10.87 KCAL/MOL
REMARK 923 INTER-LIGAND FREE ENERGY PREDICTED BY IDOCK:   -8.06 KCAL/MOL
REMARK 924 INTRA-LIGAND FREE ENERGY PREDICTED BY IDOCK:   -2.81 KCAL/MOL
REMARK 927      BINDING AFFINITY PREDICTED BY RF-SCORE:    0.00 PKD
ROOT
HETATM    1  C   UNL     1     -12.132  13.042  63.657  1.00  0.00    -0.604 C  
HETATM    2  C   UNL     1     -11.880  12.353  64.987  1.00  0.00    -0.440 C  
ENDROOT
BRANCH   2   3
HETATM    3  C   UNL     1     -10.616  11.540  64.985  1.00  0.00    -0.354 C  
HETATM    4  C   UNL     1     -10.253  10.665  65.938  1.00  0.00    -0.314 C  
BRANCH   4   5
HETATM    5  C   UNL     1     -10.996  10.412  67.219  1.00  0.00    -0.306 C  
BRANCH   5   6
HETATM    6  C   UNL     1     -10.062  10.161  68.371  1.00  0.00    -0.184 C  
HETATM    7  C   UNL     1      -9.785   8.968  68.925  1.00  0.00    -0.166 C  
BRANCH   7   8
HETATM    8  C   UNL     1     -10.399   7.668  68.496  1.00  0.00    -0.225 C  
BRANCH   8   9
HETATM    9  C   UNL     1      -9.727   6.480  69.119  1.00  0.00    -0.143 C  
HETATM   10  C   UNL     1     -10.109   5.838  70.236  1.00  0.00    -0.273 C  
BRANCH  10  11
HETATM   11  C   UNL     1     -11.332   6.115  71.068  1.00  0.00    -0.348 C  
BRANCH  11  12
HETATM   12  C   UNL     1     -11.069   7.051  72.215  1.00  0.00    -0.287 C  
HETATM   13  C   UNL     1     -11.573   8.285  72.375  1.00  0.00    -0.464 C  
BRANCH  13  14
HETATM   14  C   UNL     1     -12.441   8.999  71.392  1.00  0.00    -0.378 C  
BRANCH  14  15
HETATM   15  C   UNL     1     -13.376   9.984  72.038  1.00  0.00    -0.513 C  
HETATM   16  C   UNL     1     -13.355  11.302  71.774  1.00  0.00    -0.371 C  
BRANCH  16  17
HETATM   17  C   UNL     1     -12.365  11.960  70.860  1.00  0.00    -0.400 C  
BRANCH  17  18
HETATM   18  C   UNL     1     -12.456  13.461  70.871  1.00  0.00    -0.439 C  
HETATM   19  C   UNL     1     -12.143  14.216  69.802  1.00  0.00    -0.409 C  
BRANCH  19  20
HETATM   20  C   UNL     1     -11.691  13.602  68.504  1.00  0.00    -0.392 C  
BRANCH  20  21
HETATM   21  C   UNL     1     -10.248  13.902  68.119  1.00  0.00    -0.249 C  
HETATM   22  C   UNL     1     -10.238  14.959  67.035  1.00  0.00    -0.256 C  
HETATM   23  O   UNL     1      -9.128  14.910  66.259  1.00  0.00    -0.282 OA 
HETATM   24  O   UNL     1     -11.104  15.798  66.867  1.00  0.00    -0.260 OA 
ENDBRANCH  20  21
ENDBRANCH  19  20
ENDBRANCH  17  18
ENDBRANCH  16  17
ENDBRANCH  14  15
ENDBRANCH  13  14
ENDBRANCH  11  12
ENDBRANCH  10  11
ENDBRANCH   8   9
ENDBRANCH   7   8
ENDBRANCH   5   6
ENDBRANCH   4   5
ENDBRANCH   2   3
TORSDOF 13
ENDMDL
MODEL      113
REMARK 921   NORMALIZED FREE ENERGY PREDICTED BY IDOCK:   -4.59 KCAL/MOL
REMARK 922        TOTAL FREE ENERGY PREDICTED BY IDOCK:  -10.86 KCAL/MOL
REMARK 923 INTER-LIGAND FREE ENERGY PREDICTED BY IDOCK:   -8.75 KCAL/MOL
REMARK 924 INTRA-LIGAND FREE ENERGY PREDICTED BY IDOCK:   -2.11 KCAL/MOL
REMARK 927      BINDING AFFINITY PREDICTED BY RF-SCORE:    0.00 PKD
ROOT
HETATM    1  C   UNL     1     -12.901  10.674  71.340  1.00  0.00    -0.556 C  
HETATM    2  C   UNL     1     -12.876  12.189  71.221  1.00  0.00    -0.349 C  
ENDROOT
BRANCH   2   3
HETATM    3  C   UNL     1     -13.644  12.866  72.320  1.00  0.00    -0.611 C  
HETATM    4  C   UNL     1     -14.022  14.156  72.325  1.00  0.00    -0.646 C  
BRANCH   4   5
HETATM    5  C   UNL     1     -13.665  15.173  71.278  1.00  0.00    -0.555 C  
BRANCH   5   6
HETATM    6  C   UNL     1     -12.335  15.819  71.553  1.00  0.00    -0.514 C  
HETATM    7  C   UNL     1     -11.355  16.033  70.657  1.00  0.00    -0.424 C  
BRANCH   7   8
HETATM    8  C   UNL     1     -11.418  15.626  69.214  1.00  0.00    -0.368 C  
BRANCH   8   9
HETATM    9  C   UNL     1     -10.938  14.222  68.991  1.00  0.00    -0.282 C  
HETATM   10  C   UNL     1      -9.935  13.836  68.184  1.00  0.00    -0.242 C  
BRANCH  10  11
HETATM   11  C   UNL     1      -9.023  14.725  67.384  1.00  0.00    -0.200 C  
BRANCH  11  12
HETATM   12  C   UNL     1      -9.720  15.928  66.810  1.00  0.00    -0.252 C  
HETATM   13  C   UNL     1     -10.518  15.953  65.731  1.00  0.00    -0.386 C  
BRANCH  13  14
HETATM   14  C   UNL     1     -10.807  14.790  64.841  1.00  0.00    -0.433 C  
BRANCH  14  15
HETATM   15  C   UNL     1     -12.146  14.162  65.109  1.00  0.00    -0.416 C  
HETATM   16  C   UNL     1     -12.301  12.867  65.434  1.00  0.00    -0.538 C  
BRANCH  16  17
HETATM   17  C   UNL     1     -11.175  11.879  65.511  1.00  0.00    -0.353 C  
BRANCH  17  18
HETATM   18  C   UNL     1     -10.745  11.364  64.165  1.00  0.00    -0.434 C  
HETATM   19  C   UNL     1      -9.840  10.380  64.018  1.00  0.00    -0.355 C  
BRANCH  19  20
HETATM   20  C   UNL     1      -9.198   9.712  65.204  1.00  0.00    -0.305 C  
BRANCH  20  21
HETATM   21  C   UNL     1      -7.809  10.226  65.560  1.00  0.00    -0.152 C  
HETATM   22  C   UNL     1      -7.853  10.850  66.938  1.00  0.00    -0.135 C  
HETATM   23  O   UNL     1      -6.891  11.784  67.127  1.00  0.00    -0.127 OA 
HETATM   24  O   UNL     1      -8.639  10.548  67.819  1.00  0.00    -0.118 OA 
ENDBRANCH  20  21
ENDBRANCH  19  20
ENDBRANCH  17  18
ENDBRANCH  16  17
ENDBRANCH  14  15
ENDBRANCH  13  14
ENDBRANCH  11  12
ENDBRANCH  10  11
ENDBRANCH   8   9
ENDBRANCH   7   8
ENDBRANCH   5   6
ENDBRANCH   4   5
ENDBRANCH   2   3
TORSDOF 13
ENDMDL
MODEL      114
REMARK 921   NORMALIZED FREE ENERGY PREDICTED BY IDOCK:   -4.58 KCAL/MOL
REMARK 922        TOTAL FREE ENERGY PREDICTED BY IDOCK:  -10.84 KCAL/MOL
REMARK 923 INTER-LIGAND FREE ENERGY PREDICTED BY IDOCK:   -8.00 KCAL/MOL
REMARK 924 INTRA-LIGAND FREE ENERGY PREDICTED BY IDOCK:   -2.84 KCAL/MOL
REMARK 927      BINDING AFFINITY PREDICTED BY RF-SCORE:    0.00 PKD
ROOT
HETATM    1  C   UNL     1     -12.660  13.916  65.422  1.00  0.00    -0.538 C  
HETATM    2  C   UNL     1     -11.297  13.753  64.770  1.00  0.00    -0.367 C  
ENDROOT
BRANCH   2   3
HETATM    3  C   UNL     1     -11.311  12.753  63.648  1.00  0.00    -0.514 C  
HETATM    4  C   UNL     1     -10.996  11.451  63.763  1.00  0.00    -0.448 C  
BRANCH   4   5
HETATM    5  C   UNL     1     -10.484  10.784  65.008  1.00  0.00    -0.307 C  
BRANCH   5   6
HETATM    6  C   UNL     1      -9.193  10.052  64.763  1.00  0.00    -0.301 C  
HETATM    7  C   UNL     1      -8.817   8.893  65.332  1.00  0.00    -0.234 C  
BRANCH   7   8
HETATM    8  C   UNL     1      -9.625   8.142  66.349  1.00  0.00    -0.286 C  
BRANCH   8   9
HETATM    9  C   UNL     1      -8.829   7.793  67.572  1.00  0.00    -0.124 C  
HETATM   10  C   UNL     1      -8.820   8.459  68.739  1.00  0.00    -0.140 C  
BRANCH  10  11
HETATM   11  C   UNL     1      -9.656   9.655  69.106  1.00  0.00    -0.176 C  
BRANCH  11  12
HETATM   12  C   UNL     1      -9.103  10.951  68.580  1.00  0.00    -0.173 C  
HETATM   13  C   UNL     1      -9.802  12.051  68.259  1.00  0.00    -0.204 C  
BRANCH  13  14
HETATM   14  C   UNL     1     -11.289  12.171  68.295  1.00  0.00    -0.343 C  
BRANCH  14  15
HETATM   15  C   UNL     1     -11.793  12.902  69.508  1.00  0.00    -0.383 C  
HETATM   16  C   UNL     1     -12.308  12.280  70.583  1.00  0.00    -0.375 C  
BRANCH  16  17
HETATM   17  C   UNL     1     -12.502  10.797  70.682  1.00  0.00    -0.461 C  
BRANCH  17  18
HETATM   18  C   UNL     1     -13.196  10.373  71.947  1.00  0.00    -0.535 C  
HETATM   19  C   UNL     1     -13.401   9.082  72.267  1.00  0.00    -0.523 C  
BRANCH  19  20
HETATM   20  C   UNL     1     -12.932   7.963  71.377  1.00  0.00    -0.301 C  
BRANCH  20  21
HETATM   21  C   UNL     1     -11.588   7.356  71.759  1.00  0.00    -0.305 C  
HETATM   22  C   UNL     1     -11.225   6.289  70.749  1.00  0.00    -0.324 C  
HETATM   23  O   UNL     1     -10.390   5.348  71.251  1.00  0.00    -0.213 OA 
HETATM   24  O   UNL     1     -11.602   6.262  69.591  1.00  0.00    -0.430 OA 
ENDBRANCH  20  21
ENDBRANCH  19  20
ENDBRANCH  17  18
ENDBRANCH  16  17
ENDBRANCH  14  15
ENDBRANCH  13  14
ENDBRANCH  11  12
ENDBRANCH  10  11
ENDBRANCH   8   9
ENDBRANCH   7   8
ENDBRANCH   5   6
ENDBRANCH   4   5
ENDBRANCH   2   3
TORSDOF 13
ENDMDL
MODEL      115
REMARK 921   NORMALIZED FREE ENERGY PREDICTED BY IDOCK:   -4.57 KCAL/MOL
REMARK 922        TOTAL FREE ENERGY PREDICTED BY IDOCK:  -10.81 KCAL/MOL
REMARK 923 INTER-LIGAND FREE ENERGY PREDICTED BY IDOCK:   -8.18 KCAL/MOL
REMARK 924 INTRA-LIGAND FREE ENERGY PREDICTED BY IDOCK:   -2.63 KCAL/MOL
REMARK 927      BINDING AFFINITY PREDICTED BY RF-SCORE:    0.00 PKD
ROOT
HETATM    1  C   UNL     1     -11.093   6.221  69.907  1.00  0.00    -0.469 C  
HETATM    2  C   UNL     1     -11.971   6.678  71.060  1.00  0.00    -0.415 C  
ENDROOT
BRANCH   2   3
HETATM    3  C   UNL     1     -11.188   7.354  72.149  1.00  0.00    -0.302 C  
HETATM    4  C   UNL     1     -11.161   8.678  72.382  1.00  0.00    -0.328 C  
BRANCH   4   5
HETATM    5  C   UNL     1     -11.833   9.725  71.540  1.00  0.00    -0.476 C  
BRANCH   5   6
HETATM    6  C   UNL     1     -11.027  10.064  70.316  1.00  0.00    -0.377 C  
HETATM    7  C   UNL     1     -11.261  11.080  69.467  1.00  0.00    -0.343 C  
BRANCH   7   8
HETATM    8  C   UNL     1     -12.408  12.040  69.584  1.00  0.00    -0.083 C  
BRANCH   8   9
HETATM    9  C   UNL     1     -12.089  13.211  70.467  1.00  0.00    -0.385 C  
HETATM   10  C   UNL     1     -11.891  14.481  70.074  1.00  0.00    -0.372 C  
BRANCH  10  11
HETATM   11  C   UNL     1     -12.017  15.027  68.678  1.00  0.00    -0.278 C  
BRANCH  11  12
HETATM   12  C   UNL     1     -10.834  14.707  67.806  1.00  0.00    -0.268 C  
HETATM   13  C   UNL     1     -10.865  14.173  66.575  1.00  0.00    -0.298 C  
BRANCH  13  14
HETATM   14  C   UNL     1     -12.095  13.721  65.860  1.00  0.00    -0.464 C  
BRANCH  14  15
HETATM   15  C   UNL     1     -12.094  14.083  64.401  1.00  0.00    -0.486 C  
HETATM   16  C   UNL     1     -11.922  13.181  63.418  1.00  0.00    -0.552 C  
BRANCH  16  17
HETATM   17  C   UNL     1     -11.649  11.726  63.652  1.00  0.00    -0.521 C  
BRANCH  17  18
HETATM   18  C   UNL     1     -10.195  11.365  63.514  1.00  0.00    -0.461 C  
HETATM   19  C   UNL     1      -9.474  10.853  64.527  1.00  0.00    -0.284 C  
BRANCH  19  20
HETATM   20  C   UNL     1     -10.083  10.590  65.878  1.00  0.00    -0.323 C  
BRANCH  20  21
HETATM   21  C   UNL     1      -9.903   9.170  66.400  1.00  0.00    -0.350 C  
HETATM   22  C   UNL     1      -8.614   9.097  67.191  1.00  0.00    -0.120 C  
HETATM   23  O   UNL     1      -8.086   7.849  67.228  1.00  0.00    -0.115 OA 
HETATM   24  O   UNL     1      -8.093  10.033  67.769  1.00  0.00    -0.108 OA 
ENDBRANCH  20  21
ENDBRANCH  19  20
ENDBRANCH  17  18
ENDBRANCH  16  17
ENDBRANCH  14  15
ENDBRANCH  13  14
ENDBRANCH  11  12
ENDBRANCH  10  11
ENDBRANCH   8   9
ENDBRANCH   7   8
ENDBRANCH   5   6
ENDBRANCH   4   5
ENDBRANCH   2   3
TORSDOF 13
ENDMDL
MODEL      116
REMARK 921   NORMALIZED FREE ENERGY PREDICTED BY IDOCK:   -4.57 KCAL/MOL
REMARK 922        TOTAL FREE ENERGY PREDICTED BY IDOCK:  -10.81 KCAL/MOL
REMARK 923 INTER-LIGAND FREE ENERGY PREDICTED BY IDOCK:   -8.25 KCAL/MOL
REMARK 924 INTRA-LIGAND FREE ENERGY PREDICTED BY IDOCK:   -2.56 KCAL/MOL
REMARK 927      BINDING AFFINITY PREDICTED BY RF-SCORE:    0.00 PKD
ROOT
HETATM    1  C   UNL     1     -12.160  13.947  66.963  1.00  0.00    -0.451 C  
HETATM    2  C   UNL     1     -11.171  12.956  67.554  1.00  0.00    -0.329 C  
ENDROOT
BRANCH   2   3
HETATM    3  C   UNL     1     -11.844  11.739  68.123  1.00  0.00    -0.324 C  
HETATM    4  C   UNL     1     -12.207  11.579  69.407  1.00  0.00    -0.273 C  
BRANCH   4   5
HETATM    5  C   UNL     1     -11.923  12.547  70.521  1.00  0.00    -0.277 C  
BRANCH   5   6
HETATM    6  C   UNL     1     -12.957  12.470  71.610  1.00  0.00    -0.405 C  
HETATM    7  C   UNL     1     -13.756  13.471  72.020  1.00  0.00    -0.568 C  
BRANCH   7   8
HETATM    8  C   UNL     1     -13.724  14.865  71.467  1.00  0.00    -0.532 C  
BRANCH   8   9
HETATM    9  C   UNL     1     -12.555  15.658  71.973  1.00  0.00    -0.503 C  
HETATM   10  C   UNL     1     -11.547  16.157  71.238  1.00  0.00    -0.470 C  
BRANCH  10  11
HETATM   11  C   UNL     1     -11.403  16.100  69.741  1.00  0.00    -0.323 C  
BRANCH  11  12
HETATM   12  C   UNL     1      -9.978  16.235  69.277  1.00  0.00    -0.259 C  
HETATM   13  C   UNL     1      -9.550  16.869  68.174  1.00  0.00    -0.255 C  
BRANCH  13  14
HETATM   14  C   UNL     1     -10.427  17.504  67.146  1.00  0.00    -0.312 C  
BRANCH  14  15
HETATM   15  C   UNL     1     -10.826  18.910  67.499  1.00  0.00    -0.440 C  
HETATM   16  C   UNL     1     -10.056  19.981  67.243  1.00  0.00    -0.577 C  
BRANCH  16  17
HETATM   17  C   UNL     1      -8.687  19.906  66.636  1.00  0.00    -0.410 C  
BRANCH  17  18
HETATM   18  C   UNL     1      -7.626  20.552  67.483  1.00  0.00    -0.344 C  
HETATM   19  C   UNL     1      -6.562  19.878  67.957  1.00  0.00    -0.289 C  
BRANCH  19  20
HETATM   20  C   UNL     1      -6.354  18.418  67.656  1.00  0.00    -0.191 C  
BRANCH  20  21
HETATM   21  C   UNL     1      -5.951  17.565  68.852  1.00  0.00    -0.186 C  
HETATM   22  C   UNL     1      -5.829  16.123  68.409  1.00  0.00    -0.107 C  
HETATM   23  O   UNL     1      -6.018  15.241  69.420  1.00  0.00    -0.102 OA 
HETATM   24  O   UNL     1      -5.561  15.757  67.278  1.00  0.00    -0.323 OA 
ENDBRANCH  20  21
ENDBRANCH  19  20
ENDBRANCH  17  18
ENDBRANCH  16  17
ENDBRANCH  14  15
ENDBRANCH  13  14
ENDBRANCH  11  12
ENDBRANCH  10  11
ENDBRANCH   8   9
ENDBRANCH   7   8
ENDBRANCH   5   6
ENDBRANCH   4   5
ENDBRANCH   2   3
TORSDOF 13
ENDMDL
MODEL      117
REMARK 921   NORMALIZED FREE ENERGY PREDICTED BY IDOCK:   -4.56 KCAL/MOL
REMARK 922        TOTAL FREE ENERGY PREDICTED BY IDOCK:  -10.81 KCAL/MOL
REMARK 923 INTER-LIGAND FREE ENERGY PREDICTED BY IDOCK:   -8.58 KCAL/MOL
REMARK 924 INTRA-LIGAND FREE ENERGY PREDICTED BY IDOCK:   -2.23 KCAL/MOL
REMARK 927      BINDING AFFINITY PREDICTED BY RF-SCORE:    0.00 PKD
ROOT
HETATM    1  C   UNL     1     -11.263  16.322  70.322  1.00  0.00    -0.343 C  
HETATM    2  C   UNL     1     -11.466  15.574  71.629  1.00  0.00    -0.496 C  
ENDROOT
BRANCH   2   3
HETATM    3  C   UNL     1     -12.651  16.080  72.404  1.00  0.00    -0.521 C  
HETATM    4  C   UNL     1     -13.850  15.478  72.472  1.00  0.00    -0.669 C  
BRANCH   4   5
HETATM    5  C   UNL     1     -14.252  14.245  71.713  1.00  0.00    -0.540 C  
BRANCH   5   6
HETATM    6  C   UNL     1     -13.656  12.999  72.311  1.00  0.00    -0.643 C  
HETATM    7  C   UNL     1     -12.991  12.039  71.646  1.00  0.00    -0.439 C  
BRANCH   7   8
HETATM    8  C   UNL     1     -12.756  12.036  70.164  1.00  0.00     0.147 C  
BRANCH   8   9
HETATM    9  C   UNL     1     -11.411  12.588  69.793  1.00  0.00    -0.211 C  
HETATM   10  C   UNL     1     -10.843  12.563  68.575  1.00  0.00    -0.271 C  
BRANCH  10  11
HETATM   11  C   UNL     1     -11.454  12.048  67.300  1.00  0.00    -0.403 C  
BRANCH  11  12
HETATM   12  C   UNL     1     -12.139  13.119  66.496  1.00  0.00    -0.423 C  
HETATM   13  C   UNL     1     -11.765  14.404  66.388  1.00  0.00    -0.397 C  
BRANCH  13  14
HETATM   14  C   UNL     1     -10.626  15.037  67.115  1.00  0.00    -0.295 C  
BRANCH  14  15
HETATM   15  C   UNL     1      -9.285  14.673  66.543  1.00  0.00    -0.294 C  
HETATM   16  C   UNL     1      -8.142  14.732  67.249  1.00  0.00    -0.232 C  
BRANCH  16  17
HETATM   17  C   UNL     1      -8.051  15.224  68.662  1.00  0.00    -0.156 C  
BRANCH  17  18
HETATM   18  C   UNL     1      -6.998  16.280  68.856  1.00  0.00    -0.170 C  
HETATM   19  C   UNL     1      -7.254  17.595  68.726  1.00  0.00    -0.268 C  
BRANCH  19  20
HETATM   20  C   UNL     1      -8.629  18.104  68.388  1.00  0.00    -0.310 C  
BRANCH  20  21
HETATM   21  C   UNL     1      -8.851  18.429  66.916  1.00  0.00    -0.281 C  
HETATM   22  C   UNL     1     -10.334  18.605  66.670  1.00  0.00    -0.415 C  
HETATM   23  O   UNL     1     -10.690  18.355  65.387  1.00  0.00    -0.594 OA 
HETATM   24  O   UNL     1     -11.146  18.961  67.505  1.00  0.00    -0.356 OA 
ENDBRANCH  20  21
ENDBRANCH  19  20
ENDBRANCH  17  18
ENDBRANCH  16  17
ENDBRANCH  14  15
ENDBRANCH  13  14
ENDBRANCH  11  12
ENDBRANCH  10  11
ENDBRANCH   8   9
ENDBRANCH   7   8
ENDBRANCH   5   6
ENDBRANCH   4   5
ENDBRANCH   2   3
TORSDOF 13
ENDMDL
MODEL      118
REMARK 921   NORMALIZED FREE ENERGY PREDICTED BY IDOCK:   -4.56 KCAL/MOL
REMARK 922        TOTAL FREE ENERGY PREDICTED BY IDOCK:  -10.80 KCAL/MOL
REMARK 923 INTER-LIGAND FREE ENERGY PREDICTED BY IDOCK:   -8.07 KCAL/MOL
REMARK 924 INTRA-LIGAND FREE ENERGY PREDICTED BY IDOCK:   -2.73 KCAL/MOL
REMARK 927      BINDING AFFINITY PREDICTED BY RF-SCORE:    0.00 PKD
ROOT
HETATM    1  C   UNL     1     -13.836   7.496  71.483  1.00  0.00    -0.487 C  
HETATM    2  C   UNL     1     -12.535   6.905  70.966  1.00  0.00    -0.364 C  
ENDROOT
BRANCH   2   3
HETATM    3  C   UNL     1     -11.581   6.555  72.072  1.00  0.00    -0.354 C  
HETATM    4  C   UNL     1     -10.687   7.394  72.623  1.00  0.00    -0.334 C  
BRANCH   4   5
HETATM    5  C   UNL     1     -10.417   8.801  72.170  1.00  0.00    -0.384 C  
BRANCH   5   6
HETATM    6  C   UNL     1      -9.211   8.881  71.275  1.00  0.00    -0.328 C  
HETATM    7  C   UNL     1      -9.208   9.221  69.974  1.00  0.00    -0.231 C  
BRANCH   7   8
HETATM    8  C   UNL     1     -10.436   9.552  69.178  1.00  0.00    -0.224 C  
BRANCH   8   9
HETATM    9  C   UNL     1     -10.692  11.028  69.102  1.00  0.00    -0.274 C  
HETATM   10  C   UNL     1     -11.799  11.671  69.510  1.00  0.00    -0.414 C  
BRANCH  10  11
HETATM   11  C   UNL     1     -12.994  11.070  70.200  1.00  0.00     0.004 C  
BRANCH  11  12
HETATM   12  C   UNL     1     -13.022  11.338  71.680  1.00  0.00    -0.537 C  
HETATM   13  C   UNL     1     -13.478  12.445  72.287  1.00  0.00    -0.428 C  
BRANCH  13  14
HETATM   14  C   UNL     1     -13.981  13.666  71.593  1.00  0.00    -0.170 C  
BRANCH  14  15
HETATM   15  C   UNL     1     -13.336  14.932  72.084  1.00  0.00    -0.473 C  
HETATM   16  C   UNL     1     -12.568  15.717  71.308  1.00  0.00    -0.523 C  
BRANCH  16  17
HETATM   17  C   UNL     1     -12.210  15.401  69.887  1.00  0.00    -0.363 C  
BRANCH  17  18
HETATM   18  C   UNL     1     -10.776  14.982  69.716  1.00  0.00    -0.260 C  
HETATM   19  C   UNL     1     -10.074  15.231  68.596  1.00  0.00    -0.222 C  
BRANCH  19  20
HETATM   20  C   UNL     1     -10.678  15.968  67.431  1.00  0.00    -0.306 C  
BRANCH  20  21
HETATM   21  C   UNL     1     -10.441  17.473  67.428  1.00  0.00    -0.342 C  
HETATM   22  C   UNL     1      -9.148  17.765  66.698  1.00  0.00    -0.266 C  
HETATM   23  O   UNL     1      -8.572  18.928  67.087  1.00  0.00    -0.272 OA 
HETATM   24  O   UNL     1      -8.662  17.067  65.826  1.00  0.00    -0.522 OA 
ENDBRANCH  20  21
ENDBRANCH  19  20
ENDBRANCH  17  18
ENDBRANCH  16  17
ENDBRANCH  14  15
ENDBRANCH  13  14
ENDBRANCH  11  12
ENDBRANCH  10  11
ENDBRANCH   8   9
ENDBRANCH   7   8
ENDBRANCH   5   6
ENDBRANCH   4   5
ENDBRANCH   2   3
TORSDOF 13
ENDMDL
MODEL      119
REMARK 921   NORMALIZED FREE ENERGY PREDICTED BY IDOCK:   -4.56 KCAL/MOL
REMARK 922        TOTAL FREE ENERGY PREDICTED BY IDOCK:  -10.80 KCAL/MOL
REMARK 923 INTER-LIGAND FREE ENERGY PREDICTED BY IDOCK:   -8.17 KCAL/MOL
REMARK 924 INTRA-LIGAND FREE ENERGY PREDICTED BY IDOCK:   -2.63 KCAL/MOL
REMARK 927      BINDING AFFINITY PREDICTED BY RF-SCORE:    0.00 PKD
ROOT
HETATM    1  C   UNL     1     -10.250   6.669  67.672  1.00  0.00    -0.220 C  
HETATM    2  C   UNL     1     -11.130   6.282  68.850  1.00  0.00    -0.434 C  
ENDROOT
BRANCH   2   3
HETATM    3  C   UNL     1     -10.410   5.419  69.848  1.00  0.00    -0.377 C  
HETATM    4  C   UNL     1     -10.572   5.471  71.181  1.00  0.00    -0.303 C  
BRANCH   4   5
HETATM    5  C   UNL     1     -11.430   6.462  71.917  1.00  0.00    -0.352 C  
BRANCH   5   6
HETATM    6  C   UNL     1     -10.607   7.535  72.578  1.00  0.00    -0.321 C  
HETATM    7  C   UNL     1     -10.422   8.786  72.123  1.00  0.00    -0.384 C  
BRANCH   7   8
HETATM    8  C   UNL     1     -10.991   9.319  70.840  1.00  0.00    -0.368 C  
BRANCH   8   9
HETATM    9  C   UNL     1     -11.950  10.451  71.062  1.00  0.00    -0.481 C  
HETATM   10  C   UNL     1     -12.281  11.406  70.177  1.00  0.00    -0.401 C  
BRANCH  10  11
HETATM   11  C   UNL     1     -11.825  11.514  68.747  1.00  0.00    -0.394 C  
BRANCH  11  12
HETATM   12  C   UNL     1     -10.632  12.413  68.571  1.00  0.00    -0.251 C  
HETATM   13  C   UNL     1      -9.404  12.047  68.171  1.00  0.00    -0.199 C  
BRANCH  13  14
HETATM   14  C   UNL     1      -8.966  10.647  67.892  1.00  0.00    -0.138 C  
BRANCH  14  15
HETATM   15  C   UNL     1      -7.808  10.571  66.937  1.00  0.00    -0.117 C  
HETATM   16  C   UNL     1      -7.936  10.192  65.653  1.00  0.00    -0.147 C  
BRANCH  16  17
HETATM   17  C   UNL     1      -9.226   9.744  65.034  1.00  0.00    -0.307 C  
BRANCH  17  18
HETATM   18  C   UNL     1      -9.415  10.245  63.628  1.00  0.00    -0.348 C  
HETATM   19  C   UNL     1      -9.915  11.463  63.351  1.00  0.00    -0.435 C  
BRANCH  19  20
HETATM   20  C   UNL     1     -10.310  12.422  64.442  1.00  0.00    -0.370 C  
BRANCH  20  21
HETATM   21  C   UNL     1     -11.807  12.508  64.713  1.00  0.00    -0.440 C  
HETATM   22  C   UNL     1     -12.196  13.963  64.864  1.00  0.00    -0.422 C  
HETATM   23  O   UNL     1     -13.310  14.137  65.615  1.00  0.00    -0.602 OA 
HETATM   24  O   UNL     1     -11.611  14.902  64.355  1.00  0.00    -0.362 OA 
ENDBRANCH  20  21
ENDBRANCH  19  20
ENDBRANCH  17  18
ENDBRANCH  16  17
ENDBRANCH  14  15
ENDBRANCH  13  14
ENDBRANCH  11  12
ENDBRANCH  10  11
ENDBRANCH   8   9
ENDBRANCH   7   8
ENDBRANCH   5   6
ENDBRANCH   4   5
ENDBRANCH   2   3
TORSDOF 13
ENDMDL
MODEL      120
REMARK 921   NORMALIZED FREE ENERGY PREDICTED BY IDOCK:   -4.55 KCAL/MOL
REMARK 922        TOTAL FREE ENERGY PREDICTED BY IDOCK:  -10.79 KCAL/MOL
REMARK 923 INTER-LIGAND FREE ENERGY PREDICTED BY IDOCK:   -8.16 KCAL/MOL
REMARK 924 INTRA-LIGAND FREE ENERGY PREDICTED BY IDOCK:   -2.63 KCAL/MOL
REMARK 927      BINDING AFFINITY PREDICTED BY RF-SCORE:    0.00 PKD
ROOT
HETATM    1  C   UNL     1     -10.602   8.780  67.650  1.00  0.00    -0.281 C  
HETATM    2  C   UNL     1     -10.076   9.523  68.867  1.00  0.00    -0.199 C  
ENDROOT
BRANCH   2   3
HETATM    3  C   UNL     1      -8.749   8.996  69.335  1.00  0.00    -0.142 C  
HETATM    4  C   UNL     1      -8.473   8.577  70.582  1.00  0.00    -0.158 C  
BRANCH   4   5
HETATM    5  C   UNL     1      -9.413   8.646  71.753  1.00  0.00    -0.354 C  
BRANCH   5   6
HETATM    6  C   UNL     1     -10.259   7.408  71.868  1.00  0.00    -0.213 C  
HETATM    7  C   UNL     1     -11.574   7.367  72.148  1.00  0.00    -0.331 C  
BRANCH   7   8
HETATM    8  C   UNL     1     -12.421   8.573  72.428  1.00  0.00    -0.416 C  
BRANCH   8   9
HETATM    9  C   UNL     1     -13.026   9.154  71.184  1.00  0.00    -0.230 C  
HETATM   10  C   UNL     1     -13.140  10.458  70.881  1.00  0.00    -0.412 C  
BRANCH  10  11
HETATM   11  C   UNL     1     -12.622  11.622  71.681  1.00  0.00    -0.278 C  
BRANCH  11  12
HETATM   12  C   UNL     1     -13.713  12.517  72.201  1.00  0.00    -0.338 C  
HETATM   13  C   UNL     1     -13.641  13.844  72.389  1.00  0.00    -0.676 C  
BRANCH  13  14
HETATM   14  C   UNL     1     -12.422  14.682  72.185  1.00  0.00    -0.394 C  
BRANCH  14  15
HETATM   15  C   UNL     1     -12.542  15.623  71.019  1.00  0.00    -0.515 C  
HETATM   16  C   UNL     1     -12.209  15.284  69.761  1.00  0.00    -0.326 C  
BRANCH  16  17
HETATM   17  C   UNL     1     -11.624  13.958  69.375  1.00  0.00    -0.350 C  
BRANCH  17  18
HETATM   18  C   UNL     1     -10.477  14.075  68.410  1.00  0.00    -0.254 C  
HETATM   19  C   UNL     1     -10.426  13.389  67.254  1.00  0.00    -0.248 C  
BRANCH  19  20
HETATM   20  C   UNL     1     -11.534  12.459  66.837  1.00  0.00    -0.423 C  
BRANCH  20  21
HETATM   21  C   UNL     1     -12.054  12.671  65.421  1.00  0.00    -0.516 C  
HETATM   22  C   UNL     1     -11.156  11.933  64.451  1.00  0.00    -0.336 C  
HETATM   23  O   UNL     1     -11.173  12.466  63.206  1.00  0.00    -0.441 OA 
HETATM   24  O   UNL     1     -10.497  10.945  64.720  1.00  0.00    -0.328 OA 
ENDBRANCH  20  21
ENDBRANCH  19  20
ENDBRANCH  17  18
ENDBRANCH  16  17
ENDBRANCH  14  15
ENDBRANCH  13  14
ENDBRANCH  11  12
ENDBRANCH  10  11
ENDBRANCH   8   9
ENDBRANCH   7   8
ENDBRANCH   5   6
ENDBRANCH   4   5
ENDBRANCH   2   3
TORSDOF 13
ENDMDL
MODEL      121
REMARK 921   NORMALIZED FREE ENERGY PREDICTED BY IDOCK:   -4.55 KCAL/MOL
REMARK 922        TOTAL FREE ENERGY PREDICTED BY IDOCK:  -10.79 KCAL/MOL
REMARK 923 INTER-LIGAND FREE ENERGY PREDICTED BY IDOCK:   -8.49 KCAL/MOL
REMARK 924 INTRA-LIGAND FREE ENERGY PREDICTED BY IDOCK:   -2.30 KCAL/MOL
REMARK 927      BINDING AFFINITY PREDICTED BY RF-SCORE:    0.00 PKD
ROOT
HETATM    1  C   UNL     1      -7.820   9.400  70.416  1.00  0.00    -0.179 C  
HETATM    2  C   UNL     1      -9.163   8.801  70.032  1.00  0.00    -0.173 C  
ENDROOT
BRANCH   2   3
HETATM    3  C   UNL     1      -9.034   7.418  69.458  1.00  0.00    -0.144 C  
HETATM    4  C   UNL     1      -9.373   6.280  70.088  1.00  0.00    -0.165 C  
BRANCH   4   5
HETATM    5  C   UNL     1      -9.852   6.178  71.508  1.00  0.00    -0.190 C  
BRANCH   5   6
HETATM    6  C   UNL     1     -11.349   6.043  71.588  1.00  0.00    -0.313 C  
HETATM    7  C   UNL     1     -12.229   7.046  71.756  1.00  0.00    -0.387 C  
BRANCH   7   8
HETATM    8  C   UNL     1     -11.853   8.488  71.926  1.00  0.00    -0.407 C  
BRANCH   8   9
HETATM    9  C   UNL     1     -13.050   9.378  72.093  1.00  0.00    -0.526 C  
HETATM   10  C   UNL     1     -13.193  10.627  71.617  1.00  0.00    -0.495 C  
BRANCH  10  11
HETATM   11  C   UNL     1     -12.222  11.382  70.749  1.00  0.00    -0.475 C  
BRANCH  11  12
HETATM   12  C   UNL     1     -12.144  10.851  69.344  1.00  0.00    -0.362 C  
HETATM   13  C   UNL     1     -11.409  11.350  68.338  1.00  0.00    -0.346 C  
BRANCH  13  14
HETATM   14  C   UNL     1     -10.576  12.586  68.405  1.00  0.00    -0.256 C  
BRANCH  14  15
HETATM   15  C   UNL     1      -9.121  12.334  68.123  1.00  0.00    -0.196 C  
HETATM   16  C   UNL     1      -8.192  13.305  68.118  1.00  0.00    -0.160 C  
BRANCH  16  17
HETATM   17  C   UNL     1      -8.494  14.758  68.331  1.00  0.00    -0.157 C  
BRANCH  17  18
HETATM   18  C   UNL     1      -8.020  15.634  67.204  1.00  0.00    -0.254 C  
HETATM   19  C   UNL     1      -8.859  16.194  66.315  1.00  0.00    -0.371 C  
BRANCH  19  20
HETATM   20  C   UNL     1     -10.349  15.991  66.397  1.00  0.00    -0.312 C  
BRANCH  20  21
HETATM   21  C   UNL     1     -10.901  14.898  65.491  1.00  0.00    -0.365 C  
HETATM   22  C   UNL     1     -11.691  15.540  64.371  1.00  0.00    -0.242 C  
HETATM   23  O   UNL     1     -12.640  14.722  63.856  1.00  0.00    -0.834 OA 
HETATM   24  O   UNL     1     -11.503  16.662  63.934  1.00  0.00    -1.186 OA 
ENDBRANCH  20  21
ENDBRANCH  19  20
ENDBRANCH  17  18
ENDBRANCH  16  17
ENDBRANCH  14  15
ENDBRANCH  13  14
ENDBRANCH  11  12
ENDBRANCH  10  11
ENDBRANCH   8   9
ENDBRANCH   7   8
ENDBRANCH   5   6
ENDBRANCH   4   5
ENDBRANCH   2   3
TORSDOF 13
ENDMDL
MODEL      122
REMARK 921   NORMALIZED FREE ENERGY PREDICTED BY IDOCK:   -4.55 KCAL/MOL
REMARK 922        TOTAL FREE ENERGY PREDICTED BY IDOCK:  -10.78 KCAL/MOL
REMARK 923 INTER-LIGAND FREE ENERGY PREDICTED BY IDOCK:   -8.10 KCAL/MOL
REMARK 924 INTRA-LIGAND FREE ENERGY PREDICTED BY IDOCK:   -2.68 KCAL/MOL
REMARK 927      BINDING AFFINITY PREDICTED BY RF-SCORE:    0.00 PKD
ROOT
HETATM    1  C   UNL     1     -12.226  14.251  64.161  1.00  0.00    -0.410 C  
HETATM    2  C   UNL     1     -12.475  12.901  64.812  1.00  0.00    -0.517 C  
ENDROOT
BRANCH   2   3
HETATM    3  C   UNL     1     -12.056  11.753  63.938  1.00  0.00    -0.414 C  
HETATM    4  C   UNL     1     -10.843  11.172  63.945  1.00  0.00    -0.346 C  
BRANCH   4   5
HETATM    5  C   UNL     1      -9.664  11.625  64.759  1.00  0.00    -0.217 C  
BRANCH   5   6
HETATM    6  C   UNL     1      -9.506  10.815  66.016  1.00  0.00    -0.230 C  
HETATM    7  C   UNL     1      -8.545  10.969  66.945  1.00  0.00    -0.143 C  
BRANCH   7   8
HETATM    8  C   UNL     1      -7.433  11.972  66.861  1.00  0.00    -0.051 C  
BRANCH   8   9
HETATM    9  C   UNL     1      -7.582  13.081  67.862  1.00  0.00    -0.144 C  
HETATM   10  C   UNL     1      -8.317  14.196  67.719  1.00  0.00    -0.175 C  
BRANCH  10  11
HETATM   11  C   UNL     1      -9.212  14.550  66.562  1.00  0.00    -0.282 C  
BRANCH  11  12
HETATM   12  C   UNL     1     -10.511  15.179  66.987  1.00  0.00    -0.282 C  
HETATM   13  C   UNL     1     -11.304  14.780  67.994  1.00  0.00    -0.332 C  
BRANCH  13  14
HETATM   14  C   UNL     1     -11.080  13.575  68.846  1.00  0.00    -0.305 C  
BRANCH  14  15
HETATM   15  C   UNL     1     -11.682  12.324  68.269  1.00  0.00    -0.392 C  
HETATM   16  C   UNL     1     -11.845  11.191  68.974  1.00  0.00    -0.418 C  
BRANCH  16  17
HETATM   17  C   UNL     1     -11.395  11.012  70.393  1.00  0.00    -0.222 C  
BRANCH  17  18
HETATM   18  C   UNL     1     -12.508  10.615  71.323  1.00  0.00    -0.515 C  
HETATM   19  C   UNL     1     -13.366  11.505  71.852  1.00  0.00    -0.408 C  
BRANCH  19  20
HETATM   20  C   UNL     1     -13.278  12.974  71.535  1.00  0.00    -0.360 C  
BRANCH  20  21
HETATM   21  C   UNL     1     -13.342  13.899  72.745  1.00  0.00    -0.567 C  
HETATM   22  C   UNL     1     -13.059  15.316  72.295  1.00  0.00    -0.382 C  
HETATM   23  O   UNL     1     -12.561  16.095  73.286  1.00  0.00    -0.463 OA 
HETATM   24  O   UNL     1     -13.270  15.753  71.178  1.00  0.00    -0.526 OA 
ENDBRANCH  20  21
ENDBRANCH  19  20
ENDBRANCH  17  18
ENDBRANCH  16  17
ENDBRANCH  14  15
ENDBRANCH  13  14
ENDBRANCH  11  12
ENDBRANCH  10  11
ENDBRANCH   8   9
ENDBRANCH   7   8
ENDBRANCH   5   6
ENDBRANCH   4   5
ENDBRANCH   2   3
TORSDOF 13
ENDMDL
MODEL      123
REMARK 921   NORMALIZED FREE ENERGY PREDICTED BY IDOCK:   -4.55 KCAL/MOL
REMARK 922        TOTAL FREE ENERGY PREDICTED BY IDOCK:  -10.78 KCAL/MOL
REMARK 923 INTER-LIGAND FREE ENERGY PREDICTED BY IDOCK:   -7.99 KCAL/MOL
REMARK 924 INTRA-LIGAND FREE ENERGY PREDICTED BY IDOCK:   -2.80 KCAL/MOL
REMARK 927      BINDING AFFINITY PREDICTED BY RF-SCORE:    0.00 PKD
ROOT
HETATM    1  C   UNL     1     -11.073   6.044  69.609  1.00  0.00    -0.474 C  
HETATM    2  C   UNL     1     -11.855   6.569  70.802  1.00  0.00    -0.394 C  
ENDROOT
BRANCH   2   3
HETATM    3  C   UNL     1     -10.975   7.245  71.815  1.00  0.00    -0.256 C  
HETATM    4  C   UNL     1     -10.899   8.571  72.019  1.00  0.00    -0.405 C  
BRANCH   4   5
HETATM    5  C   UNL     1     -11.608   9.620  71.209  1.00  0.00    -0.466 C  
BRANCH   5   6
HETATM    6  C   UNL     1     -10.750  10.138  70.086  1.00  0.00    -0.355 C  
HETATM    7  C   UNL     1     -10.900  11.312  69.449  1.00  0.00    -0.239 C  
BRANCH   7   8
HETATM    8  C   UNL     1     -11.989  12.304  69.736  1.00  0.00    -0.365 C  
BRANCH   8   9
HETATM    9  C   UNL     1     -11.638  13.691  69.284  1.00  0.00    -0.363 C  
HETATM   10  C   UNL     1     -11.771  14.187  68.043  1.00  0.00    -0.394 C  
BRANCH  10  11
HETATM   11  C   UNL     1     -12.368  13.492  66.849  1.00  0.00    -0.289 C  
BRANCH  11  12
HETATM   12  C   UNL     1     -12.135  14.227  65.557  1.00  0.00    -0.397 C  
HETATM   13  C   UNL     1     -12.101  13.694  64.326  1.00  0.00    -0.480 C  
BRANCH  13  14
HETATM   14  C   UNL     1     -12.216  12.240  64.009  1.00  0.00    -0.569 C  
BRANCH  14  15
HETATM   15  C   UNL     1     -10.931  11.642  63.508  1.00  0.00    -0.485 C  
HETATM   16  C   UNL     1     -10.047  11.018  64.306  1.00  0.00    -0.398 C  
BRANCH  16  17
HETATM   17  C   UNL     1     -10.199  10.895  65.793  1.00  0.00    -0.318 C  
BRANCH  17  18
HETATM   18  C   UNL     1      -8.897  10.644  66.503  1.00  0.00    -0.160 C  
HETATM   19  C   UNL     1      -8.170  11.629  67.060  1.00  0.00    -0.170 C  
BRANCH  19  20
HETATM   20  C   UNL     1      -8.622  13.064  67.022  1.00  0.00    -0.165 C  
BRANCH  20  21
HETATM   21  C   UNL     1      -7.656  14.061  67.650  1.00  0.00    -0.191 C  
HETATM   22  C   UNL     1      -7.869  15.418  67.017  1.00  0.00    -0.209 C  
HETATM   23  O   UNL     1      -6.770  16.208  67.075  1.00  0.00    -0.196 OA 
HETATM   24  O   UNL     1      -8.913  15.805  66.522  1.00  0.00    -0.249 OA 
ENDBRANCH  20  21
ENDBRANCH  19  20
ENDBRANCH  17  18
ENDBRANCH  16  17
ENDBRANCH  14  15
ENDBRANCH  13  14
ENDBRANCH  11  12
ENDBRANCH  10  11
ENDBRANCH   8   9
ENDBRANCH   7   8
ENDBRANCH   5   6
ENDBRANCH   4   5
ENDBRANCH   2   3
TORSDOF 13
ENDMDL
MODEL      124
REMARK 921   NORMALIZED FREE ENERGY PREDICTED BY IDOCK:   -4.54 KCAL/MOL
REMARK 922        TOTAL FREE ENERGY PREDICTED BY IDOCK:  -10.77 KCAL/MOL
REMARK 923 INTER-LIGAND FREE ENERGY PREDICTED BY IDOCK:   -8.18 KCAL/MOL
REMARK 924 INTRA-LIGAND FREE ENERGY PREDICTED BY IDOCK:   -2.59 KCAL/MOL
REMARK 927      BINDING AFFINITY PREDICTED BY RF-SCORE:    0.00 PKD
ROOT
HETATM    1  C   UNL     1     -10.087  18.289  67.112  1.00  0.00    -0.367 C  
HETATM    2  C   UNL     1     -10.445  16.829  67.330  1.00  0.00    -0.310 C  
ENDROOT
BRANCH   2   3
HETATM    3  C   UNL     1      -9.519  15.894  66.604  1.00  0.00    -0.263 C  
HETATM    4  C   UNL     1      -9.845  15.157  65.528  1.00  0.00    -0.356 C  
BRANCH   4   5
HETATM    5  C   UNL     1     -11.214  15.064  64.916  1.00  0.00    -0.423 C  
BRANCH   5   6
HETATM    6  C   UNL     1     -12.081  14.062  65.628  1.00  0.00    -0.432 C  
HETATM    7  C   UNL     1     -12.509  12.888  65.133  1.00  0.00    -0.561 C  
BRANCH   7   8
HETATM    8  C   UNL     1     -12.211  12.389  63.750  1.00  0.00    -0.626 C  
BRANCH   8   9
HETATM    9  C   UNL     1     -10.752  12.111  63.540  1.00  0.00    -0.509 C  
HETATM   10  C   UNL     1      -9.945  11.405  64.350  1.00  0.00    -0.321 C  
BRANCH  10  11
HETATM   11  C   UNL     1     -10.337  10.675  65.606  1.00  0.00    -0.285 C  
BRANCH  11  12
HETATM   12  C   UNL     1      -9.635  11.186  66.834  1.00  0.00    -0.208 C  
HETATM   13  C   UNL     1     -10.197  11.479  68.017  1.00  0.00    -0.205 C  
BRANCH  13  14
HETATM   14  C   UNL     1     -11.658  11.421  68.318  1.00  0.00    -0.376 C  
BRANCH  14  15
HETATM   15  C   UNL     1     -12.027  12.131  69.590  1.00  0.00    -0.351 C  
HETATM   16  C   UNL     1     -12.283  11.491  70.744  1.00  0.00    -0.463 C  
BRANCH  16  17
HETATM   17  C   UNL     1     -12.296   9.999  70.892  1.00  0.00    -0.438 C  
BRANCH  17  18
HETATM   18  C   UNL     1     -11.049   9.456  71.534  1.00  0.00    -0.446 C  
HETATM   19  C   UNL     1     -10.238   8.575  70.919  1.00  0.00    -0.246 C  
BRANCH  19  20
HETATM   20  C   UNL     1     -10.521   8.079  69.526  1.00  0.00    -0.226 C  
BRANCH  20  21
HETATM   21  C   UNL     1      -9.332   8.118  68.575  1.00  0.00    -0.138 C  
HETATM   22  C   UNL     1      -9.700   7.393  67.298  1.00  0.00    -0.157 C  
HETATM   23  O   UNL     1      -8.623   6.897  66.643  1.00  0.00    -0.116 OA 
HETATM   24  O   UNL     1     -10.830   7.274  66.861  1.00  0.00    -0.355 OA 
ENDBRANCH  20  21
ENDBRANCH  19  20
ENDBRANCH  17  18
ENDBRANCH  16  17
ENDBRANCH  14  15
ENDBRANCH  13  14
ENDBRANCH  11  12
ENDBRANCH  10  11
ENDBRANCH   8   9
ENDBRANCH   7   8
ENDBRANCH   5   6
ENDBRANCH   4   5
ENDBRANCH   2   3
TORSDOF 13
ENDMDL
MODEL      125
REMARK 921   NORMALIZED FREE ENERGY PREDICTED BY IDOCK:   -4.54 KCAL/MOL
REMARK 922        TOTAL FREE ENERGY PREDICTED BY IDOCK:  -10.77 KCAL/MOL
REMARK 923 INTER-LIGAND FREE ENERGY PREDICTED BY IDOCK:   -8.30 KCAL/MOL
REMARK 924 INTRA-LIGAND FREE ENERGY PREDICTED BY IDOCK:   -2.47 KCAL/MOL
REMARK 927      BINDING AFFINITY PREDICTED BY RF-SCORE:    0.00 PKD
ROOT
HETATM    1  C   UNL     1     -11.597  15.823  69.159  1.00  0.00    -0.399 C  
HETATM    2  C   UNL     1     -11.239  15.328  70.550  1.00  0.00    -0.338 C  
ENDROOT
BRANCH   2   3
HETATM    3  C   UNL     1     -12.144  15.887  71.611  1.00  0.00    -0.554 C  
HETATM    4  C   UNL     1     -13.239  15.280  72.099  1.00  0.00    -0.489 C  
BRANCH   4   5
HETATM    5  C   UNL     1     -13.807  13.978  71.607  1.00  0.00    -0.405 C  
BRANCH   5   6
HETATM    6  C   UNL     1     -13.327  12.811  72.427  1.00  0.00    -0.479 C  
HETATM    7  C   UNL     1     -12.954  11.609  71.955  1.00  0.00    -0.442 C  
BRANCH   7   8
HETATM    8  C   UNL     1     -12.986  11.216  70.507  1.00  0.00    -0.106 C  
BRANCH   8   9
HETATM    9  C   UNL     1     -12.026  12.013  69.673  1.00  0.00    -0.360 C  
HETATM   10  C   UNL     1     -10.828  11.605  69.221  1.00  0.00    -0.203 C  
BRANCH  10  11
HETATM   11  C   UNL     1     -10.215  10.240  69.383  1.00  0.00    -0.255 C  
BRANCH  11  12
HETATM   12  C   UNL     1     -10.393   9.363  68.174  1.00  0.00    -0.255 C  
HETATM   13  C   UNL     1     -10.115   9.685  66.901  1.00  0.00    -0.290 C  
BRANCH  13  14
HETATM   14  C   UNL     1      -9.642  11.020  66.430  1.00  0.00    -0.227 C  
BRANCH  14  15
HETATM   15  C   UNL     1      -8.159  11.210  66.590  1.00  0.00    -0.159 C  
HETATM   16  C   UNL     1      -7.616  12.263  67.225  1.00  0.00    -0.152 C  
BRANCH  16  17
HETATM   17  C   UNL     1      -8.408  13.402  67.793  1.00  0.00    -0.178 C  
BRANCH  17  18
HETATM   18  C   UNL     1      -8.311  14.660  66.974  1.00  0.00    -0.214 C  
HETATM   19  C   UNL     1      -9.298  15.075  66.159  1.00  0.00    -0.327 C  
BRANCH  19  20
HETATM   20  C   UNL     1     -10.586  14.307  66.023  1.00  0.00    -0.302 C  
BRANCH  20  21
HETATM   21  C   UNL     1     -10.952  13.913  64.597  1.00  0.00    -0.406 C  
HETATM   22  C   UNL     1     -12.441  13.649  64.528  1.00  0.00    -0.287 C  
HETATM   23  O   UNL     1     -12.781  12.801  63.526  1.00  0.00    -0.713 OA 
HETATM   24  O   UNL     1     -13.277  14.149  65.259  1.00  0.00    -0.760 OA 
ENDBRANCH  20  21
ENDBRANCH  19  20
ENDBRANCH  17  18
ENDBRANCH  16  17
ENDBRANCH  14  15
ENDBRANCH  13  14
ENDBRANCH  11  12
ENDBRANCH  10  11
ENDBRANCH   8   9
ENDBRANCH   7   8
ENDBRANCH   5   6
ENDBRANCH   4   5
ENDBRANCH   2   3
TORSDOF 13
ENDMDL
MODEL      126
REMARK 921   NORMALIZED FREE ENERGY PREDICTED BY IDOCK:   -4.54 KCAL/MOL
REMARK 922        TOTAL FREE ENERGY PREDICTED BY IDOCK:  -10.76 KCAL/MOL
REMARK 923 INTER-LIGAND FREE ENERGY PREDICTED BY IDOCK:   -7.93 KCAL/MOL
REMARK 924 INTRA-LIGAND FREE ENERGY PREDICTED BY IDOCK:   -2.83 KCAL/MOL
REMARK 927      BINDING AFFINITY PREDICTED BY RF-SCORE:    0.00 PKD
ROOT
HETATM    1  C   UNL     1      -9.652  15.613  65.994  1.00  0.00    -0.386 C  
HETATM    2  C   UNL     1     -10.196  14.458  65.169  1.00  0.00    -0.420 C  
ENDROOT
BRANCH   2   3
HETATM    3  C   UNL     1     -11.694  14.363  65.228  1.00  0.00    -0.364 C  
HETATM    4  C   UNL     1     -12.396  13.726  66.181  1.00  0.00    -0.496 C  
BRANCH   4   5
HETATM    5  C   UNL     1     -11.809  12.917  67.303  1.00  0.00    -0.416 C  
BRANCH   5   6
HETATM    6  C   UNL     1     -11.900  13.636  68.621  1.00  0.00    -0.409 C  
HETATM    7  C   UNL     1     -12.033  13.065  69.831  1.00  0.00    -0.381 C  
BRANCH   7   8
HETATM    8  C   UNL     1     -12.149  11.587  70.066  1.00  0.00    -0.408 C  
BRANCH   8   9
HETATM    9  C   UNL     1     -12.919  11.261  71.311  1.00  0.00    -0.427 C  
HETATM   10  C   UNL     1     -13.147  10.036  71.815  1.00  0.00    -0.562 C  
BRANCH  10  11
HETATM   11  C   UNL     1     -12.622   8.728  71.289  1.00  0.00    -0.285 C  
BRANCH  11  12
HETATM   12  C   UNL     1     -11.762   7.993  72.281  1.00  0.00    -0.428 C  
HETATM   13  C   UNL     1     -10.437   8.126  72.449  1.00  0.00    -0.389 C  
BRANCH  13  14
HETATM   14  C   UNL     1      -9.543   8.988  71.622  1.00  0.00    -0.319 C  
BRANCH  14  15
HETATM   15  C   UNL     1      -8.942   8.261  70.451  1.00  0.00    -0.146 C  
HETATM   16  C   UNL     1      -8.898   8.774  69.209  1.00  0.00    -0.140 C  
BRANCH  16  17
HETATM   17  C   UNL     1      -9.493  10.095  68.823  1.00  0.00    -0.171 C  
BRANCH  17  18
HETATM   18  C   UNL     1      -8.608  10.901  67.912  1.00  0.00    -0.130 C  
HETATM   19  C   UNL     1      -8.747  10.897  66.574  1.00  0.00    -0.165 C  
BRANCH  19  20
HETATM   20  C   UNL     1      -9.818  10.088  65.892  1.00  0.00    -0.330 C  
BRANCH  20  21
HETATM   21  C   UNL     1     -10.405  10.724  64.638  1.00  0.00    -0.394 C  
HETATM   22  C   UNL     1      -9.489  10.440  63.468  1.00  0.00    -0.312 C  
HETATM   23  O   UNL     1      -9.592  11.361  62.479  1.00  0.00    -0.249 OA 
HETATM   24  O   UNL     1      -8.744   9.480  63.377  1.00  0.00    -0.206 OA 
ENDBRANCH  20  21
ENDBRANCH  19  20
ENDBRANCH  17  18
ENDBRANCH  16  17
ENDBRANCH  14  15
ENDBRANCH  13  14
ENDBRANCH  11  12
ENDBRANCH  10  11
ENDBRANCH   8   9
ENDBRANCH   7   8
ENDBRANCH   5   6
ENDBRANCH   4   5
ENDBRANCH   2   3
TORSDOF 13
ENDMDL
MODEL      127
REMARK 921   NORMALIZED FREE ENERGY PREDICTED BY IDOCK:   -4.53 KCAL/MOL
REMARK 922        TOTAL FREE ENERGY PREDICTED BY IDOCK:  -10.75 KCAL/MOL
REMARK 923 INTER-LIGAND FREE ENERGY PREDICTED BY IDOCK:   -8.14 KCAL/MOL
REMARK 924 INTRA-LIGAND FREE ENERGY PREDICTED BY IDOCK:   -2.60 KCAL/MOL
REMARK 927      BINDING AFFINITY PREDICTED BY RF-SCORE:    0.00 PKD
ROOT
HETATM    1  C   UNL     1      -9.928   5.266  70.515  1.00  0.00    -0.299 C  
HETATM    2  C   UNL     1     -11.212   6.046  70.286  1.00  0.00    -0.392 C  
ENDROOT
BRANCH   2   3
HETATM    3  C   UNL     1     -11.907   6.402  71.570  1.00  0.00    -0.355 C  
HETATM    4  C   UNL     1     -11.991   7.637  72.092  1.00  0.00    -0.344 C  
BRANCH   4   5
HETATM    5  C   UNL     1     -11.328   8.866  71.537  1.00  0.00    -0.395 C  
BRANCH   5   6
HETATM    6  C   UNL     1      -9.852   8.886  71.826  1.00  0.00    -0.386 C  
HETATM    7  C   UNL     1      -8.874   9.158  70.944  1.00  0.00    -0.292 C  
BRANCH   7   8
HETATM    8  C   UNL     1      -9.097   9.461  69.492  1.00  0.00    -0.169 C  
BRANCH   8   9
HETATM    9  C   UNL     1      -8.222  10.574  68.994  1.00  0.00    -0.145 C  
HETATM   10  C   UNL     1      -8.629  11.772  68.541  1.00  0.00    -0.123 C  
BRANCH  10  11
HETATM   11  C   UNL     1     -10.040  12.294  68.500  1.00  0.00    -0.192 C  
BRANCH  11  12
HETATM   12  C   UNL     1     -10.794  11.869  67.270  1.00  0.00    -0.294 C  
HETATM   13  C   UNL     1     -11.601  12.635  66.520  1.00  0.00    -0.441 C  
BRANCH  13  14
HETATM   14  C   UNL     1     -11.966  14.052  66.812  1.00  0.00    -0.473 C  
BRANCH  14  15
HETATM   15  C   UNL     1     -10.922  15.035  66.363  1.00  0.00    -0.336 C  
HETATM   16  C   UNL     1     -10.479  16.044  67.133  1.00  0.00    -0.308 C  
BRANCH  16  17
HETATM   17  C   UNL     1     -11.011  16.353  68.501  1.00  0.00    -0.350 C  
BRANCH  17  18
HETATM   18  C   UNL     1     -10.182  15.760  69.607  1.00  0.00    -0.289 C  
HETATM   19  C   UNL     1     -10.722  15.254  70.731  1.00  0.00    -0.174 C  
BRANCH  19  20
HETATM   20  C   UNL     1     -12.211  15.236  70.953  1.00  0.00    -0.409 C  
BRANCH  20  21
HETATM   21  C   UNL     1     -12.859  13.861  70.854  1.00  0.00    -0.370 C  
HETATM   22  C   UNL     1     -13.414  13.480  72.209  1.00  0.00    -0.571 C  
HETATM   23  O   UNL     1     -13.507  12.140  72.386  1.00  0.00    -0.425 OA 
HETATM   24  O   UNL     1     -13.776  14.268  73.065  1.00  0.00    -0.613 OA 
ENDBRANCH  20  21
ENDBRANCH  19  20
ENDBRANCH  17  18
ENDBRANCH  16  17
ENDBRANCH  14  15
ENDBRANCH  13  14
ENDBRANCH  11  12
ENDBRANCH  10  11
ENDBRANCH   8   9
ENDBRANCH   7   8
ENDBRANCH   5   6
ENDBRANCH   4   5
ENDBRANCH   2   3
TORSDOF 13
ENDMDL
MODEL      128
REMARK 921   NORMALIZED FREE ENERGY PREDICTED BY IDOCK:   -4.52 KCAL/MOL
REMARK 922        TOTAL FREE ENERGY PREDICTED BY IDOCK:  -10.74 KCAL/MOL
REMARK 923 INTER-LIGAND FREE ENERGY PREDICTED BY IDOCK:   -9.07 KCAL/MOL
REMARK 924 INTRA-LIGAND FREE ENERGY PREDICTED BY IDOCK:   -1.67 KCAL/MOL
REMARK 927      BINDING AFFINITY PREDICTED BY RF-SCORE:    0.00 PKD
ROOT
HETATM    1  C   UNL     1     -11.258   6.184  69.247  1.00  0.00    -0.438 C  
HETATM    2  C   UNL     1     -10.720   5.828  70.623  1.00  0.00    -0.351 C  
ENDROOT
BRANCH   2   3
HETATM    3  C   UNL     1     -11.633   6.272  71.731  1.00  0.00    -0.358 C  
HETATM    4  C   UNL     1     -11.736   7.528  72.198  1.00  0.00    -0.344 C  
BRANCH   4   5
HETATM    5  C   UNL     1     -10.892   8.692  71.761  1.00  0.00    -0.395 C  
BRANCH   5   6
HETATM    6  C   UNL     1     -11.727   9.905  71.452  1.00  0.00    -0.449 C  
HETATM    7  C   UNL     1     -11.598  10.705  70.379  1.00  0.00    -0.441 C  
BRANCH   7   8
HETATM    8  C   UNL     1     -10.560  10.535  69.310  1.00  0.00    -0.265 C  
BRANCH   8   9
HETATM    9  C   UNL     1     -11.161  10.259  67.962  1.00  0.00    -0.336 C  
HETATM   10  C   UNL     1     -10.668  10.641  66.772  1.00  0.00    -0.272 C  
BRANCH  10  11
HETATM   11  C   UNL     1      -9.372  11.361  66.516  1.00  0.00    -0.204 C  
BRANCH  11  12
HETATM   12  C   UNL     1      -9.562  12.767  66.019  1.00  0.00    -0.182 C  
HETATM   13  C   UNL     1      -9.560  13.887  66.758  1.00  0.00    -0.288 C  
BRANCH  13  14
HETATM   14  C   UNL     1      -9.440  13.942  68.245  1.00  0.00    -0.217 C  
BRANCH  14  15
HETATM   15  C   UNL     1      -9.371  15.345  68.780  1.00  0.00    -0.209 C  
HETATM   16  C   UNL     1     -10.434  15.995  69.286  1.00  0.00    -0.257 C  
BRANCH  16  17
HETATM   17  C   UNL     1     -11.823  15.432  69.322  1.00  0.00    -0.365 C  
BRANCH  17  18
HETATM   18  C   UNL     1     -11.944  14.205  70.183  1.00  0.00    -0.400 C  
HETATM   19  C   UNL     1     -12.897  14.067  71.123  1.00  0.00    -0.427 C  
BRANCH  19  20
HETATM   20  C   UNL     1     -13.926  15.138  71.369  1.00  0.00    -0.595 C  
BRANCH  20  21
HETATM   21  C   UNL     1     -14.022  15.619  72.812  1.00  0.00    -0.563 C  
HETATM   22  C   UNL     1     -12.691  16.209  73.223  1.00  0.00    -0.504 C  
HETATM   23  O   UNL     1     -12.481  16.160  74.561  1.00  0.00    -0.705 OA 
HETATM   24  O   UNL     1     -11.881  16.709  72.463  1.00  0.00    -0.506 OA 
ENDBRANCH  20  21
ENDBRANCH  19  20
ENDBRANCH  17  18
ENDBRANCH  16  17
ENDBRANCH  14  15
ENDBRANCH  13  14
ENDBRANCH  11  12
ENDBRANCH  10  11
ENDBRANCH   8   9
ENDBRANCH   7   8
ENDBRANCH   5   6
ENDBRANCH   4   5
ENDBRANCH   2   3
TORSDOF 13
ENDMDL
MODEL      129
REMARK 921   NORMALIZED FREE ENERGY PREDICTED BY IDOCK:   -4.52 KCAL/MOL
REMARK 922        TOTAL FREE ENERGY PREDICTED BY IDOCK:  -10.73 KCAL/MOL
REMARK 923 INTER-LIGAND FREE ENERGY PREDICTED BY IDOCK:   -7.79 KCAL/MOL
REMARK 924 INTRA-LIGAND FREE ENERGY PREDICTED BY IDOCK:   -2.94 KCAL/MOL
REMARK 927      BINDING AFFINITY PREDICTED BY RF-SCORE:    0.00 PKD
ROOT
HETATM    1  C   UNL     1      -5.755  14.771  70.256  1.00  0.00    -0.139 C  
HETATM    2  C   UNL     1      -6.035  13.311  69.940  1.00  0.00    -0.136 C  
ENDROOT
BRANCH   2   3
HETATM    3  C   UNL     1      -5.937  13.011  68.471  1.00  0.00    -0.075 C  
HETATM    4  C   UNL     1      -6.976  12.914  67.625  1.00  0.00    -0.152 C  
BRANCH   4   5
HETATM    5  C   UNL     1      -8.426  12.996  68.011  1.00  0.00    -0.181 C  
BRANCH   5   6
HETATM    6  C   UNL     1      -8.928  14.415  68.010  1.00  0.00    -0.183 C  
HETATM    7  C   UNL     1      -9.632  15.007  67.030  1.00  0.00    -0.233 C  
BRANCH   7   8
HETATM    8  C   UNL     1     -10.013  14.348  65.737  1.00  0.00    -0.354 C  
BRANCH   8   9
HETATM    9  C   UNL     1     -11.295  14.885  65.173  1.00  0.00    -0.379 C  
HETATM   10  C   UNL     1     -12.356  14.166  64.768  1.00  0.00    -0.436 C  
BRANCH  10  11
HETATM   11  C   UNL     1     -12.527  12.674  64.858  1.00  0.00    -0.564 C  
BRANCH  11  12
HETATM   12  C   UNL     1     -11.919  11.936  63.697  1.00  0.00    -0.578 C  
HETATM   13  C   UNL     1     -10.751  11.273  63.690  1.00  0.00    -0.438 C  
BRANCH  13  14
HETATM   14  C   UNL     1      -9.788  11.206  64.828  1.00  0.00    -0.326 C  
BRANCH  14  15
HETATM   15  C   UNL     1      -9.825   9.890  65.555  1.00  0.00    -0.381 C  
HETATM   16  C   UNL     1     -10.454   9.715  66.730  1.00  0.00    -0.257 C  
BRANCH  16  17
HETATM   17  C   UNL     1     -11.138  10.812  67.489  1.00  0.00    -0.374 C  
BRANCH  17  18
HETATM   18  C   UNL     1     -11.316  10.501  68.950  1.00  0.00    -0.313 C  
HETATM   19  C   UNL     1     -11.675  11.431  69.853  1.00  0.00    -0.424 C  
BRANCH  19  20
HETATM   20  C   UNL     1     -11.939  12.859  69.456  1.00  0.00    -0.346 C  
BRANCH  20  21
HETATM   21  C   UNL     1     -12.481  13.747  70.569  1.00  0.00    -0.409 C  
HETATM   22  C   UNL     1     -12.201  15.194  70.223  1.00  0.00    -0.350 C  
HETATM   23  O   UNL     1     -12.129  15.994  71.314  1.00  0.00    -0.417 OA 
HETATM   24  O   UNL     1     -12.077  15.633  69.094  1.00  0.00    -0.344 OA 
ENDBRANCH  20  21
ENDBRANCH  19  20
ENDBRANCH  17  18
ENDBRANCH  16  17
ENDBRANCH  14  15
ENDBRANCH  13  14
ENDBRANCH  11  12
ENDBRANCH  10  11
ENDBRANCH   8   9
ENDBRANCH   7   8
ENDBRANCH   5   6
ENDBRANCH   4   5
ENDBRANCH   2   3
TORSDOF 13
ENDMDL
MODEL      130
REMARK 921   NORMALIZED FREE ENERGY PREDICTED BY IDOCK:   -4.51 KCAL/MOL
REMARK 922        TOTAL FREE ENERGY PREDICTED BY IDOCK:  -10.72 KCAL/MOL
REMARK 923 INTER-LIGAND FREE ENERGY PREDICTED BY IDOCK:   -8.83 KCAL/MOL
REMARK 924 INTRA-LIGAND FREE ENERGY PREDICTED BY IDOCK:   -1.89 KCAL/MOL
REMARK 927      BINDING AFFINITY PREDICTED BY RF-SCORE:    0.00 PKD
ROOT
HETATM    1  C   UNL     1      -8.856   8.826  65.589  1.00  0.00    -0.239 C  
HETATM    2  C   UNL     1      -9.751   9.991  65.203  1.00  0.00    -0.380 C  
ENDROOT
BRANCH   2   3
HETATM    3  C   UNL     1      -9.680  10.311  63.736  1.00  0.00    -0.298 C  
HETATM    4  C   UNL     1      -9.966  11.503  63.185  1.00  0.00    -0.404 C  
BRANCH   4   5
HETATM    5  C   UNL     1     -10.495  12.701  63.923  1.00  0.00    -0.441 C  
BRANCH   5   6
HETATM    6  C   UNL     1     -11.992  12.658  64.062  1.00  0.00    -0.530 C  
HETATM    7  C   UNL     1     -12.709  13.155  65.085  1.00  0.00    -0.468 C  
BRANCH   7   8
HETATM    8  C   UNL     1     -12.119  13.817  66.295  1.00  0.00    -0.484 C  
BRANCH   8   9
HETATM    9  C   UNL     1     -11.821  12.843  67.397  1.00  0.00    -0.418 C  
HETATM   10  C   UNL     1     -11.258  13.123  68.584  1.00  0.00    -0.314 C  
BRANCH  10  11
HETATM   11  C   UNL     1     -10.869  14.480  69.105  1.00  0.00    -0.278 C  
BRANCH  11  12
HETATM   12  C   UNL     1     -12.052  15.357  69.414  1.00  0.00    -0.308 C  
HETATM   13  C   UNL     1     -12.682  15.467  70.594  1.00  0.00    -0.487 C  
BRANCH  13  14
HETATM   14  C   UNL     1     -12.370  14.672  71.819  1.00  0.00    -0.415 C  
BRANCH  14  15
HETATM   15  C   UNL     1     -13.541  13.870  72.315  1.00  0.00    -0.642 C  
HETATM   16  C   UNL     1     -13.612  12.531  72.215  1.00  0.00    -0.443 C  
BRANCH  16  17
HETATM   17  C   UNL     1     -12.572  11.682  71.548  1.00  0.00    -0.341 C  
BRANCH  17  18
HETATM   18  C   UNL     1     -13.135  10.434  70.926  1.00  0.00    -0.412 C  
HETATM   19  C   UNL     1     -12.596   9.217  71.121  1.00  0.00    -0.293 C  
BRANCH  19  20
HETATM   20  C   UNL     1     -11.388   9.018  71.996  1.00  0.00    -0.395 C  
BRANCH  20  21
HETATM   21  C   UNL     1     -10.283   8.165  71.385  1.00  0.00    -0.248 C  
HETATM   22  C   UNL     1     -10.254   6.823  72.083  1.00  0.00    -0.193 C  
HETATM   23  O   UNL     1      -9.040   6.225  72.028  1.00  0.00    -0.143 OA 
HETATM   24  O   UNL     1     -11.208   6.293  72.624  1.00  0.00    -0.260 OA 
ENDBRANCH  20  21
ENDBRANCH  19  20
ENDBRANCH  17  18
ENDBRANCH  16  17
ENDBRANCH  14  15
ENDBRANCH  13  14
ENDBRANCH  11  12
ENDBRANCH  10  11
ENDBRANCH   8   9
ENDBRANCH   7   8
ENDBRANCH   5   6
ENDBRANCH   4   5
ENDBRANCH   2   3
TORSDOF 13
ENDMDL
MODEL      131
REMARK 921   NORMALIZED FREE ENERGY PREDICTED BY IDOCK:   -4.51 KCAL/MOL
REMARK 922        TOTAL FREE ENERGY PREDICTED BY IDOCK:  -10.71 KCAL/MOL
REMARK 923 INTER-LIGAND FREE ENERGY PREDICTED BY IDOCK:   -8.68 KCAL/MOL
REMARK 924 INTRA-LIGAND FREE ENERGY PREDICTED BY IDOCK:   -2.03 KCAL/MOL
REMARK 927      BINDING AFFINITY PREDICTED BY RF-SCORE:    0.00 PKD
ROOT
HETATM    1  C   UNL     1      -7.968   7.684  69.123  1.00  0.00    -0.120 C  
HETATM    2  C   UNL     1      -7.922   9.180  69.391  1.00  0.00    -0.097 C  
ENDROOT
BRANCH   2   3
HETATM    3  C   UNL     1      -9.289   9.773  69.583  1.00  0.00    -0.237 C  
HETATM    4  C   UNL     1     -10.228   9.888  68.628  1.00  0.00    -0.197 C  
BRANCH   4   5
HETATM    5  C   UNL     1     -10.048   9.532  67.180  1.00  0.00    -0.290 C  
BRANCH   5   6
HETATM    6  C   UNL     1      -8.964  10.349  66.531  1.00  0.00    -0.161 C  
HETATM    7  C   UNL     1      -8.946  10.775  65.255  1.00  0.00    -0.211 C  
BRANCH   7   8
HETATM    8  C   UNL     1     -10.010  10.471  64.242  1.00  0.00    -0.398 C  
BRANCH   8   9
HETATM    9  C   UNL     1     -10.319  11.646  63.362  1.00  0.00    -0.482 C  
HETATM   10  C   UNL     1     -11.360  12.486  63.484  1.00  0.00    -0.556 C  
BRANCH  10  11
HETATM   11  C   UNL     1     -12.405  12.484  64.567  1.00  0.00    -0.545 C  
BRANCH  11  12
HETATM   12  C   UNL     1     -12.522  13.803  65.280  1.00  0.00    -0.512 C  
HETATM   13  C   UNL     1     -11.703  14.276  66.234  1.00  0.00    -0.404 C  
BRANCH  13  14
HETATM   14  C   UNL     1     -10.549  13.538  66.826  1.00  0.00    -0.272 C  
BRANCH  14  15
HETATM   15  C   UNL     1     -10.127  14.079  68.164  1.00  0.00    -0.244 C  
HETATM   16  C   UNL     1     -10.794  13.829  69.304  1.00  0.00    -0.141 C  
BRANCH  16  17
HETATM   17  C   UNL     1     -12.066  13.039  69.377  1.00  0.00    -0.267 C  
BRANCH  17  18
HETATM   18  C   UNL     1     -12.389  12.563  70.767  1.00  0.00    -0.376 C  
HETATM   19  C   UNL     1     -13.101  13.298  71.641  1.00  0.00    -0.453 C  
BRANCH  19  20
HETATM   20  C   UNL     1     -13.639  14.656  71.278  1.00  0.00    -0.449 C  
BRANCH  20  21
HETATM   21  C   UNL     1     -13.931  15.570  72.461  1.00  0.00    -0.646 C  
HETATM   22  C   UNL     1     -12.623  16.107  73.001  1.00  0.00    -0.467 C  
HETATM   23  O   UNL     1     -12.694  16.454  74.309  1.00  0.00    -0.718 OA 
HETATM   24  O   UNL     1     -11.603  16.253  72.352  1.00  0.00    -0.442 OA 
ENDBRANCH  20  21
ENDBRANCH  19  20
ENDBRANCH  17  18
ENDBRANCH  16  17
ENDBRANCH  14  15
ENDBRANCH  13  14
ENDBRANCH  11  12
ENDBRANCH  10  11
ENDBRANCH   8   9
ENDBRANCH   7   8
ENDBRANCH   5   6
ENDBRANCH   4   5
ENDBRANCH   2   3
TORSDOF 13
ENDMDL
MODEL      132
REMARK 921   NORMALIZED FREE ENERGY PREDICTED BY IDOCK:   -4.51 KCAL/MOL
REMARK 922        TOTAL FREE ENERGY PREDICTED BY IDOCK:  -10.71 KCAL/MOL
REMARK 923 INTER-LIGAND FREE ENERGY PREDICTED BY IDOCK:   -8.20 KCAL/MOL
REMARK 924 INTRA-LIGAND FREE ENERGY PREDICTED BY IDOCK:   -2.51 KCAL/MOL
REMARK 927      BINDING AFFINITY PREDICTED BY RF-SCORE:    0.00 PKD
ROOT
HETATM    1  C   UNL     1     -10.065   8.629  72.104  1.00  0.00    -0.388 C  
HETATM    2  C   UNL     1     -11.086   8.680  70.980  1.00  0.00    -0.316 C  
ENDROOT
BRANCH   2   3
HETATM    3  C   UNL     1     -11.884   7.412  70.868  1.00  0.00    -0.320 C  
HETATM    4  C   UNL     1     -11.513   6.317  70.182  1.00  0.00    -0.452 C  
BRANCH   4   5
HETATM    5  C   UNL     1     -10.281   6.198  69.329  1.00  0.00    -0.251 C  
BRANCH   5   6
HETATM    6  C   UNL     1     -10.607   6.252  67.861  1.00  0.00    -0.327 C  
HETATM    7  C   UNL     1     -10.649   7.358  67.097  1.00  0.00    -0.413 C  
BRANCH   7   8
HETATM    8  C   UNL     1     -10.405   8.750  67.601  1.00  0.00    -0.317 C  
BRANCH   8   9
HETATM    9  C   UNL     1      -8.944   9.076  67.706  1.00  0.00    -0.132 C  
HETATM   10  C   UNL     1      -8.273   9.989  66.984  1.00  0.00    -0.117 C  
BRANCH  10  11
HETATM   11  C   UNL     1      -8.845  10.939  65.967  1.00  0.00    -0.198 C  
BRANCH  11  12
HETATM   12  C   UNL     1      -9.415  10.244  64.761  1.00  0.00    -0.341 C  
HETATM   13  C   UNL     1     -10.049  10.821  63.728  1.00  0.00    -0.391 C  
BRANCH  13  14
HETATM   14  C   UNL     1     -10.378  12.272  63.616  1.00  0.00    -0.463 C  
BRANCH  14  15
HETATM   15  C   UNL     1     -11.857  12.542  63.591  1.00  0.00    -0.610 C  
HETATM   16  C   UNL     1     -12.536  13.024  64.647  1.00  0.00    -0.425 C  
BRANCH  16  17
HETATM   17  C   UNL     1     -11.923  13.292  65.989  1.00  0.00    -0.473 C  
BRANCH  17  18
HETATM   18  C   UNL     1     -11.967  12.104  66.909  1.00  0.00    -0.164 C  
HETATM   19  C   UNL     1     -11.688  12.190  68.223  1.00  0.00    -0.401 C  
BRANCH  19  20
HETATM   20  C   UNL     1     -11.322  13.499  68.869  1.00  0.00    -0.332 C  
BRANCH  20  21
HETATM   21  C   UNL     1     -11.824  13.675  70.296  1.00  0.00    -0.336 C  
HETATM   22  C   UNL     1     -11.502  15.079  70.761  1.00  0.00    -0.292 C  
HETATM   23  O   UNL     1     -11.394  15.178  72.108  1.00  0.00    -0.419 OA 
HETATM   24  O   UNL     1     -11.375  16.047  70.033  1.00  0.00    -0.320 OA 
ENDBRANCH  20  21
ENDBRANCH  19  20
ENDBRANCH  17  18
ENDBRANCH  16  17
ENDBRANCH  14  15
ENDBRANCH  13  14
ENDBRANCH  11  12
ENDBRANCH  10  11
ENDBRANCH   8   9
ENDBRANCH   7   8
ENDBRANCH   5   6
ENDBRANCH   4   5
ENDBRANCH   2   3
TORSDOF 13
ENDMDL
MODEL      133
REMARK 921   NORMALIZED FREE ENERGY PREDICTED BY IDOCK:   -4.49 KCAL/MOL
REMARK 922        TOTAL FREE ENERGY PREDICTED BY IDOCK:  -10.68 KCAL/MOL
REMARK 923 INTER-LIGAND FREE ENERGY PREDICTED BY IDOCK:   -8.27 KCAL/MOL
REMARK 924 INTRA-LIGAND FREE ENERGY PREDICTED BY IDOCK:   -2.41 KCAL/MOL
REMARK 927      BINDING AFFINITY PREDICTED BY RF-SCORE:    0.00 PKD
ROOT
HETATM    1  C   UNL     1      -9.694  10.513  65.024  1.00  0.00    -0.351 C  
HETATM    2  C   UNL     1     -10.197   9.807  66.272  1.00  0.00    -0.282 C  
ENDROOT
BRANCH   2   3
HETATM    3  C   UNL     1     -10.655  10.767  67.333  1.00  0.00    -0.287 C  
HETATM    4  C   UNL     1     -10.346  10.689  68.639  1.00  0.00    -0.202 C  
BRANCH   4   5
HETATM    5  C   UNL     1      -9.568   9.578  69.286  1.00  0.00    -0.179 C  
BRANCH   5   6
HETATM    6  C   UNL     1     -10.416   8.357  69.514  1.00  0.00    -0.225 C  
HETATM    7  C   UNL     1     -11.199   8.122  70.582  1.00  0.00    -0.268 C  
BRANCH   7   8
HETATM    8  C   UNL     1     -11.332   9.043  71.759  1.00  0.00    -0.447 C  
BRANCH   8   9
HETATM    9  C   UNL     1     -12.733   9.550  71.937  1.00  0.00    -0.496 C  
HETATM   10  C   UNL     1     -13.189  10.773  71.615  1.00  0.00    -0.487 C  
BRANCH  10  11
HETATM   11  C   UNL     1     -12.423  11.877  70.938  1.00  0.00    -0.397 C  
BRANCH  11  12
HETATM   12  C   UNL     1     -12.703  13.236  71.518  1.00  0.00    -0.376 C  
HETATM   13  C   UNL     1     -12.481  14.421  70.929  1.00  0.00    -0.424 C  
BRANCH  13  14
HETATM   14  C   UNL     1     -11.836  14.618  69.597  1.00  0.00    -0.367 C  
BRANCH  14  15
HETATM   15  C   UNL     1     -10.335  14.607  69.661  1.00  0.00    -0.025 C  
HETATM   16  C   UNL     1      -9.557  15.339  68.845  1.00  0.00    -0.220 C  
BRANCH  16  17
HETATM   17  C   UNL     1     -10.080  16.203  67.737  1.00  0.00    -0.250 C  
BRANCH  17  18
HETATM   18  C   UNL     1      -9.345  16.013  66.439  1.00  0.00    -0.329 C  
HETATM   19  C   UNL     1      -9.944  15.557  65.324  1.00  0.00    -0.273 C  
BRANCH  19  20
HETATM   20  C   UNL     1     -11.410  15.215  65.296  1.00  0.00    -0.318 C  
BRANCH  20  21
HETATM   21  C   UNL     1     -11.726  13.728  65.398  1.00  0.00    -0.346 C  
HETATM   22  C   UNL     1     -12.579  13.325  64.215  1.00  0.00    -0.182 C  
HETATM   23  O   UNL     1     -13.348  12.237  64.464  1.00  0.00    -0.769 OA 
HETATM   24  O   UNL     1     -12.580  13.878  63.130  1.00  0.00    -0.775 OA 
ENDBRANCH  20  21
ENDBRANCH  19  20
ENDBRANCH  17  18
ENDBRANCH  16  17
ENDBRANCH  14  15
ENDBRANCH  13  14
ENDBRANCH  11  12
ENDBRANCH  10  11
ENDBRANCH   8   9
ENDBRANCH   7   8
ENDBRANCH   5   6
ENDBRANCH   4   5
ENDBRANCH   2   3
TORSDOF 13
ENDMDL
MODEL      134
REMARK 921   NORMALIZED FREE ENERGY PREDICTED BY IDOCK:   -4.48 KCAL/MOL
REMARK 922        TOTAL FREE ENERGY PREDICTED BY IDOCK:  -10.66 KCAL/MOL
REMARK 923 INTER-LIGAND FREE ENERGY PREDICTED BY IDOCK:   -8.12 KCAL/MOL
REMARK 924 INTRA-LIGAND FREE ENERGY PREDICTED BY IDOCK:   -2.54 KCAL/MOL
REMARK 927      BINDING AFFINITY PREDICTED BY RF-SCORE:    0.00 PKD
ROOT
HETATM    1  C   UNL     1     -10.261  12.169  63.819  1.00  0.00    -0.449 C  
HETATM    2  C   UNL     1     -10.183  11.023  64.814  1.00  0.00    -0.381 C  
ENDROOT
BRANCH   2   3
HETATM    3  C   UNL     1      -9.414   9.847  64.279  1.00  0.00    -0.280 C  
HETATM    4  C   UNL     1      -8.605   9.053  65.002  1.00  0.00    -0.207 C  
BRANCH   4   5
HETATM    5  C   UNL     1      -8.253   9.252  66.449  1.00  0.00    -0.111 C  
BRANCH   5   6
HETATM    6  C   UNL     1      -9.212   8.538  67.364  1.00  0.00    -0.163 C  
HETATM    7  C   UNL     1     -10.048   9.115  68.244  1.00  0.00    -0.221 C  
BRANCH   7   8
HETATM    8  C   UNL     1     -10.142  10.593  68.486  1.00  0.00    -0.185 C  
BRANCH   8   9
HETATM    9  C   UNL     1     -11.494  11.147  68.145  1.00  0.00    -0.373 C  
HETATM   10  C   UNL     1     -11.870  12.436  68.205  1.00  0.00    -0.372 C  
BRANCH  10  11
HETATM   11  C   UNL     1     -11.006  13.617  68.554  1.00  0.00    -0.289 C  
BRANCH  11  12
HETATM   12  C   UNL     1     -11.795  14.863  68.848  1.00  0.00    -0.334 C  
HETATM   13  C   UNL     1     -12.117  15.341  70.061  1.00  0.00    -0.386 C  
BRANCH  13  14
HETATM   14  C   UNL     1     -11.813  14.675  71.362  1.00  0.00    -0.362 C  
BRANCH  14  15
HETATM   15  C   UNL     1     -13.045  14.328  72.149  1.00  0.00    -0.469 C  
HETATM   16  C   UNL     1     -13.480  13.068  72.321  1.00  0.00    -0.645 C  
BRANCH  16  17
HETATM   17  C   UNL     1     -12.834  11.865  71.702  1.00  0.00    -0.417 C  
BRANCH  17  18
HETATM   18  C   UNL     1     -13.574  10.585  71.980  1.00  0.00    -0.216 C  
HETATM   19  C   UNL     1     -12.978   9.379  71.952  1.00  0.00    -0.502 C  
BRANCH  19  20
HETATM   20  C   UNL     1     -11.511   9.229  71.649  1.00  0.00    -0.468 C  
BRANCH  20  21
HETATM   21  C   UNL     1     -10.819   8.082  72.374  1.00  0.00    -0.392 C  
HETATM   22  C   UNL     1     -11.322   6.770  71.811  1.00  0.00    -0.269 C  
HETATM   23  O   UNL     1     -11.219   5.743  72.689  1.00  0.00    -0.270 OA 
HETATM   24  O   UNL     1     -11.753   6.611  70.683  1.00  0.00    -0.361 OA 
ENDBRANCH  20  21
ENDBRANCH  19  20
ENDBRANCH  17  18
ENDBRANCH  16  17
ENDBRANCH  14  15
ENDBRANCH  13  14
ENDBRANCH  11  12
ENDBRANCH  10  11
ENDBRANCH   8   9
ENDBRANCH   7   8
ENDBRANCH   5   6
ENDBRANCH   4   5
ENDBRANCH   2   3
TORSDOF 13
ENDMDL
MODEL      135
REMARK 921   NORMALIZED FREE ENERGY PREDICTED BY IDOCK:   -4.46 KCAL/MOL
REMARK 922        TOTAL FREE ENERGY PREDICTED BY IDOCK:  -10.63 KCAL/MOL
REMARK 923 INTER-LIGAND FREE ENERGY PREDICTED BY IDOCK:   -8.33 KCAL/MOL
REMARK 924 INTRA-LIGAND FREE ENERGY PREDICTED BY IDOCK:   -2.30 KCAL/MOL
REMARK 927      BINDING AFFINITY PREDICTED BY RF-SCORE:    0.00 PKD
ROOT
HETATM    1  C   UNL     1      -7.648   3.685  65.265  1.00  0.00    -0.078 C  
HETATM    2  C   UNL     1      -8.734   4.728  65.064  1.00  0.00    -0.147 C  
ENDROOT
BRANCH   2   3
HETATM    3  C   UNL     1      -8.191   6.040  64.574  1.00  0.00    -0.095 C  
HETATM    4  C   UNL     1      -7.891   7.097  65.349  1.00  0.00    -0.119 C  
BRANCH   4   5
HETATM    5  C   UNL     1      -8.132   7.188  66.829  1.00  0.00    -0.113 C  
BRANCH   5   6
HETATM    6  C   UNL     1      -9.214   8.180  67.161  1.00  0.00    -0.175 C  
HETATM    7  C   UNL     1     -10.474   7.887  67.529  1.00  0.00    -0.332 C  
BRANCH   7   8
HETATM    8  C   UNL     1     -11.027   6.497  67.639  1.00  0.00    -0.426 C  
BRANCH   8   9
HETATM    9  C   UNL     1     -10.527   5.773  68.855  1.00  0.00    -0.326 C  
HETATM   10  C   UNL     1     -10.836   6.047  70.134  1.00  0.00    -0.409 C  
BRANCH  10  11
HETATM   11  C   UNL     1     -11.806   7.085  70.630  1.00  0.00    -0.377 C  
BRANCH  11  12
HETATM   12  C   UNL     1     -11.251   7.933  71.741  1.00  0.00    -0.305 C  
HETATM   13  C   UNL     1     -10.816   9.199  71.643  1.00  0.00    -0.442 C  
BRANCH  13  14
HETATM   14  C   UNL     1     -10.730   9.989  70.380  1.00  0.00    -0.369 C  
BRANCH  14  15
HETATM   15  C   UNL     1     -12.003  10.718  70.052  1.00  0.00    -0.427 C  
HETATM   16  C   UNL     1     -12.113  11.588  69.034  1.00  0.00    -0.303 C  
BRANCH  16  17
HETATM   17  C   UNL     1     -10.976  11.985  68.141  1.00  0.00    -0.273 C  
BRANCH  17  18
HETATM   18  C   UNL     1     -11.105  11.451  66.741  1.00  0.00    -0.343 C  
HETATM   19  C   UNL     1     -11.652  12.162  65.739  1.00  0.00    -0.414 C  
BRANCH  19  20
HETATM   20  C   UNL     1     -12.163  13.562  65.950  1.00  0.00    -0.507 C  
BRANCH  20  21
HETATM   21  C   UNL     1     -12.164  14.441  64.705  1.00  0.00    -0.458 C  
HETATM   22  C   UNL     1     -11.099  15.506  64.855  1.00  0.00    -0.416 C  
HETATM   23  O   UNL     1     -11.358  16.619  64.126  1.00  0.00    -1.141 OA 
HETATM   24  O   UNL     1     -10.090  15.399  65.529  1.00  0.00    -0.341 OA 
ENDBRANCH  20  21
ENDBRANCH  19  20
ENDBRANCH  17  18
ENDBRANCH  16  17
ENDBRANCH  14  15
ENDBRANCH  13  14
ENDBRANCH  11  12
ENDBRANCH  10  11
ENDBRANCH   8   9
ENDBRANCH   7   8
ENDBRANCH   5   6
ENDBRANCH   4   5
ENDBRANCH   2   3
TORSDOF 13
ENDMDL
MODEL      136
REMARK 921   NORMALIZED FREE ENERGY PREDICTED BY IDOCK:   -4.45 KCAL/MOL
REMARK 922        TOTAL FREE ENERGY PREDICTED BY IDOCK:  -10.60 KCAL/MOL
REMARK 923 INTER-LIGAND FREE ENERGY PREDICTED BY IDOCK:   -8.28 KCAL/MOL
REMARK 924 INTRA-LIGAND FREE ENERGY PREDICTED BY IDOCK:   -2.32 KCAL/MOL
REMARK 927      BINDING AFFINITY PREDICTED BY RF-SCORE:    0.00 PKD
ROOT
HETATM    1  C   UNL     1      -9.337   8.765  66.379  1.00  0.00    -0.264 C  
HETATM    2  C   UNL     1     -10.616   8.085  66.839  1.00  0.00    -0.324 C  
ENDROOT
BRANCH   2   3
HETATM    3  C   UNL     1     -10.515   6.586  66.808  1.00  0.00    -0.300 C  
HETATM    4  C   UNL     1     -10.780   5.767  67.840  1.00  0.00    -0.295 C  
BRANCH   4   5
HETATM    5  C   UNL     1     -11.134   6.205  69.233  1.00  0.00    -0.463 C  
BRANCH   5   6
HETATM    6  C   UNL     1     -10.395   5.413  70.277  1.00  0.00    -0.357 C  
HETATM    7  C   UNL     1      -9.521   5.901  71.175  1.00  0.00    -0.183 C  
BRANCH   7   8
HETATM    8  C   UNL     1      -9.109   7.341  71.264  1.00  0.00    -0.146 C  
BRANCH   8   9
HETATM    9  C   UNL     1      -9.989   8.136  72.183  1.00  0.00    -0.315 C  
HETATM   10  C   UNL     1     -10.884   9.072  71.824  1.00  0.00    -0.437 C  
BRANCH  10  11
HETATM   11  C   UNL     1     -11.258   9.478  70.425  1.00  0.00    -0.323 C  
BRANCH  11  12
HETATM   12  C   UNL     1     -10.192  10.285  69.736  1.00  0.00    -0.262 C  
HETATM   13  C   UNL     1     -10.382  11.286  68.862  1.00  0.00    -0.214 C  
BRANCH  13  14
HETATM   14  C   UNL     1     -11.705  11.744  68.345  1.00  0.00    -0.389 C  
BRANCH  14  15
HETATM   15  C   UNL     1     -11.601  12.514  67.059  1.00  0.00    -0.437 C  
HETATM   16  C   UNL     1     -11.054  13.739  66.975  1.00  0.00    -0.313 C  
BRANCH  16  17
HETATM   17  C   UNL     1     -10.539  14.511  68.153  1.00  0.00    -0.238 C  
BRANCH  17  18
HETATM   18  C   UNL     1     -11.420  15.668  68.535  1.00  0.00    -0.380 C  
HETATM   19  C   UNL     1     -12.156  15.682  69.661  1.00  0.00    -0.329 C  
BRANCH  19  20
HETATM   20  C   UNL     1     -12.136  14.532  70.632  1.00  0.00    -0.392 C  
BRANCH  20  21
HETATM   21  C   UNL     1     -11.903  14.921  72.086  1.00  0.00    -0.394 C  
HETATM   22  C   UNL     1     -13.239  15.018  72.790  1.00  0.00    -0.468 C  
HETATM   23  O   UNL     1     -13.215  15.848  73.860  1.00  0.00    -0.524 OA 
HETATM   24  O   UNL     1     -14.244  14.407  72.473  1.00  0.00    -0.531 OA 
ENDBRANCH  20  21
ENDBRANCH  19  20
ENDBRANCH  17  18
ENDBRANCH  16  17
ENDBRANCH  14  15
ENDBRANCH  13  14
ENDBRANCH  11  12
ENDBRANCH  10  11
ENDBRANCH   8   9
ENDBRANCH   7   8
ENDBRANCH   5   6
ENDBRANCH   4   5
ENDBRANCH   2   3
TORSDOF 13
ENDMDL
MODEL      137
REMARK 921   NORMALIZED FREE ENERGY PREDICTED BY IDOCK:   -4.44 KCAL/MOL
REMARK 922        TOTAL FREE ENERGY PREDICTED BY IDOCK:  -10.60 KCAL/MOL
REMARK 923 INTER-LIGAND FREE ENERGY PREDICTED BY IDOCK:   -8.23 KCAL/MOL
REMARK 924 INTRA-LIGAND FREE ENERGY PREDICTED BY IDOCK:   -2.37 KCAL/MOL
REMARK 927      BINDING AFFINITY PREDICTED BY RF-SCORE:    0.00 PKD
ROOT
HETATM    1  C   UNL     1     -12.332  13.973  65.269  1.00  0.00    -0.480 C  
HETATM    2  C   UNL     1     -12.465  12.569  64.704  1.00  0.00    -0.539 C  
ENDROOT
BRANCH   2   3
HETATM    3  C   UNL     1     -11.642  12.366  63.463  1.00  0.00    -0.577 C  
HETATM    4  C   UNL     1     -10.420  11.809  63.423  1.00  0.00    -0.485 C  
BRANCH   4   5
HETATM    5  C   UNL     1      -9.620  11.374  64.618  1.00  0.00    -0.228 C  
BRANCH   5   6
HETATM    6  C   UNL     1      -9.589   9.876  64.759  1.00  0.00    -0.339 C  
HETATM    7  C   UNL     1      -8.765   9.170  65.552  1.00  0.00    -0.210 C  
BRANCH   7   8
HETATM    8  C   UNL     1      -7.698   9.770  66.420  1.00  0.00    -0.102 C  
BRANCH   8   9
HETATM    9  C   UNL     1      -7.174   8.802  67.440  1.00  0.00    -0.080 C  
HETATM   10  C   UNL     1      -7.231   8.936  68.776  1.00  0.00    -0.075 C  
BRANCH  10  11
HETATM   11  C   UNL     1      -7.895  10.045  69.548  1.00  0.00    -0.155 C  
BRANCH  11  12
HETATM   12  C   UNL     1      -9.237   9.657  70.107  1.00  0.00    -0.287 C  
HETATM   13  C   UNL     1     -10.431   9.833  69.520  1.00  0.00    -0.250 C  
BRANCH  13  14
HETATM   14  C   UNL     1     -10.662  10.524  68.218  1.00  0.00    -0.270 C  
BRANCH  14  15
HETATM   15  C   UNL     1     -11.907  11.367  68.209  1.00  0.00    -0.320 C  
HETATM   16  C   UNL     1     -11.909  12.680  68.497  1.00  0.00    -0.342 C  
BRANCH  16  17
HETATM   17  C   UNL     1     -10.694  13.450  68.920  1.00  0.00    -0.219 C  
BRANCH  17  18
HETATM   18  C   UNL     1     -10.777  14.915  68.591  1.00  0.00    -0.250 C  
HETATM   19  C   UNL     1     -11.511  15.782  69.311  1.00  0.00    -0.368 C  
BRANCH  19  20
HETATM   20  C   UNL     1     -12.298  15.342  70.516  1.00  0.00    -0.434 C  
BRANCH  20  21
HETATM   21  C   UNL     1     -12.009  16.121  71.793  1.00  0.00    -0.560 C  
HETATM   22  C   UNL     1     -12.808  15.517  72.928  1.00  0.00    -0.457 C  
HETATM   23  O   UNL     1     -13.063  16.400  73.924  1.00  0.00    -0.680 OA 
HETATM   24  O   UNL     1     -13.176  14.357  72.988  1.00  0.00    -0.518 OA 
ENDBRANCH  20  21
ENDBRANCH  19  20
ENDBRANCH  17  18
ENDBRANCH  16  17
ENDBRANCH  14  15
ENDBRANCH  13  14
ENDBRANCH  11  12
ENDBRANCH  10  11
ENDBRANCH   8   9
ENDBRANCH   7   8
ENDBRANCH   5   6
ENDBRANCH   4   5
ENDBRANCH   2   3
TORSDOF 13
ENDMDL
MODEL      138
REMARK 921   NORMALIZED FREE ENERGY PREDICTED BY IDOCK:   -4.43 KCAL/MOL
REMARK 922        TOTAL FREE ENERGY PREDICTED BY IDOCK:  -10.57 KCAL/MOL
REMARK 923 INTER-LIGAND FREE ENERGY PREDICTED BY IDOCK:   -8.35 KCAL/MOL
REMARK 924 INTRA-LIGAND FREE ENERGY PREDICTED BY IDOCK:   -2.22 KCAL/MOL
REMARK 927      BINDING AFFINITY PREDICTED BY RF-SCORE:    0.00 PKD
ROOT
HETATM    1  C   UNL     1     -10.656  19.304  66.877  1.00  0.00    -0.557 C  
HETATM    2  C   UNL     1     -10.431  18.095  65.985  1.00  0.00    -0.346 C  
ENDROOT
BRANCH   2   3
HETATM    3  C   UNL     1      -9.529  17.072  66.616  1.00  0.00    -0.279 C  
HETATM    4  C   UNL     1      -9.454  15.778  66.263  1.00  0.00    -0.349 C  
BRANCH   4   5
HETATM    5  C   UNL     1     -10.322  15.100  65.241  1.00  0.00    -0.425 C  
BRANCH   5   6
HETATM    6  C   UNL     1     -11.687  14.780  65.787  1.00  0.00    -0.252 C  
HETATM    7  C   UNL     1     -12.087  13.595  66.281  1.00  0.00    -0.477 C  
BRANCH   7   8
HETATM    8  C   UNL     1     -11.230  12.365  66.341  1.00  0.00    -0.365 C  
BRANCH   8   9
HETATM    9  C   UNL     1     -10.307  12.364  67.524  1.00  0.00    -0.223 C  
HETATM   10  C   UNL     1     -10.581  11.899  68.754  1.00  0.00    -0.234 C  
BRANCH  10  11
HETATM   11  C   UNL     1     -11.842  11.210  69.202  1.00  0.00    -0.419 C  
BRANCH  11  12
HETATM   12  C   UNL     1     -12.348  11.704  70.530  1.00  0.00    -0.410 C  
HETATM   13  C   UNL     1     -12.879  10.960  71.513  1.00  0.00    -0.560 C  
BRANCH  13  14
HETATM   14  C   UNL     1     -13.140   9.492  71.443  1.00  0.00    -0.449 C  
BRANCH  14  15
HETATM   15  C   UNL     1     -12.161   8.681  72.244  1.00  0.00    -0.447 C  
HETATM   16  C   UNL     1     -11.675   7.496  71.834  1.00  0.00    -0.320 C  
BRANCH  16  17
HETATM   17  C   UNL     1     -12.091   6.811  70.567  1.00  0.00    -0.332 C  
BRANCH  17  18
HETATM   18  C   UNL     1     -10.989   5.999  69.943  1.00  0.00    -0.458 C  
HETATM   19  C   UNL     1     -10.214   6.468  68.949  1.00  0.00    -0.206 C  
BRANCH  19  20
HETATM   20  C   UNL     1     -10.389   7.857  68.397  1.00  0.00    -0.235 C  
BRANCH  20  21
HETATM   21  C   UNL     1     -10.393   7.950  66.876  1.00  0.00    -0.400 C  
HETATM   22  C   UNL     1      -9.353   8.960  66.443  1.00  0.00    -0.204 C  
HETATM   23  O   UNL     1      -9.625   9.516  65.237  1.00  0.00    -0.283 OA 
HETATM   24  O   UNL     1      -8.350   9.247  67.071  1.00  0.00    -0.118 OA 
ENDBRANCH  20  21
ENDBRANCH  19  20
ENDBRANCH  17  18
ENDBRANCH  16  17
ENDBRANCH  14  15
ENDBRANCH  13  14
ENDBRANCH  11  12
ENDBRANCH  10  11
ENDBRANCH   8   9
ENDBRANCH   7   8
ENDBRANCH   5   6
ENDBRANCH   4   5
ENDBRANCH   2   3
TORSDOF 13
ENDMDL
MODEL      139
REMARK 921   NORMALIZED FREE ENERGY PREDICTED BY IDOCK:   -4.42 KCAL/MOL
REMARK 922        TOTAL FREE ENERGY PREDICTED BY IDOCK:  -10.56 KCAL/MOL
REMARK 923 INTER-LIGAND FREE ENERGY PREDICTED BY IDOCK:   -7.61 KCAL/MOL
REMARK 924 INTRA-LIGAND FREE ENERGY PREDICTED BY IDOCK:   -2.94 KCAL/MOL
REMARK 927      BINDING AFFINITY PREDICTED BY RF-SCORE:    0.00 PKD
ROOT
HETATM    1  C   UNL     1      -5.682  13.931  71.249  1.00  0.00    -0.224 C  
HETATM    2  C   UNL     1      -5.523  13.288  69.882  1.00  0.00    -0.101 C  
ENDROOT
BRANCH   2   3
HETATM    3  C   UNL     1      -5.728  14.264  68.758  1.00  0.00    -0.085 C  
HETATM    4  C   UNL     1      -6.792  14.295  67.938  1.00  0.00    -0.174 C  
BRANCH   4   5
HETATM    5  C   UNL     1      -7.921  13.303  67.937  1.00  0.00    -0.159 C  
BRANCH   5   6
HETATM    6  C   UNL     1      -9.228  13.939  68.327  1.00  0.00    -0.207 C  
HETATM    7  C   UNL     1     -10.152  14.435  67.485  1.00  0.00    -0.232 C  
BRANCH   7   8
HETATM    8  C   UNL     1     -10.014  14.466  65.992  1.00  0.00    -0.337 C  
BRANCH   8   9
HETATM    9  C   UNL     1     -11.257  14.956  65.309  1.00  0.00    -0.369 C  
HETATM   10  C   UNL     1     -12.228  14.198  64.772  1.00  0.00    -0.457 C  
BRANCH  10  11
HETATM   11  C   UNL     1     -12.326  12.697  64.800  1.00  0.00    -0.556 C  
BRANCH  11  12
HETATM   12  C   UNL     1     -11.689  12.039  63.607  1.00  0.00    -0.587 C  
HETATM   13  C   UNL     1     -10.564  11.307  63.599  1.00  0.00    -0.453 C  
BRANCH  13  14
HETATM   14  C   UNL     1      -9.680  11.068  64.778  1.00  0.00    -0.311 C  
BRANCH  14  15
HETATM   15  C   UNL     1      -9.806   9.679  65.338  1.00  0.00    -0.322 C  
HETATM   16  C   UNL     1     -10.059   9.428  66.634  1.00  0.00    -0.332 C  
BRANCH  16  17
HETATM   17  C   UNL     1     -10.185  10.488  67.687  1.00  0.00    -0.234 C  
BRANCH  17  18
HETATM   18  C   UNL     1     -11.570  11.065  67.786  1.00  0.00    -0.277 C  
HETATM   19  C   UNL     1     -12.159  11.345  68.963  1.00  0.00    -0.316 C  
BRANCH  19  20
HETATM   20  C   UNL     1     -11.457  11.111  70.274  1.00  0.00    -0.329 C  
BRANCH  20  21
HETATM   21  C   UNL     1     -12.256  10.313  71.298  1.00  0.00    -0.496 C  
HETATM   22  C   UNL     1     -11.425   9.134  71.758  1.00  0.00    -0.381 C  
HETATM   23  O   UNL     1     -12.178   8.102  72.209  1.00  0.00    -0.336 OA 
HETATM   24  O   UNL     1     -10.208   9.094  71.764  1.00  0.00    -0.338 OA 
ENDBRANCH  20  21
ENDBRANCH  19  20
ENDBRANCH  17  18
ENDBRANCH  16  17
ENDBRANCH  14  15
ENDBRANCH  13  14
ENDBRANCH  11  12
ENDBRANCH  10  11
ENDBRANCH   8   9
ENDBRANCH   7   8
ENDBRANCH   5   6
ENDBRANCH   4   5
ENDBRANCH   2   3
TORSDOF 13
ENDMDL
MODEL      140
REMARK 921   NORMALIZED FREE ENERGY PREDICTED BY IDOCK:   -4.41 KCAL/MOL
REMARK 922        TOTAL FREE ENERGY PREDICTED BY IDOCK:  -10.55 KCAL/MOL
REMARK 923 INTER-LIGAND FREE ENERGY PREDICTED BY IDOCK:   -8.01 KCAL/MOL
REMARK 924 INTRA-LIGAND FREE ENERGY PREDICTED BY IDOCK:   -2.54 KCAL/MOL
REMARK 927      BINDING AFFINITY PREDICTED BY RF-SCORE:    0.00 PKD
ROOT
HETATM    1  C   UNL     1     -11.814  14.650  67.987  1.00  0.00    -0.343 C  
HETATM    2  C   UNL     1     -11.687  13.741  66.775  1.00  0.00    -0.420 C  
ENDROOT
BRANCH   2   3
HETATM    3  C   UNL     1     -11.825  14.487  65.478  1.00  0.00    -0.330 C  
HETATM    4  C   UNL     1     -12.079  13.928  64.283  1.00  0.00    -0.477 C  
BRANCH   4   5
HETATM    5  C   UNL     1     -12.177  12.453  64.012  1.00  0.00    -0.579 C  
BRANCH   5   6
HETATM    6  C   UNL     1     -10.931  11.916  63.364  1.00  0.00    -0.470 C  
HETATM    7  C   UNL     1     -10.061  11.049  63.911  1.00  0.00    -0.414 C  
BRANCH   7   8
HETATM    8  C   UNL     1     -10.178  10.487  65.297  1.00  0.00    -0.352 C  
BRANCH   8   9
HETATM    9  C   UNL     1      -9.198  11.103  66.252  1.00  0.00    -0.211 C  
HETATM   10  C   UNL     1      -9.224  11.019  67.593  1.00  0.00    -0.151 C  
BRANCH  10  11
HETATM   11  C   UNL     1     -10.193  10.231  68.432  1.00  0.00    -0.189 C  
BRANCH  11  12
HETATM   12  C   UNL     1     -11.533  10.898  68.577  1.00  0.00    -0.380 C  
HETATM   13  C   UNL     1     -12.265  10.993  69.698  1.00  0.00    -0.370 C  
BRANCH  13  14
HETATM   14  C   UNL     1     -11.917  10.380  71.013  1.00  0.00    -0.481 C  
BRANCH  14  15
HETATM   15  C   UNL     1     -13.115  10.145  71.890  1.00  0.00    -0.571 C  
HETATM   16  C   UNL     1     -13.796   8.986  71.912  1.00  0.00    -0.477 C  
BRANCH  16  17
HETATM   17  C   UNL     1     -13.490   7.814  71.028  1.00  0.00    -0.023 C  
BRANCH  17  18
HETATM   18  C   UNL     1     -12.716   6.731  71.727  1.00  0.00    -0.342 C  
HETATM   19  C   UNL     1     -11.509   6.311  71.304  1.00  0.00    -0.352 C  
BRANCH  19  20
HETATM   20  C   UNL     1     -10.840   6.913  70.098  1.00  0.00    -0.300 C  
BRANCH  20  21
HETATM   21  C   UNL     1     -11.041   6.144  68.798  1.00  0.00    -0.398 C  
HETATM   22  C   UNL     1      -9.796   5.333  68.510  1.00  0.00    -0.152 C  
HETATM   23  O   UNL     1      -9.633   5.066  67.191  1.00  0.00    -0.134 OA 
HETATM   24  O   UNL     1      -9.016   4.922  69.350  1.00  0.00    -0.092 OA 
ENDBRANCH  20  21
ENDBRANCH  19  20
ENDBRANCH  17  18
ENDBRANCH  16  17
ENDBRANCH  14  15
ENDBRANCH  13  14
ENDBRANCH  11  12
ENDBRANCH  10  11
ENDBRANCH   8   9
ENDBRANCH   7   8
ENDBRANCH   5   6
ENDBRANCH   4   5
ENDBRANCH   2   3
TORSDOF 13
ENDMDL
MODEL      141
REMARK 921   NORMALIZED FREE ENERGY PREDICTED BY IDOCK:   -4.41 KCAL/MOL
REMARK 922        TOTAL FREE ENERGY PREDICTED BY IDOCK:  -10.54 KCAL/MOL
REMARK 923 INTER-LIGAND FREE ENERGY PREDICTED BY IDOCK:   -8.19 KCAL/MOL
REMARK 924 INTRA-LIGAND FREE ENERGY PREDICTED BY IDOCK:   -2.35 KCAL/MOL
REMARK 927      BINDING AFFINITY PREDICTED BY RF-SCORE:    0.00 PKD
ROOT
HETATM    1  C   UNL     1      -7.211  19.782  68.096  1.00  0.00    -0.329 C  
HETATM    2  C   UNL     1      -8.142  19.901  66.902  1.00  0.00    -0.346 C  
ENDROOT
BRANCH   2   3
HETATM    3  C   UNL     1      -9.518  20.368  67.287  1.00  0.00    -0.568 C  
HETATM    4  C   UNL     1     -10.561  19.568  67.566  1.00  0.00    -0.599 C  
BRANCH   4   5
HETATM    5  C   UNL     1     -10.566  18.069  67.451  1.00  0.00    -0.378 C  
BRANCH   5   6
HETATM    6  C   UNL     1     -10.366  17.404  68.785  1.00  0.00    -0.357 C  
HETATM    7  C   UNL     1      -9.859  16.176  68.992  1.00  0.00    -0.245 C  
BRANCH   7   8
HETATM    8  C   UNL     1      -9.431  15.237  67.903  1.00  0.00    -0.197 C  
BRANCH   8   9
HETATM    9  C   UNL     1     -10.018  13.865  68.062  1.00  0.00    -0.241 C  
HETATM   10  C   UNL     1     -11.175  13.423  67.542  1.00  0.00    -0.309 C  
BRANCH  10  11
HETATM   11  C   UNL     1     -12.103  14.175  66.625  1.00  0.00    -0.480 C  
BRANCH  11  12
HETATM   12  C   UNL     1     -11.464  14.556  65.318  1.00  0.00    -0.355 C  
HETATM   13  C   UNL     1     -11.365  13.790  64.220  1.00  0.00    -0.344 C  
BRANCH  13  14
HETATM   14  C   UNL     1     -11.811  12.369  64.113  1.00  0.00    -0.492 C  
BRANCH  14  15
HETATM   15  C   UNL     1     -10.769  11.468  63.512  1.00  0.00    -0.483 C  
HETATM   16  C   UNL     1     -10.004  10.636  64.241  1.00  0.00    -0.413 C  
BRANCH  16  17
HETATM   17  C   UNL     1     -10.049  10.548  65.737  1.00  0.00    -0.329 C  
BRANCH  17  18
HETATM   18  C   UNL     1     -10.051   9.134  66.248  1.00  0.00    -0.319 C  
HETATM   19  C   UNL     1     -10.391   8.817  67.511  1.00  0.00    -0.334 C  
BRANCH  19  20
HETATM   20  C   UNL     1     -10.809   9.868  68.505  1.00  0.00    -0.257 C  
BRANCH  20  21
HETATM   21  C   UNL     1     -10.113   9.788  69.857  1.00  0.00    -0.288 C  
HETATM   22  C   UNL     1      -8.663  10.187  69.688  1.00  0.00    -0.158 C  
HETATM   23  O   UNL     1      -7.853   9.653  70.634  1.00  0.00    -0.231 OA 
HETATM   24  O   UNL     1      -8.237  10.931  68.823  1.00  0.00    -0.136 OA 
ENDBRANCH  20  21
ENDBRANCH  19  20
ENDBRANCH  17  18
ENDBRANCH  16  17
ENDBRANCH  14  15
ENDBRANCH  13  14
ENDBRANCH  11  12
ENDBRANCH  10  11
ENDBRANCH   8   9
ENDBRANCH   7   8
ENDBRANCH   5   6
ENDBRANCH   4   5
ENDBRANCH   2   3
TORSDOF 13
ENDMDL
MODEL      142
REMARK 921   NORMALIZED FREE ENERGY PREDICTED BY IDOCK:   -4.41 KCAL/MOL
REMARK 922        TOTAL FREE ENERGY PREDICTED BY IDOCK:  -10.54 KCAL/MOL
REMARK 923 INTER-LIGAND FREE ENERGY PREDICTED BY IDOCK:   -7.22 KCAL/MOL
REMARK 924 INTRA-LIGAND FREE ENERGY PREDICTED BY IDOCK:   -3.31 KCAL/MOL
REMARK 927      BINDING AFFINITY PREDICTED BY RF-SCORE:    0.00 PKD
ROOT
HETATM    1  C   UNL     1      -6.698  12.222  67.546  1.00  0.00    -0.138 C  
HETATM    2  C   UNL     1      -7.428  13.540  67.350  1.00  0.00    -0.136 C  
ENDROOT
BRANCH   2   3
HETATM    3  C   UNL     1      -7.484  14.361  68.607  1.00  0.00    -0.126 C  
HETATM    4  C   UNL     1      -8.601  14.874  69.152  1.00  0.00    -0.148 C  
BRANCH   4   5
HETATM    5  C   UNL     1      -9.977  14.800  68.553  1.00  0.00    -0.228 C  
BRANCH   5   6
HETATM    6  C   UNL     1     -10.500  16.159  68.176  1.00  0.00    -0.279 C  
HETATM    7  C   UNL     1     -10.545  16.677  66.936  1.00  0.00    -0.229 C  
BRANCH   7   8
HETATM    8  C   UNL     1     -10.043  15.982  65.705  1.00  0.00    -0.384 C  
BRANCH   8   9
HETATM    9  C   UNL     1     -11.153  15.584  64.776  1.00  0.00    -0.421 C  
HETATM   10  C   UNL     1     -11.767  14.390  64.726  1.00  0.00    -0.420 C  
BRANCH  10  11
HETATM   11  C   UNL     1     -11.536  13.213  65.634  1.00  0.00    -0.371 C  
BRANCH  11  12
HETATM   12  C   UNL     1     -10.341  12.388  65.243  1.00  0.00    -0.308 C  
HETATM   13  C   UNL     1      -9.986  11.198  65.753  1.00  0.00    -0.292 C  
BRANCH  13  14
HETATM   14  C   UNL     1     -10.679  10.496  66.873  1.00  0.00    -0.281 C  
BRANCH  14  15
HETATM   15  C   UNL     1      -9.941  10.597  68.179  1.00  0.00    -0.176 C  
HETATM   16  C   UNL     1     -10.485  11.112  69.295  1.00  0.00    -0.183 C  
BRANCH  16  17
HETATM   17  C   UNL     1     -11.861  11.703  69.364  1.00  0.00    -0.408 C  
BRANCH  17  18
HETATM   18  C   UNL     1     -12.255  12.129  70.751  1.00  0.00    -0.367 C  
HETATM   19  C   UNL     1     -12.889  11.310  71.611  1.00  0.00    -0.510 C  
BRANCH  19  20
HETATM   20  C   UNL     1     -13.238   9.893  71.242  1.00  0.00    -0.465 C  
BRANCH  20  21
HETATM   21  C   UNL     1     -12.823   8.842  72.264  1.00  0.00    -0.465 C  
HETATM   22  C   UNL     1     -12.013   7.771  71.565  1.00  0.00    -0.300 C  
HETATM   23  O   UNL     1     -12.060   6.574  72.199  1.00  0.00    -0.315 OA 
HETATM   24  O   UNL     1     -11.353   7.938  70.555  1.00  0.00    -0.273 OA 
ENDBRANCH  20  21
ENDBRANCH  19  20
ENDBRANCH  17  18
ENDBRANCH  16  17
ENDBRANCH  14  15
ENDBRANCH  13  14
ENDBRANCH  11  12
ENDBRANCH  10  11
ENDBRANCH   8   9
ENDBRANCH   7   8
ENDBRANCH   5   6
ENDBRANCH   4   5
ENDBRANCH   2   3
TORSDOF 13
ENDMDL
MODEL      143
REMARK 921   NORMALIZED FREE ENERGY PREDICTED BY IDOCK:   -4.40 KCAL/MOL
REMARK 922        TOTAL FREE ENERGY PREDICTED BY IDOCK:  -10.52 KCAL/MOL
REMARK 923 INTER-LIGAND FREE ENERGY PREDICTED BY IDOCK:   -8.38 KCAL/MOL
REMARK 924 INTRA-LIGAND FREE ENERGY PREDICTED BY IDOCK:   -2.14 KCAL/MOL
REMARK 927      BINDING AFFINITY PREDICTED BY RF-SCORE:    0.00 PKD
ROOT
HETATM    1  C   UNL     1      -5.940  20.286  70.404  1.00  0.00    -0.375 C  
HETATM    2  C   UNL     1      -5.386  20.026  69.013  1.00  0.00    -0.234 C  
ENDROOT
BRANCH   2   3
HETATM    3  C   UNL     1      -5.864  21.032  68.005  1.00  0.00    -0.395 C  
HETATM    4  C   UNL     1      -7.040  20.985  67.356  1.00  0.00    -0.393 C  
BRANCH   4   5
HETATM    5  C   UNL     1      -8.045  19.872  67.452  1.00  0.00    -0.348 C  
BRANCH   5   6
HETATM    6  C   UNL     1      -9.451  20.365  67.238  1.00  0.00    -0.568 C  
HETATM    7  C   UNL     1     -10.567  19.616  67.261  1.00  0.00    -0.598 C  
BRANCH   7   8
HETATM    8  C   UNL     1     -10.591  18.131  67.475  1.00  0.00    -0.419 C  
BRANCH   8   9
HETATM    9  C   UNL     1     -10.371  17.363  66.205  1.00  0.00    -0.329 C  
HETATM   10  C   UNL     1      -9.488  16.369  66.013  1.00  0.00    -0.345 C  
BRANCH  10  11
HETATM   11  C   UNL     1      -8.578  15.754  67.041  1.00  0.00    -0.247 C  
BRANCH  11  12
HETATM   12  C   UNL     1      -9.274  14.762  67.932  1.00  0.00    -0.191 C  
HETATM   13  C   UNL     1      -9.011  13.450  68.032  1.00  0.00    -0.190 C  
BRANCH  13  14
HETATM   14  C   UNL     1      -8.012  12.703  67.212  1.00  0.00    -0.166 C  
BRANCH  14  15
HETATM   15  C   UNL     1      -7.873  11.263  67.619  1.00  0.00    -0.116 C  
HETATM   16  C   UNL     1      -7.992  10.238  66.757  1.00  0.00    -0.114 C  
BRANCH  16  17
HETATM   17  C   UNL     1      -8.337  10.396  65.307  1.00  0.00    -0.166 C  
BRANCH  17  18
HETATM   18  C   UNL     1      -9.776  10.085  65.002  1.00  0.00    -0.386 C  
HETATM   19  C   UNL     1     -10.624  10.994  64.487  1.00  0.00    -0.383 C  
BRANCH  19  20
HETATM   20  C   UNL     1     -10.179  12.395  64.163  1.00  0.00    -0.377 C  
BRANCH  20  21
HETATM   21  C   UNL     1     -10.998  13.499  64.822  1.00  0.00    -0.382 C  
HETATM   22  C   UNL     1     -12.122  13.899  63.890  1.00  0.00    -0.345 C  
HETATM   23  O   UNL     1     -12.551  15.168  64.095  1.00  0.00    -0.737 OA 
HETATM   24  O   UNL     1     -12.630  13.175  63.053  1.00  0.00    -0.572 OA 
ENDBRANCH  20  21
ENDBRANCH  19  20
ENDBRANCH  17  18
ENDBRANCH  16  17
ENDBRANCH  14  15
ENDBRANCH  13  14
ENDBRANCH  11  12
ENDBRANCH  10  11
ENDBRANCH   8   9
ENDBRANCH   7   8
ENDBRANCH   5   6
ENDBRANCH   4   5
ENDBRANCH   2   3
TORSDOF 13
ENDMDL
MODEL      144
REMARK 921   NORMALIZED FREE ENERGY PREDICTED BY IDOCK:   -4.39 KCAL/MOL
REMARK 922        TOTAL FREE ENERGY PREDICTED BY IDOCK:  -10.50 KCAL/MOL
REMARK 923 INTER-LIGAND FREE ENERGY PREDICTED BY IDOCK:   -8.16 KCAL/MOL
REMARK 924 INTRA-LIGAND FREE ENERGY PREDICTED BY IDOCK:   -2.34 KCAL/MOL
REMARK 927      BINDING AFFINITY PREDICTED BY RF-SCORE:    0.00 PKD
ROOT
HETATM    1  C   UNL     1     -10.210   3.822  73.178  1.00  0.00    -0.228 C  
HETATM    2  C   UNL     1     -11.344   4.829  73.084  1.00  0.00    -0.380 C  
ENDROOT
BRANCH   2   3
HETATM    3  C   UNL     1     -10.852   6.236  72.893  1.00  0.00    -0.284 C  
HETATM    4  C   UNL     1     -10.939   6.942  71.752  1.00  0.00    -0.259 C  
BRANCH   4   5
HETATM    5  C   UNL     1     -11.457   6.421  70.441  1.00  0.00    -0.458 C  
BRANCH   5   6
HETATM    6  C   UNL     1     -10.343   5.974  69.535  1.00  0.00    -0.295 C  
HETATM    7  C   UNL     1      -9.871   6.642  68.467  1.00  0.00    -0.139 C  
BRANCH   7   8
HETATM    8  C   UNL     1     -10.412   7.954  67.977  1.00  0.00    -0.245 C  
BRANCH   8   9
HETATM    9  C   UNL     1      -9.330   8.961  67.718  1.00  0.00    -0.157 C  
HETATM   10  C   UNL     1      -9.311   9.883  66.741  1.00  0.00    -0.187 C  
BRANCH  10  11
HETATM   11  C   UNL     1     -10.398  10.163  65.738  1.00  0.00    -0.216 C  
BRANCH  11  12
HETATM   12  C   UNL     1      -9.873  10.641  64.412  1.00  0.00    -0.395 C  
HETATM   13  C   UNL     1     -10.526  11.396  63.515  1.00  0.00    -0.477 C  
BRANCH  13  14
HETATM   14  C   UNL     1     -11.944  11.847  63.633  1.00  0.00    -0.578 C  
BRANCH  14  15
HETATM   15  C   UNL     1     -12.102  13.336  63.505  1.00  0.00    -0.550 C  
HETATM   16  C   UNL     1     -12.220  14.159  64.561  1.00  0.00    -0.468 C  
BRANCH  16  17
HETATM   17  C   UNL     1     -12.272  13.695  65.986  1.00  0.00    -0.492 C  
BRANCH  17  18
HETATM   18  C   UNL     1     -10.964  13.855  66.710  1.00  0.00    -0.301 C  
HETATM   19  C   UNL     1     -10.795  13.493  67.995  1.00  0.00    -0.266 C  
BRANCH  19  20
HETATM   20  C   UNL     1     -11.913  12.884  68.799  1.00  0.00    -0.290 C  
BRANCH  20  21
HETATM   21  C   UNL     1     -11.759  11.397  69.092  1.00  0.00    -0.410 C  
HETATM   22  C   UNL     1     -11.975  11.163  70.572  1.00  0.00    -0.380 C  
HETATM   23  O   UNL     1     -11.352  10.050  71.028  1.00  0.00    -0.347 OA 
HETATM   24  O   UNL     1     -12.653  11.864  71.301  1.00  0.00    -0.359 OA 
ENDBRANCH  20  21
ENDBRANCH  19  20
ENDBRANCH  17  18
ENDBRANCH  16  17
ENDBRANCH  14  15
ENDBRANCH  13  14
ENDBRANCH  11  12
ENDBRANCH  10  11
ENDBRANCH   8   9
ENDBRANCH   7   8
ENDBRANCH   5   6
ENDBRANCH   4   5
ENDBRANCH   2   3
TORSDOF 13
ENDMDL
MODEL      145
REMARK 921   NORMALIZED FREE ENERGY PREDICTED BY IDOCK:   -4.38 KCAL/MOL
REMARK 922        TOTAL FREE ENERGY PREDICTED BY IDOCK:  -10.49 KCAL/MOL
REMARK 923 INTER-LIGAND FREE ENERGY PREDICTED BY IDOCK:   -7.57 KCAL/MOL
REMARK 924 INTRA-LIGAND FREE ENERGY PREDICTED BY IDOCK:   -2.92 KCAL/MOL
REMARK 927      BINDING AFFINITY PREDICTED BY RF-SCORE:    0.00 PKD
ROOT
HETATM    1  C   UNL     1     -11.395   6.340  69.502  1.00  0.00    -0.475 C  
HETATM    2  C   UNL     1     -11.750   7.311  70.615  1.00  0.00    -0.310 C  
ENDROOT
BRANCH   2   3
HETATM    3  C   UNL     1     -10.601   8.204  70.989  1.00  0.00    -0.242 C  
HETATM    4  C   UNL     1     -10.439   9.475  70.582  1.00  0.00    -0.374 C  
BRANCH   4   5
HETATM    5  C   UNL     1     -11.326  10.199  69.609  1.00  0.00    -0.289 C  
BRANCH   5   6
HETATM    6  C   UNL     1     -10.851  10.040  68.190  1.00  0.00    -0.303 C  
HETATM    7  C   UNL     1      -9.816  10.684  67.623  1.00  0.00    -0.191 C  
BRANCH   7   8
HETATM    8  C   UNL     1      -8.969  11.711  68.316  1.00  0.00    -0.185 C  
BRANCH   8   9
HETATM    9  C   UNL     1      -8.301  12.650  67.355  1.00  0.00    -0.184 C  
HETATM   10  C   UNL     1      -7.874  13.896  67.618  1.00  0.00    -0.187 C  
BRANCH  10  11
HETATM   11  C   UNL     1      -7.901  14.602  68.948  1.00  0.00    -0.148 C  
BRANCH  11  12
HETATM   12  C   UNL     1      -7.044  15.837  68.981  1.00  0.00    -0.159 C  
HETATM   13  C   UNL     1      -7.357  17.045  68.487  1.00  0.00    -0.220 C  
BRANCH  13  14
HETATM   14  C   UNL     1      -8.603  17.375  67.735  1.00  0.00    -0.227 C  
BRANCH  14  15
HETATM   15  C   UNL     1      -9.809  17.513  68.621  1.00  0.00    -0.338 C  
HETATM   16  C   UNL     1     -10.900  16.737  68.507  1.00  0.00    -0.345 C  
BRANCH  16  17
HETATM   17  C   UNL     1     -11.078  15.687  67.451  1.00  0.00    -0.260 C  
BRANCH  17  18
HETATM   18  C   UNL     1     -11.583  14.379  67.995  1.00  0.00    -0.357 C  
HETATM   19  C   UNL     1     -12.151  13.439  67.218  1.00  0.00    -0.352 C  
BRANCH  19  20
HETATM   20  C   UNL     1     -12.309  13.630  65.733  1.00  0.00    -0.524 C  
BRANCH  20  21
HETATM   21  C   UNL     1     -11.175  13.065  64.887  1.00  0.00    -0.329 C  
HETATM   22  C   UNL     1     -11.752  12.102  63.871  1.00  0.00    -0.458 C  
HETATM   23  O   UNL     1     -10.860  11.169  63.462  1.00  0.00    -0.352 OA 
HETATM   24  O   UNL     1     -12.884  12.149  63.425  1.00  0.00    -0.765 OA 
ENDBRANCH  20  21
ENDBRANCH  19  20
ENDBRANCH  17  18
ENDBRANCH  16  17
ENDBRANCH  14  15
ENDBRANCH  13  14
ENDBRANCH  11  12
ENDBRANCH  10  11
ENDBRANCH   8   9
ENDBRANCH   7   8
ENDBRANCH   5   6
ENDBRANCH   4   5
ENDBRANCH   2   3
TORSDOF 13
ENDMDL
MODEL      146
REMARK 921   NORMALIZED FREE ENERGY PREDICTED BY IDOCK:   -4.38 KCAL/MOL
REMARK 922        TOTAL FREE ENERGY PREDICTED BY IDOCK:  -10.49 KCAL/MOL
REMARK 923 INTER-LIGAND FREE ENERGY PREDICTED BY IDOCK:   -8.33 KCAL/MOL
REMARK 924 INTRA-LIGAND FREE ENERGY PREDICTED BY IDOCK:   -2.16 KCAL/MOL
REMARK 927      BINDING AFFINITY PREDICTED BY RF-SCORE:    0.00 PKD
ROOT
HETATM    1  C   UNL     1     -10.960   6.482  67.264  1.00  0.00    -0.475 C  
HETATM    2  C   UNL     1     -10.207   7.007  68.475  1.00  0.00    -0.183 C  
ENDROOT
BRANCH   2   3
HETATM    3  C   UNL     1      -9.808   5.913  69.424  1.00  0.00    -0.207 C  
HETATM    4  C   UNL     1     -10.460   5.586  70.553  1.00  0.00    -0.347 C  
BRANCH   4   5
HETATM    5  C   UNL     1     -11.648   6.314  71.116  1.00  0.00    -0.339 C  
BRANCH   5   6
HETATM    6  C   UNL     1     -11.320   7.010  72.408  1.00  0.00    -0.307 C  
HETATM    7  C   UNL     1     -10.966   8.300  72.548  1.00  0.00    -0.424 C  
BRANCH   7   8
HETATM    8  C   UNL     1     -10.807   9.267  71.412  1.00  0.00    -0.434 C  
BRANCH   8   9
HETATM    9  C   UNL     1     -12.041  10.089  71.179  1.00  0.00    -0.475 C  
HETATM   10  C   UNL     1     -12.190  11.073  70.276  1.00  0.00    -0.447 C  
BRANCH  10  11
HETATM   11  C   UNL     1     -11.185  11.520  69.249  1.00  0.00    -0.336 C  
BRANCH  11  12
HETATM   12  C   UNL     1     -11.030  10.550  68.109  1.00  0.00    -0.330 C  
HETATM   13  C   UNL     1     -11.006  10.848  66.801  1.00  0.00    -0.248 C  
BRANCH  13  14
HETATM   14  C   UNL     1     -11.207  12.208  66.219  1.00  0.00    -0.382 C  
BRANCH  14  15
HETATM   15  C   UNL     1     -11.396  12.189  64.728  1.00  0.00    -0.378 C  
HETATM   16  C   UNL     1     -11.834  13.250  64.027  1.00  0.00    -0.512 C  
BRANCH  16  17
HETATM   17  C   UNL     1     -12.243  14.554  64.645  1.00  0.00    -0.474 C  
BRANCH  17  18
HETATM   18  C   UNL     1     -11.169  15.604  64.582  1.00  0.00    -0.380 C  
HETATM   19  C   UNL     1     -10.540  16.067  65.677  1.00  0.00    -0.392 C  
BRANCH  19  20
HETATM   20  C   UNL     1     -10.864  15.551  67.053  1.00  0.00    -0.314 C  
BRANCH  20  21
HETATM   21  C   UNL     1      -9.660  15.101  67.872  1.00  0.00    -0.203 C  
HETATM   22  C   UNL     1      -9.367  16.144  68.929  1.00  0.00    -0.235 C  
HETATM   23  O   UNL     1      -8.072  16.143  69.328  1.00  0.00    -0.236 OA 
HETATM   24  O   UNL     1     -10.189  16.902  69.413  1.00  0.00    -0.272 OA 
ENDBRANCH  20  21
ENDBRANCH  19  20
ENDBRANCH  17  18
ENDBRANCH  16  17
ENDBRANCH  14  15
ENDBRANCH  13  14
ENDBRANCH  11  12
ENDBRANCH  10  11
ENDBRANCH   8   9
ENDBRANCH   7   8
ENDBRANCH   5   6
ENDBRANCH   4   5
ENDBRANCH   2   3
TORSDOF 13
ENDMDL
MODEL      147
REMARK 921   NORMALIZED FREE ENERGY PREDICTED BY IDOCK:   -4.38 KCAL/MOL
REMARK 922        TOTAL FREE ENERGY PREDICTED BY IDOCK:  -10.49 KCAL/MOL
REMARK 923 INTER-LIGAND FREE ENERGY PREDICTED BY IDOCK:   -7.90 KCAL/MOL
REMARK 924 INTRA-LIGAND FREE ENERGY PREDICTED BY IDOCK:   -2.59 KCAL/MOL
REMARK 927      BINDING AFFINITY PREDICTED BY RF-SCORE:    0.00 PKD
ROOT
HETATM    1  C   UNL     1      -9.569   5.972  70.060  1.00  0.00    -0.194 C  
HETATM    2  C   UNL     1     -10.913   6.292  69.428  1.00  0.00    -0.440 C  
ENDROOT
BRANCH   2   3
HETATM    3  C   UNL     1     -10.940   6.005  67.953  1.00  0.00    -0.334 C  
HETATM    4  C   UNL     1     -10.724   6.909  66.981  1.00  0.00    -0.432 C  
BRANCH   4   5
HETATM    5  C   UNL     1     -10.511   8.382  67.191  1.00  0.00    -0.380 C  
BRANCH   5   6
HETATM    6  C   UNL     1      -9.062   8.712  67.422  1.00  0.00    -0.148 C  
HETATM    7  C   UNL     1      -8.111   8.820  66.478  1.00  0.00    -0.103 C  
BRANCH   7   8
HETATM    8  C   UNL     1      -8.338   8.591  65.012  1.00  0.00    -0.175 C  
BRANCH   8   9
HETATM    9  C   UNL     1      -8.086   9.823  64.192  1.00  0.00    -0.153 C  
HETATM   10  C   UNL     1      -8.953  10.824  63.964  1.00  0.00    -0.167 C  
BRANCH  10  11
HETATM   11  C   UNL     1     -10.336  10.974  64.536  1.00  0.00    -0.420 C  
BRANCH  11  12
HETATM   12  C   UNL     1     -11.294  11.661  63.602  1.00  0.00    -0.485 C  
HETATM   13  C   UNL     1     -12.275  12.512  63.942  1.00  0.00    -0.590 C  
BRANCH  13  14
HETATM   14  C   UNL     1     -12.653  12.883  65.338  1.00  0.00    -0.440 C  
BRANCH  14  15
HETATM   15  C   UNL     1     -11.800  13.981  65.909  1.00  0.00    -0.395 C  
HETATM   16  C   UNL     1     -11.101  13.853  67.050  1.00  0.00    -0.311 C  
BRANCH  16  17
HETATM   17  C   UNL     1     -11.134  12.635  67.924  1.00  0.00    -0.285 C  
BRANCH  17  18
HETATM   18  C   UNL     1     -11.609  12.920  69.322  1.00  0.00    -0.368 C  
HETATM   19  C   UNL     1     -11.954  11.948  70.185  1.00  0.00    -0.413 C  
BRANCH  19  20
HETATM   20  C   UNL     1     -11.875  10.492  69.810  1.00  0.00    -0.329 C  
BRANCH  20  21
HETATM   21  C   UNL     1     -11.553   9.547  70.961  1.00  0.00    -0.419 C  
HETATM   22  C   UNL     1     -12.845   9.129  71.630  1.00  0.00    -0.363 C  
HETATM   23  O   UNL     1     -12.677   8.768  72.925  1.00  0.00    -0.306 OA 
HETATM   24  O   UNL     1     -13.933   9.083  71.086  1.00  0.00    -0.254 OA 
ENDBRANCH  20  21
ENDBRANCH  19  20
ENDBRANCH  17  18
ENDBRANCH  16  17
ENDBRANCH  14  15
ENDBRANCH  13  14
ENDBRANCH  11  12
ENDBRANCH  10  11
ENDBRANCH   8   9
ENDBRANCH   7   8
ENDBRANCH   5   6
ENDBRANCH   4   5
ENDBRANCH   2   3
TORSDOF 13
ENDMDL
MODEL      148
REMARK 921   NORMALIZED FREE ENERGY PREDICTED BY IDOCK:   -4.38 KCAL/MOL
REMARK 922        TOTAL FREE ENERGY PREDICTED BY IDOCK:  -10.48 KCAL/MOL
REMARK 923 INTER-LIGAND FREE ENERGY PREDICTED BY IDOCK:   -8.19 KCAL/MOL
REMARK 924 INTRA-LIGAND FREE ENERGY PREDICTED BY IDOCK:   -2.30 KCAL/MOL
REMARK 927      BINDING AFFINITY PREDICTED BY RF-SCORE:    0.00 PKD
ROOT
HETATM    1  C   UNL     1      -6.959  10.140  62.724  1.00  0.00    -0.130 C  
HETATM    2  C   UNL     1      -7.564   9.450  63.935  1.00  0.00    -0.118 C  
ENDROOT
BRANCH   2   3
HETATM    3  C   UNL     1      -7.741  10.382  65.100  1.00  0.00    -0.110 C  
HETATM    4  C   UNL     1      -8.916  10.873  65.532  1.00  0.00    -0.213 C  
BRANCH   4   5
HETATM    5  C   UNL     1     -10.248  10.655  64.872  1.00  0.00    -0.395 C  
BRANCH   5   6
HETATM    6  C   UNL     1     -10.452  11.575  63.700  1.00  0.00    -0.483 C  
HETATM    7  C   UNL     1     -11.310  12.608  63.641  1.00  0.00    -0.544 C  
BRANCH   7   8
HETATM    8  C   UNL     1     -12.246  13.001  64.745  1.00  0.00    -0.487 C  
BRANCH   8   9
HETATM    9  C   UNL     1     -11.819  14.259  65.443  1.00  0.00    -0.363 C  
HETATM   10  C   UNL     1     -11.753  14.457  66.770  1.00  0.00    -0.415 C  
BRANCH  10  11
HETATM   11  C   UNL     1     -12.020  13.445  67.851  1.00  0.00    -0.360 C  
BRANCH  11  12
HETATM   12  C   UNL     1     -10.807  12.635  68.218  1.00  0.00    -0.261 C  
HETATM   13  C   UNL     1     -10.791  11.480  68.902  1.00  0.00    -0.263 C  
BRANCH  13  14
HETATM   14  C   UNL     1     -11.984  10.811  69.500  1.00  0.00    -0.364 C  
BRANCH  14  15
HETATM   15  C   UNL     1     -12.336  11.340  70.862  1.00  0.00    -0.490 C  
HETATM   16  C   UNL     1     -12.812  10.566  71.853  1.00  0.00    -0.509 C  
BRANCH  16  17
HETATM   17  C   UNL     1     -13.107   9.103  71.708  1.00  0.00    -0.456 C  
BRANCH  17  18
HETATM   18  C   UNL     1     -12.014   8.222  72.247  1.00  0.00    -0.448 C  
HETATM   19  C   UNL     1     -11.451   7.237  71.524  1.00  0.00    -0.292 C  
BRANCH  19  20
HETATM   20  C   UNL     1     -11.871   6.958  70.106  1.00  0.00    -0.266 C  
BRANCH  20  21
HETATM   21  C   UNL     1     -11.018   5.931  69.372  1.00  0.00    -0.421 C  
HETATM   22  C   UNL     1     -10.843   6.374  67.935  1.00  0.00    -0.322 C  
HETATM   23  O   UNL     1     -10.600   5.344  67.090  1.00  0.00    -0.242 OA 
HETATM   24  O   UNL     1     -10.882   7.528  67.548  1.00  0.00    -0.233 OA 
ENDBRANCH  20  21
ENDBRANCH  19  20
ENDBRANCH  17  18
ENDBRANCH  16  17
ENDBRANCH  14  15
ENDBRANCH  13  14
ENDBRANCH  11  12
ENDBRANCH  10  11
ENDBRANCH   8   9
ENDBRANCH   7   8
ENDBRANCH   5   6
ENDBRANCH   4   5
ENDBRANCH   2   3
TORSDOF 13
ENDMDL
MODEL      149
REMARK 921   NORMALIZED FREE ENERGY PREDICTED BY IDOCK:   -4.38 KCAL/MOL
REMARK 922        TOTAL FREE ENERGY PREDICTED BY IDOCK:  -10.48 KCAL/MOL
REMARK 923 INTER-LIGAND FREE ENERGY PREDICTED BY IDOCK:   -8.76 KCAL/MOL
REMARK 924 INTRA-LIGAND FREE ENERGY PREDICTED BY IDOCK:   -1.72 KCAL/MOL
REMARK 927      BINDING AFFINITY PREDICTED BY RF-SCORE:    0.00 PKD
ROOT
HETATM    1  C   UNL     1      -9.257   3.469  67.591  1.00  0.00    -0.229 C  
HETATM    2  C   UNL     1      -9.687   4.720  68.338  1.00  0.00    -0.209 C  
ENDROOT
BRANCH   2   3
HETATM    3  C   UNL     1      -9.903   4.469  69.804  1.00  0.00    -0.295 C  
HETATM    4  C   UNL     1     -10.350   5.375  70.691  1.00  0.00    -0.333 C  
BRANCH   4   5
HETATM    5  C   UNL     1     -10.624   6.823  70.395  1.00  0.00    -0.262 C  
BRANCH   5   6
HETATM    6  C   UNL     1      -9.905   7.737  71.349  1.00  0.00    -0.195 C  
HETATM    7  C   UNL     1     -10.192   9.030  71.579  1.00  0.00    -0.414 C  
BRANCH   7   8
HETATM    8  C   UNL     1     -11.279   9.797  70.885  1.00  0.00    -0.429 C  
BRANCH   8   9
HETATM    9  C   UNL     1     -12.564   9.803  71.660  1.00  0.00    -0.509 C  
HETATM   10  C   UNL     1     -13.279  10.883  72.019  1.00  0.00    -0.456 C  
BRANCH  10  11
HETATM   11  C   UNL     1     -12.995  12.317  71.662  1.00  0.00    -0.416 C  
BRANCH  11  12
HETATM   12  C   UNL     1     -13.818  13.298  72.450  1.00  0.00    -0.630 C  
HETATM   13  C   UNL     1     -14.048  14.584  72.140  1.00  0.00    -0.616 C  
BRANCH  13  14
HETATM   14  C   UNL     1     -13.462  15.311  70.977  1.00  0.00    -0.516 C  
BRANCH  14  15
HETATM   15  C   UNL     1     -12.114  15.909  71.273  1.00  0.00    -0.487 C  
HETATM   16  C   UNL     1     -11.002  15.597  70.585  1.00  0.00    -0.364 C  
BRANCH  16  17
HETATM   17  C   UNL     1     -10.951  14.576  69.488  1.00  0.00    -0.253 C  
BRANCH  17  18
HETATM   18  C   UNL     1     -11.419  15.108  68.161  1.00  0.00    -0.356 C  
HETATM   19  C   UNL     1     -11.907  14.315  67.190  1.00  0.00    -0.454 C  
BRANCH  19  20
HETATM   20  C   UNL     1     -12.033  12.827  67.374  1.00  0.00    -0.335 C  
BRANCH  20  21
HETATM   21  C   UNL     1     -11.472  11.987  66.233  1.00  0.00    -0.408 C  
HETATM   22  C   UNL     1     -10.069  11.546  66.590  1.00  0.00    -0.210 C  
HETATM   23  O   UNL     1      -9.302  11.290  65.503  1.00  0.00    -0.218 OA 
HETATM   24  O   UNL     1      -9.648  11.398  67.724  1.00  0.00    -0.166 OA 
ENDBRANCH  20  21
ENDBRANCH  19  20
ENDBRANCH  17  18
ENDBRANCH  16  17
ENDBRANCH  14  15
ENDBRANCH  13  14
ENDBRANCH  11  12
ENDBRANCH  10  11
ENDBRANCH   8   9
ENDBRANCH   7   8
ENDBRANCH   5   6
ENDBRANCH   4   5
ENDBRANCH   2   3
TORSDOF 13
ENDMDL
MODEL      150
REMARK 921   NORMALIZED FREE ENERGY PREDICTED BY IDOCK:   -4.38 KCAL/MOL
REMARK 922        TOTAL FREE ENERGY PREDICTED BY IDOCK:  -10.48 KCAL/MOL
REMARK 923 INTER-LIGAND FREE ENERGY PREDICTED BY IDOCK:   -7.50 KCAL/MOL
REMARK 924 INTRA-LIGAND FREE ENERGY PREDICTED BY IDOCK:   -2.97 KCAL/MOL
REMARK 927      BINDING AFFINITY PREDICTED BY RF-SCORE:    0.00 PKD
ROOT
HETATM    1  C   UNL     1      -8.800  16.165  68.903  1.00  0.00    -0.248 C  
HETATM    2  C   UNL     1      -7.999  14.873  68.877  1.00  0.00    -0.163 C  
ENDROOT
BRANCH   2   3
HETATM    3  C   UNL     1      -7.910  14.278  67.500  1.00  0.00    -0.209 C  
HETATM    4  C   UNL     1      -7.938  12.964  67.217  1.00  0.00    -0.151 C  
BRANCH   4   5
HETATM    5  C   UNL     1      -7.967  11.854  68.230  1.00  0.00    -0.148 C  
BRANCH   5   6
HETATM    6  C   UNL     1      -7.164  10.664  67.782  1.00  0.00    -0.088 C  
HETATM    7  C   UNL     1      -7.618   9.625  67.060  1.00  0.00    -0.095 C  
BRANCH   7   8
HETATM    8  C   UNL     1      -9.038   9.464  66.601  1.00  0.00    -0.181 C  
BRANCH   8   9
HETATM    9  C   UNL     1      -9.149   9.329  65.111  1.00  0.00    -0.263 C  
HETATM   10  C   UNL     1      -9.683  10.224  64.263  1.00  0.00    -0.373 C  
BRANCH  10  11
HETATM   11  C   UNL     1     -10.220  11.588  64.604  1.00  0.00    -0.334 C  
BRANCH  11  12
HETATM   12  C   UNL     1     -11.087  12.172  63.523  1.00  0.00    -0.525 C  
HETATM   13  C   UNL     1     -12.121  13.012  63.690  1.00  0.00    -0.604 C  
BRANCH  13  14
HETATM   14  C   UNL     1     -12.659  13.472  65.004  1.00  0.00    -0.441 C  
BRANCH  14  15
HETATM   15  C   UNL     1     -11.756  14.452  65.700  1.00  0.00    -0.356 C  
HETATM   16  C   UNL     1     -11.477  14.392  67.014  1.00  0.00    -0.376 C  
BRANCH  16  17
HETATM   17  C   UNL     1     -12.073  13.388  67.955  1.00  0.00    -0.289 C  
BRANCH  17  18
HETATM   18  C   UNL     1     -11.556  11.993  67.738  1.00  0.00    -0.400 C  
HETATM   19  C   UNL     1     -11.424  11.103  68.738  1.00  0.00    -0.366 C  
BRANCH  19  20
HETATM   20  C   UNL     1     -11.801  11.443  70.155  1.00  0.00    -0.440 C  
BRANCH  20  21
HETATM   21  C   UNL     1     -12.802  10.494  70.801  1.00  0.00    -0.454 C  
HETATM   22  C   UNL     1     -12.063   9.280  71.321  1.00  0.00    -0.337 C  
HETATM   23  O   UNL     1     -12.848   8.178  71.405  1.00  0.00    -0.308 OA 
HETATM   24  O   UNL     1     -10.895   9.264  71.665  1.00  0.00    -0.357 OA 
ENDBRANCH  20  21
ENDBRANCH  19  20
ENDBRANCH  17  18
ENDBRANCH  16  17
ENDBRANCH  14  15
ENDBRANCH  13  14
ENDBRANCH  11  12
ENDBRANCH  10  11
ENDBRANCH   8   9
ENDBRANCH   7   8
ENDBRANCH   5   6
ENDBRANCH   4   5
ENDBRANCH   2   3
TORSDOF 13
ENDMDL
MODEL      151
REMARK 921   NORMALIZED FREE ENERGY PREDICTED BY IDOCK:   -4.37 KCAL/MOL
REMARK 922        TOTAL FREE ENERGY PREDICTED BY IDOCK:  -10.47 KCAL/MOL
REMARK 923 INTER-LIGAND FREE ENERGY PREDICTED BY IDOCK:   -8.87 KCAL/MOL
REMARK 924 INTRA-LIGAND FREE ENERGY PREDICTED BY IDOCK:   -1.60 KCAL/MOL
REMARK 927      BINDING AFFINITY PREDICTED BY RF-SCORE:    0.00 PKD
ROOT
HETATM    1  C   UNL     1      -8.542  18.514  66.640  1.00  0.00    -0.295 C  
HETATM    2  C   UNL     1      -9.108  17.173  66.205  1.00  0.00    -0.260 C  
ENDROOT
BRANCH   2   3
HETATM    3  C   UNL     1      -8.367  16.012  66.807  1.00  0.00    -0.305 C  
HETATM    4  C   UNL     1      -8.744  14.724  66.730  1.00  0.00    -0.255 C  
BRANCH   4   5
HETATM    5  C   UNL     1     -10.018  14.224  66.110  1.00  0.00    -0.330 C  
BRANCH   5   6
HETATM    6  C   UNL     1     -10.878  13.493  67.104  1.00  0.00    -0.291 C  
HETATM    7  C   UNL     1     -11.582  14.049  68.106  1.00  0.00    -0.369 C  
BRANCH   7   8
HETATM    8  C   UNL     1     -11.599  15.516  68.422  1.00  0.00    -0.368 C  
BRANCH   8   9
HETATM    9  C   UNL     1     -11.183  15.805  69.834  1.00  0.00    -0.335 C  
HETATM   10  C   UNL     1     -11.965  15.754  70.926  1.00  0.00    -0.453 C  
BRANCH  10  11
HETATM   11  C   UNL     1     -13.406  15.325  70.990  1.00  0.00    -0.537 C  
BRANCH  11  12
HETATM   12  C   UNL     1     -13.733  14.529  72.223  1.00  0.00    -0.559 C  
HETATM   13  C   UNL     1     -13.538  13.213  72.404  1.00  0.00    -0.667 C  
BRANCH  13  14
HETATM   14  C   UNL     1     -13.020  12.266  71.373  1.00  0.00    -0.354 C  
BRANCH  14  15
HETATM   15  C   UNL     1     -13.271  10.824  71.718  1.00  0.00    -0.523 C  
HETATM   16  C   UNL     1     -12.444   9.827  71.361  1.00  0.00    -0.482 C  
BRANCH  16  17
HETATM   17  C   UNL     1     -11.210  10.014  70.530  1.00  0.00    -0.408 C  
BRANCH  17  18
HETATM   18  C   UNL     1     -10.087   9.093  70.918  1.00  0.00    -0.356 C  
HETATM   19  C   UNL     1     -10.021   7.813  70.507  1.00  0.00    -0.187 C  
BRANCH  19  20
HETATM   20  C   UNL     1     -11.071   7.215  69.609  1.00  0.00    -0.206 C  
BRANCH  20  21
HETATM   21  C   UNL     1     -10.610   6.018  68.788  1.00  0.00    -0.345 C  
HETATM   22  C   UNL     1     -10.760   6.344  67.317  1.00  0.00    -0.353 C  
HETATM   23  O   UNL     1     -10.911   5.241  66.544  1.00  0.00    -0.280 OA 
HETATM   24  O   UNL     1     -10.726   7.464  66.840  1.00  0.00    -0.346 OA 
ENDBRANCH  20  21
ENDBRANCH  19  20
ENDBRANCH  17  18
ENDBRANCH  16  17
ENDBRANCH  14  15
ENDBRANCH  13  14
ENDBRANCH  11  12
ENDBRANCH  10  11
ENDBRANCH   8   9
ENDBRANCH   7   8
ENDBRANCH   5   6
ENDBRANCH   4   5
ENDBRANCH   2   3
TORSDOF 13
ENDMDL
MODEL      152
REMARK 921   NORMALIZED FREE ENERGY PREDICTED BY IDOCK:   -4.36 KCAL/MOL
REMARK 922        TOTAL FREE ENERGY PREDICTED BY IDOCK:  -10.46 KCAL/MOL
REMARK 923 INTER-LIGAND FREE ENERGY PREDICTED BY IDOCK:   -8.73 KCAL/MOL
REMARK 924 INTRA-LIGAND FREE ENERGY PREDICTED BY IDOCK:   -1.73 KCAL/MOL
REMARK 927      BINDING AFFINITY PREDICTED BY RF-SCORE:    0.00 PKD
ROOT
HETATM    1  C   UNL     1     -12.376   6.935  71.621  1.00  0.00    -0.413 C  
HETATM    2  C   UNL     1     -13.637   7.773  71.492  1.00  0.00    -0.391 C  
ENDROOT
BRANCH   2   3
HETATM    3  C   UNL     1     -13.577   9.035  72.306  1.00  0.00    -0.540 C  
HETATM    4  C   UNL     1     -13.146  10.228  71.862  1.00  0.00    -0.568 C  
BRANCH   4   5
HETATM    5  C   UNL     1     -12.561  10.493  70.503  1.00  0.00    -0.423 C  
BRANCH   5   6
HETATM    6  C   UNL     1     -11.067  10.324  70.492  1.00  0.00    -0.381 C  
HETATM    7  C   UNL     1     -10.330   9.835  69.479  1.00  0.00    -0.247 C  
BRANCH   7   8
HETATM    8  C   UNL     1     -10.892   9.340  68.180  1.00  0.00    -0.145 C  
BRANCH   8   9
HETATM    9  C   UNL     1     -10.256   9.996  66.990  1.00  0.00    -0.295 C  
HETATM   10  C   UNL     1     -10.603  11.173  66.443  1.00  0.00    -0.315 C  
BRANCH  10  11
HETATM   11  C   UNL     1     -11.651  12.131  66.942  1.00  0.00    -0.408 C  
BRANCH  11  12
HETATM   12  C   UNL     1     -12.084  13.130  65.905  1.00  0.00    -0.501 C  
HETATM   13  C   UNL     1     -11.619  14.380  65.752  1.00  0.00    -0.353 C  
BRANCH  13  14
HETATM   14  C   UNL     1     -10.624  15.048  66.642  1.00  0.00    -0.301 C  
BRANCH  14  15
HETATM   15  C   UNL     1     -11.229  15.569  67.916  1.00  0.00    -0.325 C  
HETATM   16  C   UNL     1     -10.977  16.796  68.403  1.00  0.00    -0.325 C  
BRANCH  16  17
HETATM   17  C   UNL     1     -10.024  17.769  67.778  1.00  0.00    -0.322 C  
BRANCH  17  18
HETATM   18  C   UNL     1     -10.670  19.074  67.401  1.00  0.00    -0.559 C  
HETATM   19  C   UNL     1     -10.040  20.014  66.674  1.00  0.00    -0.607 C  
BRANCH  19  20
HETATM   20  C   UNL     1      -8.635  19.816  66.171  1.00  0.00    -0.367 C  
BRANCH  20  21
HETATM   21  C   UNL     1      -7.547  20.434  67.041  1.00  0.00    -0.360 C  
HETATM   22  C   UNL     1      -6.543  19.362  67.407  1.00  0.00    -0.193 C  
HETATM   23  O   UNL     1      -5.882  19.628  68.559  1.00  0.00    -0.218 OA 
HETATM   24  O   UNL     1      -6.307  18.367  66.746  1.00  0.00    -0.172 OA 
ENDBRANCH  20  21
ENDBRANCH  19  20
ENDBRANCH  17  18
ENDBRANCH  16  17
ENDBRANCH  14  15
ENDBRANCH  13  14
ENDBRANCH  11  12
ENDBRANCH  10  11
ENDBRANCH   8   9
ENDBRANCH   7   8
ENDBRANCH   5   6
ENDBRANCH   4   5
ENDBRANCH   2   3
TORSDOF 13
ENDMDL
MODEL      153
REMARK 921   NORMALIZED FREE ENERGY PREDICTED BY IDOCK:   -4.36 KCAL/MOL
REMARK 922        TOTAL FREE ENERGY PREDICTED BY IDOCK:  -10.44 KCAL/MOL
REMARK 923 INTER-LIGAND FREE ENERGY PREDICTED BY IDOCK:   -8.35 KCAL/MOL
REMARK 924 INTRA-LIGAND FREE ENERGY PREDICTED BY IDOCK:   -2.10 KCAL/MOL
REMARK 927      BINDING AFFINITY PREDICTED BY RF-SCORE:    0.00 PKD
ROOT
HETATM    1  C   UNL     1     -10.160   4.400  71.868  1.00  0.00    -0.245 C  
HETATM    2  C   UNL     1     -11.172   5.232  72.638  1.00  0.00    -0.311 C  
ENDROOT
BRANCH   2   3
HETATM    3  C   UNL     1     -10.533   6.366  73.389  1.00  0.00    -0.283 C  
HETATM    4  C   UNL     1     -10.747   7.672  73.156  1.00  0.00    -0.445 C  
BRANCH   4   5
HETATM    5  C   UNL     1     -11.589   8.234  72.046  1.00  0.00    -0.403 C  
BRANCH   5   6
HETATM    6  C   UNL     1     -10.832   9.235  71.217  1.00  0.00    -0.417 C  
HETATM    7  C   UNL     1     -11.353  10.305  70.591  1.00  0.00    -0.431 C  
BRANCH   7   8
HETATM    8  C   UNL     1     -12.810  10.663  70.589  1.00  0.00    -0.404 C  
BRANCH   8   9
HETATM    9  C   UNL     1     -13.250  11.288  71.880  1.00  0.00    -0.491 C  
HETATM   10  C   UNL     1     -13.345  12.603  72.142  1.00  0.00    -0.570 C  
BRANCH  10  11
HETATM   11  C   UNL     1     -13.106  13.738  71.184  1.00  0.00    -0.324 C  
BRANCH  11  12
HETATM   12  C   UNL     1     -12.411  14.912  71.817  1.00  0.00    -0.410 C  
HETATM   13  C   UNL     1     -11.777  15.909  71.180  1.00  0.00    -0.490 C  
BRANCH  13  14
HETATM   14  C   UNL     1     -11.575  16.001  69.704  1.00  0.00    -0.299 C  
BRANCH  14  15
HETATM   15  C   UNL     1     -10.207  15.557  69.266  1.00  0.00    -0.252 C  
HETATM   16  C   UNL     1      -9.968  14.370  68.683  1.00  0.00    -0.241 C  
BRANCH  16  17
HETATM   17  C   UNL     1     -11.014  13.321  68.454  1.00  0.00    -0.289 C  
BRANCH  17  18
HETATM   18  C   UNL     1     -11.419  13.191  67.012  1.00  0.00    -0.379 C  
HETATM   19  C   UNL     1     -11.348  12.029  66.338  1.00  0.00    -0.411 C  
BRANCH  19  20
HETATM   20  C   UNL     1     -10.867  10.762  66.994  1.00  0.00    -0.311 C  
BRANCH  20  21
HETATM   21  C   UNL     1     -10.058   9.838  66.093  1.00  0.00    -0.315 C  
HETATM   22  C   UNL     1      -9.838   8.523  66.809  1.00  0.00    -0.257 C  
HETATM   23  O   UNL     1      -8.732   7.867  66.382  1.00  0.00    -0.137 OA 
HETATM   24  O   UNL     1     -10.573   8.058  67.662  1.00  0.00    -0.235 OA 
ENDBRANCH  20  21
ENDBRANCH  19  20
ENDBRANCH  17  18
ENDBRANCH  16  17
ENDBRANCH  14  15
ENDBRANCH  13  14
ENDBRANCH  11  12
ENDBRANCH  10  11
ENDBRANCH   8   9
ENDBRANCH   7   8
ENDBRANCH   5   6
ENDBRANCH   4   5
ENDBRANCH   2   3
TORSDOF 13
ENDMDL
MODEL      154
REMARK 921   NORMALIZED FREE ENERGY PREDICTED BY IDOCK:   -4.36 KCAL/MOL
REMARK 922        TOTAL FREE ENERGY PREDICTED BY IDOCK:  -10.44 KCAL/MOL
REMARK 923 INTER-LIGAND FREE ENERGY PREDICTED BY IDOCK:   -8.51 KCAL/MOL
REMARK 924 INTRA-LIGAND FREE ENERGY PREDICTED BY IDOCK:   -1.93 KCAL/MOL
REMARK 927      BINDING AFFINITY PREDICTED BY RF-SCORE:    0.00 PKD
ROOT
HETATM    1  C   UNL     1      -9.417  20.702  67.315  1.00  0.00    -0.520 C  
HETATM    2  C   UNL     1     -10.171  19.792  68.271  1.00  0.00    -0.569 C  
ENDROOT
BRANCH   2   3
HETATM    3  C   UNL     1     -10.877  18.671  67.563  1.00  0.00    -0.373 C  
HETATM    4  C   UNL     1     -10.861  17.381  67.940  1.00  0.00    -0.270 C  
BRANCH   4   5
HETATM    5  C   UNL     1     -10.061  16.815  69.079  1.00  0.00    -0.283 C  
BRANCH   5   6
HETATM    6  C   UNL     1      -8.628  16.573  68.694  1.00  0.00    -0.243 C  
HETATM    7  C   UNL     1      -8.173  15.583  67.906  1.00  0.00    -0.149 C  
BRANCH   7   8
HETATM    8  C   UNL     1      -9.035  14.516  67.296  1.00  0.00    -0.220 C  
BRANCH   8   9
HETATM    9  C   UNL     1      -9.583  14.916  65.957  1.00  0.00    -0.346 C  
HETATM   10  C   UNL     1     -10.728  14.486  65.400  1.00  0.00    -0.372 C  
BRANCH  10  11
HETATM   11  C   UNL     1     -11.750  13.571  66.019  1.00  0.00    -0.389 C  
BRANCH  11  12
HETATM   12  C   UNL     1     -12.496  12.744  65.008  1.00  0.00    -0.572 C  
HETATM   13  C   UNL     1     -11.979  12.142  63.925  1.00  0.00    -0.581 C  
BRANCH  13  14
HETATM   14  C   UNL     1     -10.559  12.243  63.475  1.00  0.00    -0.488 C  
BRANCH  14  15
HETATM   15  C   UNL     1      -9.944  10.908  63.160  1.00  0.00    -0.368 C  
HETATM   16  C   UNL     1      -9.495  10.063  64.104  1.00  0.00    -0.314 C  
BRANCH  16  17
HETATM   17  C   UNL     1      -9.493  10.366  65.572  1.00  0.00    -0.267 C  
BRANCH  17  18
HETATM   18  C   UNL     1     -10.241   9.349  66.389  1.00  0.00    -0.300 C  
HETATM   19  C   UNL     1     -10.645   9.584  67.651  1.00  0.00    -0.329 C  
BRANCH  19  20
HETATM   20  C   UNL     1     -10.385  10.901  68.332  1.00  0.00    -0.196 C  
BRANCH  20  21
HETATM   21  C   UNL     1     -11.585  11.497  69.058  1.00  0.00    -0.383 C  
HETATM   22  C   UNL     1     -11.844  10.699  70.318  1.00  0.00    -0.342 C  
HETATM   23  O   UNL     1     -13.132  10.766  70.731  1.00  0.00    -0.308 OA 
HETATM   24  O   UNL     1     -11.002  10.073  70.937  1.00  0.00    -0.327 OA 
ENDBRANCH  20  21
ENDBRANCH  19  20
ENDBRANCH  17  18
ENDBRANCH  16  17
ENDBRANCH  14  15
ENDBRANCH  13  14
ENDBRANCH  11  12
ENDBRANCH  10  11
ENDBRANCH   8   9
ENDBRANCH   7   8
ENDBRANCH   5   6
ENDBRANCH   4   5
ENDBRANCH   2   3
TORSDOF 13
ENDMDL
MODEL      155
REMARK 921   NORMALIZED FREE ENERGY PREDICTED BY IDOCK:   -4.33 KCAL/MOL
REMARK 922        TOTAL FREE ENERGY PREDICTED BY IDOCK:  -10.40 KCAL/MOL
REMARK 923 INTER-LIGAND FREE ENERGY PREDICTED BY IDOCK:   -7.64 KCAL/MOL
REMARK 924 INTRA-LIGAND FREE ENERGY PREDICTED BY IDOCK:   -2.76 KCAL/MOL
REMARK 927      BINDING AFFINITY PREDICTED BY RF-SCORE:    0.00 PKD
ROOT
HETATM    1  C   UNL     1     -11.075   8.919  71.809  1.00  0.00    -0.433 C  
HETATM    2  C   UNL     1     -11.771   7.779  71.085  1.00  0.00    -0.304 C  
ENDROOT
BRANCH   2   3
HETATM    3  C   UNL     1     -11.558   6.453  71.759  1.00  0.00    -0.367 C  
HETATM    4  C   UNL     1     -10.562   5.592  71.486  1.00  0.00    -0.306 C  
BRANCH   4   5
HETATM    5  C   UNL     1      -9.541   5.758  70.397  1.00  0.00    -0.210 C  
BRANCH   5   6
HETATM    6  C   UNL     1      -9.775   4.803  69.258  1.00  0.00    -0.266 C  
HETATM    7  C   UNL     1     -10.369   5.093  68.087  1.00  0.00    -0.140 C  
BRANCH   7   8
HETATM    8  C   UNL     1     -10.936   6.436  67.730  1.00  0.00    -0.425 C  
BRANCH   8   9
HETATM    9  C   UNL     1     -10.006   7.244  66.874  1.00  0.00    -0.302 C  
HETATM   10  C   UNL     1      -9.615   8.512  67.090  1.00  0.00    -0.232 C  
BRANCH  10  11
HETATM   11  C   UNL     1      -9.960   9.378  68.271  1.00  0.00    -0.197 C  
BRANCH  11  12
HETATM   12  C   UNL     1     -11.275  10.092  68.120  1.00  0.00    -0.245 C  
HETATM   13  C   UNL     1     -11.475  11.419  68.156  1.00  0.00    -0.375 C  
BRANCH  13  14
HETATM   14  C   UNL     1     -10.427  12.445  68.433  1.00  0.00    -0.245 C  
BRANCH  14  15
HETATM   15  C   UNL     1     -10.997  13.785  68.806  1.00  0.00    -0.289 C  
HETATM   16  C   UNL     1     -11.399  14.693  67.900  1.00  0.00    -0.332 C  
BRANCH  16  17
HETATM   17  C   UNL     1     -11.274  14.513  66.417  1.00  0.00    -0.341 C  
BRANCH  17  18
HETATM   18  C   UNL     1     -12.513  13.945  65.782  1.00  0.00    -0.530 C  
HETATM   19  C   UNL     1     -12.481  13.204  64.659  1.00  0.00    -0.433 C  
BRANCH  19  20
HETATM   20  C   UNL     1     -11.186  12.878  63.964  1.00  0.00    -0.458 C  
BRANCH  20  21
HETATM   21  C   UNL     1     -10.990  11.406  63.624  1.00  0.00    -0.443 C  
HETATM   22  C   UNL     1      -9.753  10.898  64.334  1.00  0.00    -0.290 C  
HETATM   23  O   UNL     1      -9.186   9.836  63.712  1.00  0.00    -0.258 OA 
HETATM   24  O   UNL     1      -9.303  11.354  65.369  1.00  0.00    -0.215 OA 
ENDBRANCH  20  21
ENDBRANCH  19  20
ENDBRANCH  17  18
ENDBRANCH  16  17
ENDBRANCH  14  15
ENDBRANCH  13  14
ENDBRANCH  11  12
ENDBRANCH  10  11
ENDBRANCH   8   9
ENDBRANCH   7   8
ENDBRANCH   5   6
ENDBRANCH   4   5
ENDBRANCH   2   3
TORSDOF 13
ENDMDL
MODEL      156
REMARK 921   NORMALIZED FREE ENERGY PREDICTED BY IDOCK:   -4.32 KCAL/MOL
REMARK 922        TOTAL FREE ENERGY PREDICTED BY IDOCK:  -10.38 KCAL/MOL
REMARK 923 INTER-LIGAND FREE ENERGY PREDICTED BY IDOCK:   -8.12 KCAL/MOL
REMARK 924 INTRA-LIGAND FREE ENERGY PREDICTED BY IDOCK:   -2.26 KCAL/MOL
REMARK 927      BINDING AFFINITY PREDICTED BY RF-SCORE:    0.00 PKD
ROOT
HETATM    1  C   UNL     1      -9.168  15.064  66.428  1.00  0.00    -0.328 C  
HETATM    2  C   UNL     1     -10.419  14.817  67.254  1.00  0.00    -0.264 C  
ENDROOT
BRANCH   2   3
HETATM    3  C   UNL     1     -11.012  16.086  67.797  1.00  0.00    -0.307 C  
HETATM    4  C   UNL     1     -11.088  16.416  69.097  1.00  0.00    -0.303 C  
BRANCH   4   5
HETATM    5  C   UNL     1     -10.679  15.536  70.245  1.00  0.00    -0.352 C  
BRANCH   5   6
HETATM    6  C   UNL     1     -11.838  15.221  71.151  1.00  0.00    -0.399 C  
HETATM    7  C   UNL     1     -12.483  14.044  71.236  1.00  0.00    -0.448 C  
BRANCH   7   8
HETATM    8  C   UNL     1     -12.166  12.838  70.401  1.00  0.00    -0.371 C  
BRANCH   8   9
HETATM    9  C   UNL     1     -12.428  11.551  71.127  1.00  0.00    -0.442 C  
HETATM   10  C   UNL     1     -11.815  10.374  70.918  1.00  0.00    -0.475 C  
BRANCH  10  11
HETATM   11  C   UNL     1     -10.681  10.099  69.968  1.00  0.00    -0.356 C  
BRANCH  11  12
HETATM   12  C   UNL     1     -11.053  10.307  68.525  1.00  0.00    -0.294 C  
HETATM   13  C   UNL     1     -10.743   9.505  67.494  1.00  0.00    -0.311 C  
BRANCH  13  14
HETATM   14  C   UNL     1      -9.897   8.279  67.575  1.00  0.00    -0.231 C  
BRANCH  14  15
HETATM   15  C   UNL     1     -10.620   7.033  67.146  1.00  0.00    -0.412 C  
HETATM   16  C   UNL     1     -11.050   6.096  68.010  1.00  0.00    -0.316 C  
BRANCH  16  17
HETATM   17  C   UNL     1     -10.809   6.143  69.489  1.00  0.00    -0.428 C  
BRANCH  17  18
HETATM   18  C   UNL     1     -11.998   6.633  70.268  1.00  0.00    -0.302 C  
HETATM   19  C   UNL     1     -11.998   6.733  71.610  1.00  0.00    -0.391 C  
BRANCH  19  20
HETATM   20  C   UNL     1     -10.789   6.369  72.429  1.00  0.00    -0.267 C  
BRANCH  20  21
HETATM   21  C   UNL     1     -10.246   7.490  73.307  1.00  0.00    -0.398 C  
HETATM   22  C   UNL     1      -8.968   8.019  72.692  1.00  0.00    -0.218 C  
HETATM   23  O   UNL     1      -8.140   8.589  73.602  1.00  0.00    -0.381 OA 
HETATM   24  O   UNL     1      -8.691   7.980  71.507  1.00  0.00    -0.121 OA 
ENDBRANCH  20  21
ENDBRANCH  19  20
ENDBRANCH  17  18
ENDBRANCH  16  17
ENDBRANCH  14  15
ENDBRANCH  13  14
ENDBRANCH  11  12
ENDBRANCH  10  11
ENDBRANCH   8   9
ENDBRANCH   7   8
ENDBRANCH   5   6
ENDBRANCH   4   5
ENDBRANCH   2   3
TORSDOF 13
ENDMDL
MODEL      157
REMARK 921   NORMALIZED FREE ENERGY PREDICTED BY IDOCK:   -4.32 KCAL/MOL
REMARK 922        TOTAL FREE ENERGY PREDICTED BY IDOCK:  -10.37 KCAL/MOL
REMARK 923 INTER-LIGAND FREE ENERGY PREDICTED BY IDOCK:   -8.09 KCAL/MOL
REMARK 924 INTRA-LIGAND FREE ENERGY PREDICTED BY IDOCK:   -2.29 KCAL/MOL
REMARK 927      BINDING AFFINITY PREDICTED BY RF-SCORE:    0.00 PKD
ROOT
HETATM    1  C   UNL     1      -9.865   9.437  66.005  1.00  0.00    -0.366 C  
HETATM    2  C   UNL     1      -8.648   8.744  66.595  1.00  0.00    -0.120 C  
ENDROOT
BRANCH   2   3
HETATM    3  C   UNL     1      -8.398   9.134  68.024  1.00  0.00    -0.120 C  
HETATM    4  C   UNL     1      -8.578   8.338  69.092  1.00  0.00    -0.138 C  
BRANCH   4   5
HETATM    5  C   UNL     1      -9.148   6.948  69.056  1.00  0.00    -0.138 C  
BRANCH   5   6
HETATM    6  C   UNL     1     -10.651   6.959  68.981  1.00  0.00    -0.240 C  
HETATM    7  C   UNL     1     -11.497   6.552  69.944  1.00  0.00    -0.467 C  
BRANCH   7   8
HETATM    8  C   UNL     1     -11.073   5.979  71.264  1.00  0.00    -0.337 C  
BRANCH   8   9
HETATM    9  C   UNL     1     -10.729   7.039  72.268  1.00  0.00    -0.250 C  
HETATM   10  C   UNL     1     -11.459   8.128  72.565  1.00  0.00    -0.470 C  
BRANCH  10  11
HETATM   11  C   UNL     1     -12.813   8.488  72.017  1.00  0.00    -0.414 C  
BRANCH  11  12
HETATM   12  C   UNL     1     -13.066   9.971  71.989  1.00  0.00    -0.541 C  
HETATM   13  C   UNL     1     -12.491  10.868  71.174  1.00  0.00    -0.511 C  
BRANCH  13  14
HETATM   14  C   UNL     1     -11.421  10.569  70.177  1.00  0.00    -0.405 C  
BRANCH  14  15
HETATM   15  C   UNL     1     -11.860  10.789  68.756  1.00  0.00    -0.250 C  
HETATM   16  C   UNL     1     -11.619  11.925  68.078  1.00  0.00    -0.401 C  
BRANCH  16  17
HETATM   17  C   UNL     1     -10.944  13.128  68.666  1.00  0.00    -0.296 C  
BRANCH  17  18
HETATM   18  C   UNL     1     -11.893  14.259  68.953  1.00  0.00    -0.372 C  
HETATM   19  C   UNL     1     -11.657  15.524  68.559  1.00  0.00    -0.379 C  
BRANCH  19  20
HETATM   20  C   UNL     1     -10.421  15.893  67.784  1.00  0.00    -0.287 C  
BRANCH  20  21
HETATM   21  C   UNL     1     -10.648  16.162  66.301  1.00  0.00    -0.276 C  
HETATM   22  C   UNL     1     -10.289  17.602  66.003  1.00  0.00    -0.304 C  
HETATM   23  O   UNL     1     -10.936  18.094  64.919  1.00  0.00    -0.718 OA 
HETATM   24  O   UNL     1      -9.487  18.270  66.631  1.00  0.00    -0.289 OA 
ENDBRANCH  20  21
ENDBRANCH  19  20
ENDBRANCH  17  18
ENDBRANCH  16  17
ENDBRANCH  14  15
ENDBRANCH  13  14
ENDBRANCH  11  12
ENDBRANCH  10  11
ENDBRANCH   8   9
ENDBRANCH   7   8
ENDBRANCH   5   6
ENDBRANCH   4   5
ENDBRANCH   2   3
TORSDOF 13
ENDMDL
MODEL      158
REMARK 921   NORMALIZED FREE ENERGY PREDICTED BY IDOCK:   -4.31 KCAL/MOL
REMARK 922        TOTAL FREE ENERGY PREDICTED BY IDOCK:  -10.37 KCAL/MOL
REMARK 923 INTER-LIGAND FREE ENERGY PREDICTED BY IDOCK:   -7.86 KCAL/MOL
REMARK 924 INTRA-LIGAND FREE ENERGY PREDICTED BY IDOCK:   -2.51 KCAL/MOL
REMARK 927      BINDING AFFINITY PREDICTED BY RF-SCORE:    0.00 PKD
ROOT
HETATM    1  C   UNL     1     -11.245   6.434  68.855  1.00  0.00    -0.385 C  
HETATM    2  C   UNL     1     -11.085   6.118  70.333  1.00  0.00    -0.420 C  
ENDROOT
BRANCH   2   3
HETATM    3  C   UNL     1     -12.164   6.736  71.176  1.00  0.00    -0.413 C  
HETATM    4  C   UNL     1     -12.229   8.031  71.529  1.00  0.00    -0.328 C  
BRANCH   4   5
HETATM    5  C   UNL     1     -11.189   9.072  71.225  1.00  0.00    -0.385 C  
BRANCH   5   6
HETATM    6  C   UNL     1      -9.907   8.819  71.971  1.00  0.00    -0.376 C  
HETATM    7  C   UNL     1      -8.685   8.685  71.428  1.00  0.00    -0.262 C  
BRANCH   7   8
HETATM    8  C   UNL     1      -8.397   8.735  69.956  1.00  0.00    -0.127 C  
BRANCH   8   9
HETATM    9  C   UNL     1      -8.141  10.130  69.466  1.00  0.00    -0.176 C  
HETATM   10  C   UNL     1      -8.816  10.777  68.501  1.00  0.00    -0.149 C  
BRANCH  10  11
HETATM   11  C   UNL     1     -10.022  10.281  67.750  1.00  0.00    -0.203 C  
BRANCH  11  12
HETATM   12  C   UNL     1     -11.213  11.191  67.872  1.00  0.00    -0.365 C  
HETATM   13  C   UNL     1     -11.540  12.199  67.048  1.00  0.00    -0.406 C  
BRANCH  13  14
HETATM   14  C   UNL     1     -10.731  12.659  65.881  1.00  0.00    -0.293 C  
BRANCH  14  15
HETATM   15  C   UNL     1     -11.424  13.712  65.061  1.00  0.00    -0.338 C  
HETATM   16  C   UNL     1     -10.989  14.981  64.971  1.00  0.00    -0.436 C  
BRANCH  16  17
HETATM   17  C   UNL     1      -9.805  15.518  65.718  1.00  0.00    -0.392 C  
BRANCH  17  18
HETATM   18  C   UNL     1     -10.079  16.831  66.398  1.00  0.00    -0.327 C  
HETATM   19  C   UNL     1     -10.439  16.918  67.692  1.00  0.00    -0.332 C  
BRANCH  19  20
HETATM   20  C   UNL     1     -10.581  15.695  68.558  1.00  0.00    -0.256 C  
BRANCH  20  21
HETATM   21  C   UNL     1     -12.014  15.327  68.923  1.00  0.00    -0.292 C  
HETATM   22  C   UNL     1     -12.191  15.469  70.419  1.00  0.00    -0.406 C  
HETATM   23  O   UNL     1     -13.181  14.685  70.911  1.00  0.00    -0.368 OA 
HETATM   24  O   UNL     1     -11.551  16.219  71.133  1.00  0.00    -0.427 OA 
ENDBRANCH  20  21
ENDBRANCH  19  20
ENDBRANCH  17  18
ENDBRANCH  16  17
ENDBRANCH  14  15
ENDBRANCH  13  14
ENDBRANCH  11  12
ENDBRANCH  10  11
ENDBRANCH   8   9
ENDBRANCH   7   8
ENDBRANCH   5   6
ENDBRANCH   4   5
ENDBRANCH   2   3
TORSDOF 13
ENDMDL
MODEL      159
REMARK 921   NORMALIZED FREE ENERGY PREDICTED BY IDOCK:   -4.30 KCAL/MOL
REMARK 922        TOTAL FREE ENERGY PREDICTED BY IDOCK:  -10.35 KCAL/MOL
REMARK 923 INTER-LIGAND FREE ENERGY PREDICTED BY IDOCK:   -8.09 KCAL/MOL
REMARK 924 INTRA-LIGAND FREE ENERGY PREDICTED BY IDOCK:   -2.26 KCAL/MOL
REMARK 927      BINDING AFFINITY PREDICTED BY RF-SCORE:    0.00 PKD
ROOT
HETATM    1  C   UNL     1     -14.172   7.425  71.353  1.00  0.00    -0.508 C  
HETATM    2  C   UNL     1     -13.039   8.409  71.593  1.00  0.00    -0.355 C  
ENDROOT
BRANCH   2   3
HETATM    3  C   UNL     1     -11.711   7.884  71.123  1.00  0.00    -0.306 C  
HETATM    4  C   UNL     1     -10.678   8.639  70.713  1.00  0.00    -0.260 C  
BRANCH   4   5
HETATM    5  C   UNL     1     -10.695  10.135  70.563  1.00  0.00    -0.295 C  
BRANCH   5   6
HETATM    6  C   UNL     1     -11.562  10.574  69.415  1.00  0.00    -0.318 C  
HETATM    7  C   UNL     1     -11.177  10.702  68.133  1.00  0.00    -0.366 C  
BRANCH   7   8
HETATM    8  C   UNL     1      -9.784  10.453  67.634  1.00  0.00    -0.191 C  
BRANCH   8   9
HETATM    9  C   UNL     1      -9.742   9.442  66.526  1.00  0.00    -0.299 C  
HETATM   10  C   UNL     1      -9.590   9.695  65.215  1.00  0.00    -0.347 C  
BRANCH  10  11
HETATM   11  C   UNL     1      -9.355  11.035  64.572  1.00  0.00    -0.227 C  
BRANCH  11  12
HETATM   12  C   UNL     1     -10.361  11.366  63.505  1.00  0.00    -0.476 C  
HETATM   13  C   UNL     1     -11.569  11.922  63.686  1.00  0.00    -0.559 C  
BRANCH  13  14
HETATM   14  C   UNL     1     -12.180  12.253  65.007  1.00  0.00    -0.374 C  
BRANCH  14  15
HETATM   15  C   UNL     1     -12.514  13.711  65.154  1.00  0.00    -0.488 C  
HETATM   16  C   UNL     1     -11.892  14.526  66.024  1.00  0.00    -0.339 C  
BRANCH  16  17
HETATM   17  C   UNL     1     -10.840  14.075  66.993  1.00  0.00    -0.291 C  
BRANCH  17  18
HETATM   18  C   UNL     1      -9.440  14.361  66.523  1.00  0.00    -0.309 C  
HETATM   19  C   UNL     1      -8.850  15.559  66.686  1.00  0.00    -0.325 C  
BRANCH  19  20
HETATM   20  C   UNL     1      -9.553  16.702  67.367  1.00  0.00    -0.242 C  
BRANCH  20  21
HETATM   21  C   UNL     1      -8.637  17.803  67.888  1.00  0.00    -0.250 C  
HETATM   22  C   UNL     1      -8.456  18.844  66.804  1.00  0.00    -0.298 C  
HETATM   23  O   UNL     1      -7.297  19.536  66.925  1.00  0.00    -0.215 OA 
HETATM   24  O   UNL     1      -9.257  19.081  65.919  1.00  0.00    -0.450 OA 
ENDBRANCH  20  21
ENDBRANCH  19  20
ENDBRANCH  17  18
ENDBRANCH  16  17
ENDBRANCH  14  15
ENDBRANCH  13  14
ENDBRANCH  11  12
ENDBRANCH  10  11
ENDBRANCH   8   9
ENDBRANCH   7   8
ENDBRANCH   5   6
ENDBRANCH   4   5
ENDBRANCH   2   3
TORSDOF 13
ENDMDL
MODEL      160
REMARK 921   NORMALIZED FREE ENERGY PREDICTED BY IDOCK:   -4.28 KCAL/MOL
REMARK 922        TOTAL FREE ENERGY PREDICTED BY IDOCK:  -10.31 KCAL/MOL
REMARK 923 INTER-LIGAND FREE ENERGY PREDICTED BY IDOCK:   -7.83 KCAL/MOL
REMARK 924 INTRA-LIGAND FREE ENERGY PREDICTED BY IDOCK:   -2.48 KCAL/MOL
REMARK 927      BINDING AFFINITY PREDICTED BY RF-SCORE:    0.00 PKD
ROOT
HETATM    1  C   UNL     1     -10.112   9.926  65.510  1.00  0.00    -0.297 C  
HETATM    2  C   UNL     1      -8.720   9.318  65.470  1.00  0.00    -0.204 C  
ENDROOT
BRANCH   2   3
HETATM    3  C   UNL     1      -8.187   9.009  66.841  1.00  0.00    -0.116 C  
HETATM    4  C   UNL     1      -8.359   7.851  67.500  1.00  0.00    -0.124 C  
BRANCH   4   5
HETATM    5  C   UNL     1      -9.191   6.692  67.026  1.00  0.00    -0.147 C  
BRANCH   5   6
HETATM    6  C   UNL     1     -10.621   6.806  67.479  1.00  0.00    -0.348 C  
HETATM    7  C   UNL     1     -11.156   6.236  68.573  1.00  0.00    -0.397 C  
BRANCH   7   8
HETATM    8  C   UNL     1     -10.406   5.350  69.523  1.00  0.00    -0.350 C  
BRANCH   8   9
HETATM    9  C   UNL     1      -9.577   6.127  70.503  1.00  0.00    -0.192 C  
HETATM   10  C   UNL     1      -9.996   6.653  71.667  1.00  0.00    -0.187 C  
BRANCH  10  11
HETATM   11  C   UNL     1     -11.362   6.518  72.283  1.00  0.00    -0.318 C  
BRANCH  11  12
HETATM   12  C   UNL     1     -12.421   7.298  71.553  1.00  0.00    -0.408 C  
HETATM   13  C   UNL     1     -12.323   8.559  71.104  1.00  0.00    -0.230 C  
BRANCH  13  14
HETATM   14  C   UNL     1     -11.153   9.463  71.314  1.00  0.00    -0.446 C  
BRANCH  14  15
HETATM   15  C   UNL     1     -10.373   9.720  70.056  1.00  0.00    -0.307 C  
HETATM   16  C   UNL     1     -10.661  10.715  69.199  1.00  0.00    -0.264 C  
BRANCH  16  17
HETATM   17  C   UNL     1     -11.825  11.648  69.356  1.00  0.00    -0.408 C  
BRANCH  17  18
HETATM   18  C   UNL     1     -11.448  13.096  69.208  1.00  0.00    -0.348 C  
HETATM   19  C   UNL     1     -11.586  13.769  68.051  1.00  0.00    -0.368 C  
BRANCH  19  20
HETATM   20  C   UNL     1     -12.147  13.114  66.817  1.00  0.00    -0.389 C  
BRANCH  20  21
HETATM   21  C   UNL     1     -11.492  13.539  65.509  1.00  0.00    -0.320 C  
HETATM   22  C   UNL     1     -12.160  12.806  64.365  1.00  0.00    -0.416 C  
HETATM   23  O   UNL     1     -11.356  12.673  63.282  1.00  0.00    -0.460 OA 
HETATM   24  O   UNL     1     -13.305  12.392  64.370  1.00  0.00    -0.789 OA 
ENDBRANCH  20  21
ENDBRANCH  19  20
ENDBRANCH  17  18
ENDBRANCH  16  17
ENDBRANCH  14  15
ENDBRANCH  13  14
ENDBRANCH  11  12
ENDBRANCH  10  11
ENDBRANCH   8   9
ENDBRANCH   7   8
ENDBRANCH   5   6
ENDBRANCH   4   5
ENDBRANCH   2   3
TORSDOF 13
ENDMDL
MODEL      161
REMARK 921   NORMALIZED FREE ENERGY PREDICTED BY IDOCK:   -4.28 KCAL/MOL
REMARK 922        TOTAL FREE ENERGY PREDICTED BY IDOCK:  -10.31 KCAL/MOL
REMARK 923 INTER-LIGAND FREE ENERGY PREDICTED BY IDOCK:   -7.93 KCAL/MOL
REMARK 924 INTRA-LIGAND FREE ENERGY PREDICTED BY IDOCK:   -2.38 KCAL/MOL
REMARK 927      BINDING AFFINITY PREDICTED BY RF-SCORE:    0.00 PKD
ROOT
HETATM    1  C   UNL     1      -7.447   7.076  68.531  1.00  0.00    -0.102 C  
HETATM    2  C   UNL     1      -8.476   7.229  67.423  1.00  0.00    -0.119 C  
ENDROOT
BRANCH   2   3
HETATM    3  C   UNL     1      -9.229   5.957  67.156  1.00  0.00    -0.116 C  
HETATM    4  C   UNL     1     -10.431   5.642  67.669  1.00  0.00    -0.284 C  
BRANCH   4   5
HETATM    5  C   UNL     1     -11.193   6.461  68.673  1.00  0.00    -0.338 C  
BRANCH   5   6
HETATM    6  C   UNL     1     -11.147   5.849  70.047  1.00  0.00    -0.411 C  
HETATM    7  C   UNL     1     -10.660   6.429  71.158  1.00  0.00    -0.282 C  
BRANCH   7   8
HETATM    8  C   UNL     1     -10.042   7.795  71.205  1.00  0.00    -0.206 C  
BRANCH   8   9
HETATM    9  C   UNL     1     -11.008   8.849  71.662  1.00  0.00    -0.415 C  
HETATM   10  C   UNL     1     -11.552   9.819  70.908  1.00  0.00    -0.441 C  
BRANCH  10  11
HETATM   11  C   UNL     1     -11.376  10.022  69.427  1.00  0.00    -0.192 C  
BRANCH  11  12
HETATM   12  C   UNL     1     -11.884  11.353  68.946  1.00  0.00    -0.413 C  
HETATM   13  C   UNL     1     -11.273  12.181  68.084  1.00  0.00    -0.320 C  
BRANCH  13  14
HETATM   14  C   UNL     1      -9.922  11.966  67.488  1.00  0.00    -0.197 C  
BRANCH  14  15
HETATM   15  C   UNL     1      -9.772  10.621  66.834  1.00  0.00    -0.213 C  
HETATM   16  C   UNL     1      -9.920  10.424  65.512  1.00  0.00    -0.348 C  
BRANCH  16  17
HETATM   17  C   UNL     1     -10.309  11.498  64.541  1.00  0.00    -0.354 C  
BRANCH  17  18
HETATM   18  C   UNL     1     -11.743  11.404  64.096  1.00  0.00    -0.036 C  
HETATM   19  C   UNL     1     -12.644  12.373  64.337  1.00  0.00    -0.489 C  
BRANCH  19  20
HETATM   20  C   UNL     1     -12.270  13.638  65.063  1.00  0.00    -0.450 C  
BRANCH  20  21
HETATM   21  C   UNL     1     -12.128  14.870  64.179  1.00  0.00    -0.289 C  
HETATM   22  C   UNL     1     -11.022  15.745  64.728  1.00  0.00    -0.393 C  
HETATM   23  O   UNL     1     -11.163  17.050  64.392  1.00  0.00    -1.167 OA 
HETATM   24  O   UNL     1     -10.074  15.348  65.383  1.00  0.00    -0.356 OA 
ENDBRANCH  20  21
ENDBRANCH  19  20
ENDBRANCH  17  18
ENDBRANCH  16  17
ENDBRANCH  14  15
ENDBRANCH  13  14
ENDBRANCH  11  12
ENDBRANCH  10  11
ENDBRANCH   8   9
ENDBRANCH   7   8
ENDBRANCH   5   6
ENDBRANCH   4   5
ENDBRANCH   2   3
TORSDOF 13
ENDMDL
MODEL      162
REMARK 921   NORMALIZED FREE ENERGY PREDICTED BY IDOCK:   -4.28 KCAL/MOL
REMARK 922        TOTAL FREE ENERGY PREDICTED BY IDOCK:  -10.30 KCAL/MOL
REMARK 923 INTER-LIGAND FREE ENERGY PREDICTED BY IDOCK:   -7.31 KCAL/MOL
REMARK 924 INTRA-LIGAND FREE ENERGY PREDICTED BY IDOCK:   -2.99 KCAL/MOL
REMARK 927      BINDING AFFINITY PREDICTED BY RF-SCORE:    0.00 PKD
ROOT
HETATM    1  C   UNL     1      -7.502   8.988  70.814  1.00  0.00    -0.121 C  
HETATM    2  C   UNL     1      -8.978   9.277  70.599  1.00  0.00    -0.296 C  
ENDROOT
BRANCH   2   3
HETATM    3  C   UNL     1      -9.819   8.032  70.630  1.00  0.00    -0.192 C  
HETATM    4  C   UNL     1     -10.986   7.898  71.283  1.00  0.00    -0.266 C  
BRANCH   4   5
HETATM    5  C   UNL     1     -11.611   8.934  72.175  1.00  0.00    -0.400 C  
BRANCH   5   6
HETATM    6  C   UNL     1     -12.891   9.473  71.597  1.00  0.00    -0.483 C  
HETATM    7  C   UNL     1     -13.002  10.492  70.726  1.00  0.00    -0.413 C  
BRANCH   7   8
HETATM    8  C   UNL     1     -11.848  11.293  70.202  1.00  0.00    -0.449 C  
BRANCH   8   9
HETATM    9  C   UNL     1     -12.096  12.772  70.270  1.00  0.00    -0.373 C  
HETATM   10  C   UNL     1     -11.795  13.679  69.326  1.00  0.00    -0.395 C  
BRANCH  10  11
HETATM   11  C   UNL     1     -11.214  13.411  67.964  1.00  0.00    -0.298 C  
BRANCH  11  12
HETATM   12  C   UNL     1     -12.155  13.752  66.840  1.00  0.00    -0.454 C  
HETATM   13  C   UNL     1     -11.885  13.706  65.526  1.00  0.00    -0.382 C  
BRANCH  13  14
HETATM   14  C   UNL     1     -10.558  13.377  64.927  1.00  0.00    -0.398 C  
BRANCH  14  15
HETATM   15  C   UNL     1     -10.575  12.109  64.118  1.00  0.00    -0.403 C  
HETATM   16  C   UNL     1     -10.114  10.934  64.580  1.00  0.00    -0.391 C  
BRANCH  16  17
HETATM   17  C   UNL     1      -9.473  10.752  65.924  1.00  0.00    -0.236 C  
BRANCH  17  18
HETATM   18  C   UNL     1     -10.393  10.133  66.940  1.00  0.00    -0.298 C  
HETATM   19  C   UNL     1     -10.390   8.817  67.217  1.00  0.00    -0.360 C  
BRANCH  19  20
HETATM   20  C   UNL     1      -9.446   7.866  66.531  1.00  0.00    -0.277 C  
BRANCH  20  21
HETATM   21  C   UNL     1      -8.291   7.372  67.393  1.00  0.00    -0.116 C  
HETATM   22  C   UNL     1      -8.513   5.911  67.720  1.00  0.00    -0.107 C  
HETATM   23  O   UNL     1      -7.900   5.526  68.866  1.00  0.00    -0.092 OA 
HETATM   24  O   UNL     1      -9.145   5.127  67.035  1.00  0.00    -0.112 OA 
ENDBRANCH  20  21
ENDBRANCH  19  20
ENDBRANCH  17  18
ENDBRANCH  16  17
ENDBRANCH  14  15
ENDBRANCH  13  14
ENDBRANCH  11  12
ENDBRANCH  10  11
ENDBRANCH   8   9
ENDBRANCH   7   8
ENDBRANCH   5   6
ENDBRANCH   4   5
ENDBRANCH   2   3
TORSDOF 13
ENDMDL
MODEL      163
REMARK 921   NORMALIZED FREE ENERGY PREDICTED BY IDOCK:   -4.26 KCAL/MOL
REMARK 922        TOTAL FREE ENERGY PREDICTED BY IDOCK:  -10.28 KCAL/MOL
REMARK 923 INTER-LIGAND FREE ENERGY PREDICTED BY IDOCK:   -7.06 KCAL/MOL
REMARK 924 INTRA-LIGAND FREE ENERGY PREDICTED BY IDOCK:   -3.22 KCAL/MOL
REMARK 927      BINDING AFFINITY PREDICTED BY RF-SCORE:    0.00 PKD
ROOT
HETATM    1  C   UNL     1     -12.189  12.926  63.104  1.00  0.00    -0.315 C  
HETATM    2  C   UNL     1     -12.416  12.258  64.450  1.00  0.00    -0.484 C  
ENDROOT
BRANCH   2   3
HETATM    3  C   UNL     1     -12.594  13.251  65.564  1.00  0.00    -0.505 C  
HETATM    4  C   UNL     1     -11.598  13.820  66.265  1.00  0.00    -0.369 C  
BRANCH   4   5
HETATM    5  C   UNL     1     -10.137  13.496  66.126  1.00  0.00    -0.307 C  
BRANCH   5   6
HETATM    6  C   UNL     1      -9.605  12.773  67.332  1.00  0.00    -0.199 C  
HETATM    7  C   UNL     1      -8.739  13.266  68.236  1.00  0.00    -0.168 C  
BRANCH   7   8
HETATM    8  C   UNL     1      -8.126  14.634  68.170  1.00  0.00    -0.137 C  
BRANCH   8   9
HETATM    9  C   UNL     1      -7.211  14.911  69.326  1.00  0.00    -0.172 C  
HETATM   10  C   UNL     1      -6.522  16.042  69.549  1.00  0.00    -0.187 C  
BRANCH  10  11
HETATM   11  C   UNL     1      -6.569  17.307  68.735  1.00  0.00    -0.197 C  
BRANCH  11  12
HETATM   12  C   UNL     1      -6.114  17.116  67.314  1.00  0.00    -0.181 C  
HETATM   13  C   UNL     1      -6.762  17.507  66.205  1.00  0.00    -0.309 C  
BRANCH  13  14
HETATM   14  C   UNL     1      -8.110  18.147  66.171  1.00  0.00    -0.198 C  
BRANCH  14  15
HETATM   15  C   UNL     1      -9.217  17.177  65.869  1.00  0.00    -0.039 C  
HETATM   16  C   UNL     1     -10.350  17.103  66.590  1.00  0.00    -0.310 C  
BRANCH  16  17
HETATM   17  C   UNL     1     -10.624  17.928  67.811  1.00  0.00    -0.399 C  
BRANCH  17  18
HETATM   18  C   UNL     1     -10.051  17.335  69.069  1.00  0.00    -0.302 C  
HETATM   19  C   UNL     1     -10.677  16.372  69.769  1.00  0.00    -0.324 C  
BRANCH  19  20
HETATM   20  C   UNL     1     -12.001  15.807  69.329  1.00  0.00    -0.305 C  
BRANCH  20  21
HETATM   21  C   UNL     1     -12.356  14.454  69.932  1.00  0.00    -0.365 C  
HETATM   22  C   UNL     1     -13.316  14.664  71.082  1.00  0.00    -0.373 C  
HETATM   23  O   UNL     1     -13.271  13.667  71.998  1.00  0.00    -0.377 OA 
HETATM   24  O   UNL     1     -14.083  15.604  71.192  1.00  0.00    -0.539 OA 
ENDBRANCH  20  21
ENDBRANCH  19  20
ENDBRANCH  17  18
ENDBRANCH  16  17
ENDBRANCH  14  15
ENDBRANCH  13  14
ENDBRANCH  11  12
ENDBRANCH  10  11
ENDBRANCH   8   9
ENDBRANCH   7   8
ENDBRANCH   5   6
ENDBRANCH   4   5
ENDBRANCH   2   3
TORSDOF 13
ENDMDL
MODEL      164
REMARK 921   NORMALIZED FREE ENERGY PREDICTED BY IDOCK:   -4.26 KCAL/MOL
REMARK 922        TOTAL FREE ENERGY PREDICTED BY IDOCK:  -10.27 KCAL/MOL
REMARK 923 INTER-LIGAND FREE ENERGY PREDICTED BY IDOCK:   -8.13 KCAL/MOL
REMARK 924 INTRA-LIGAND FREE ENERGY PREDICTED BY IDOCK:   -2.14 KCAL/MOL
REMARK 927      BINDING AFFINITY PREDICTED BY RF-SCORE:    0.00 PKD
ROOT
HETATM    1  C   UNL     1     -11.149   6.094  69.006  1.00  0.00    -0.437 C  
HETATM    2  C   UNL     1     -10.314   7.363  68.954  1.00  0.00    -0.214 C  
ENDROOT
BRANCH   2   3
HETATM    3  C   UNL     1     -10.466   8.100  67.653  1.00  0.00    -0.300 C  
HETATM    4  C   UNL     1     -10.307   9.424  67.485  1.00  0.00    -0.314 C  
BRANCH   4   5
HETATM    5  C   UNL     1     -10.042  10.416  68.582  1.00  0.00    -0.188 C  
BRANCH   5   6
HETATM    6  C   UNL     1     -11.317  10.959  69.168  1.00  0.00    -0.350 C  
HETATM    7  C   UNL     1     -11.956  12.078  68.782  1.00  0.00    -0.299 C  
BRANCH   7   8
HETATM    8  C   UNL     1     -11.474  13.003  67.703  1.00  0.00    -0.369 C  
BRANCH   8   9
HETATM    9  C   UNL     1     -12.517  13.257  66.655  1.00  0.00    -0.129 C  
HETATM   10  C   UNL     1     -12.329  13.854  65.465  1.00  0.00    -0.506 C  
BRANCH  10  11
HETATM   11  C   UNL     1     -11.025  14.330  64.887  1.00  0.00    -0.413 C  
BRANCH  11  12
HETATM   12  C   UNL     1     -10.931  15.828  64.789  1.00  0.00    -0.410 C  
HETATM   13  C   UNL     1     -10.307  16.651  65.647  1.00  0.00    -0.310 C  
BRANCH  13  14
HETATM   14  C   UNL     1      -9.642  16.233  66.916  1.00  0.00    -0.244 C  
BRANCH  14  15
HETATM   15  C   UNL     1     -10.548  16.321  68.113  1.00  0.00    -0.307 C  
HETATM   16  C   UNL     1     -10.636  17.412  68.893  1.00  0.00    -0.243 C  
BRANCH  16  17
HETATM   17  C   UNL     1      -9.804  18.646  68.709  1.00  0.00    -0.422 C  
BRANCH  17  18
HETATM   18  C   UNL     1     -10.418  19.639  67.761  1.00  0.00    -0.573 C  
HETATM   19  C   UNL     1      -9.682  20.435  66.964  1.00  0.00    -0.588 C  
BRANCH  19  20
HETATM   20  C   UNL     1      -8.178  20.375  66.958  1.00  0.00    -0.349 C  
BRANCH  20  21
HETATM   21  C   UNL     1      -7.576  19.417  65.938  1.00  0.00    -0.286 C  
HETATM   22  C   UNL     1      -6.547  20.159  65.113  1.00  0.00    -0.298 C  
HETATM   23  O   UNL     1      -6.359  19.615  63.887  1.00  0.00    -0.329 OA 
HETATM   24  O   UNL     1      -5.915  21.130  65.490  1.00  0.00    -0.250 OA 
ENDBRANCH  20  21
ENDBRANCH  19  20
ENDBRANCH  17  18
ENDBRANCH  16  17
ENDBRANCH  14  15
ENDBRANCH  13  14
ENDBRANCH  11  12
ENDBRANCH  10  11
ENDBRANCH   8   9
ENDBRANCH   7   8
ENDBRANCH   5   6
ENDBRANCH   4   5
ENDBRANCH   2   3
TORSDOF 13
ENDMDL
MODEL      165
REMARK 921   NORMALIZED FREE ENERGY PREDICTED BY IDOCK:   -4.26 KCAL/MOL
REMARK 922        TOTAL FREE ENERGY PREDICTED BY IDOCK:  -10.27 KCAL/MOL
REMARK 923 INTER-LIGAND FREE ENERGY PREDICTED BY IDOCK:   -8.36 KCAL/MOL
REMARK 924 INTRA-LIGAND FREE ENERGY PREDICTED BY IDOCK:   -1.91 KCAL/MOL
REMARK 927      BINDING AFFINITY PREDICTED BY RF-SCORE:    0.00 PKD
ROOT
HETATM    1  C   UNL     1      -9.867   6.653  73.661  1.00  0.00    -0.248 C  
HETATM    2  C   UNL     1     -10.487   7.920  73.096  1.00  0.00    -0.348 C  
ENDROOT
BRANCH   2   3
HETATM    3  C   UNL     1      -9.760   8.426  71.882  1.00  0.00    -0.331 C  
HETATM    4  C   UNL     1     -10.225   8.382  70.622  1.00  0.00    -0.222 C  
BRANCH   4   5
HETATM    5  C   UNL     1     -11.511   7.737  70.189  1.00  0.00    -0.055 C  
BRANCH   5   6
HETATM    6  C   UNL     1     -11.282   6.383  69.574  1.00  0.00    -0.477 C  
HETATM    7  C   UNL     1     -11.054   6.129  68.274  1.00  0.00    -0.336 C  
BRANCH   7   8
HETATM    8  C   UNL     1     -11.022   7.173  67.196  1.00  0.00    -0.342 C  
BRANCH   8   9
HETATM    9  C   UNL     1      -9.630   7.640  66.889  1.00  0.00    -0.249 C  
HETATM   10  C   UNL     1      -9.289   8.744  66.203  1.00  0.00    -0.297 C  
BRANCH  10  11
HETATM   11  C   UNL     1     -10.217   9.795  65.656  1.00  0.00    -0.178 C  
BRANCH  11  12
HETATM   12  C   UNL     1      -9.727  10.409  64.373  1.00  0.00    -0.396 C  
HETATM   13  C   UNL     1     -10.418  11.220  63.557  1.00  0.00    -0.457 C  
BRANCH  13  14
HETATM   14  C   UNL     1     -11.849  11.609  63.732  1.00  0.00    -0.382 C  
BRANCH  14  15
HETATM   15  C   UNL     1     -12.088  13.080  63.537  1.00  0.00    -0.617 C  
HETATM   16  C   UNL     1     -12.288  13.935  64.554  1.00  0.00    -0.408 C  
BRANCH  16  17
HETATM   17  C   UNL     1     -12.360  13.526  65.995  1.00  0.00    -0.486 C  
BRANCH  17  18
HETATM   18  C   UNL     1     -11.007  13.343  66.627  1.00  0.00    -0.297 C  
HETATM   19  C   UNL     1     -10.396  14.314  67.330  1.00  0.00    -0.259 C  
BRANCH  19  20
HETATM   20  C   UNL     1     -11.038  15.659  67.545  1.00  0.00    -0.289 C  
BRANCH  20  21
HETATM   21  C   UNL     1     -10.087  16.846  67.468  1.00  0.00    -0.282 C  
HETATM   22  C   UNL     1      -9.799  17.151  66.014  1.00  0.00    -0.219 C  
HETATM   23  O   UNL     1      -8.610  17.775  65.829  1.00  0.00    -0.510 OA 
HETATM   24  O   UNL     1     -10.546  16.903  65.084  1.00  0.00    -0.679 OA 
ENDBRANCH  20  21
ENDBRANCH  19  20
ENDBRANCH  17  18
ENDBRANCH  16  17
ENDBRANCH  14  15
ENDBRANCH  13  14
ENDBRANCH  11  12
ENDBRANCH  10  11
ENDBRANCH   8   9
ENDBRANCH   7   8
ENDBRANCH   5   6
ENDBRANCH   4   5
ENDBRANCH   2   3
TORSDOF 13
ENDMDL
MODEL      166
REMARK 921   NORMALIZED FREE ENERGY PREDICTED BY IDOCK:   -4.25 KCAL/MOL
REMARK 922        TOTAL FREE ENERGY PREDICTED BY IDOCK:  -10.26 KCAL/MOL
REMARK 923 INTER-LIGAND FREE ENERGY PREDICTED BY IDOCK:   -7.97 KCAL/MOL
REMARK 924 INTRA-LIGAND FREE ENERGY PREDICTED BY IDOCK:   -2.29 KCAL/MOL
REMARK 927      BINDING AFFINITY PREDICTED BY RF-SCORE:    0.00 PKD
ROOT
HETATM    1  C   UNL     1      -7.053  16.592  66.845  1.00  0.00    -0.264 C  
HETATM    2  C   UNL     1      -7.989  17.702  66.395  1.00  0.00    -0.309 C  
ENDROOT
BRANCH   2   3
HETATM    3  C   UNL     1      -8.303  18.673  67.496  1.00  0.00    -0.279 C  
HETATM    4  C   UNL     1      -9.445  18.703  68.206  1.00  0.00    -0.369 C  
BRANCH   4   5
HETATM    5  C   UNL     1     -10.645  17.832  67.963  1.00  0.00    -0.372 C  
BRANCH   5   6
HETATM    6  C   UNL     1     -10.443  16.438  68.491  1.00  0.00    -0.291 C  
HETATM    7  C   UNL     1     -10.585  15.296  67.795  1.00  0.00    -0.266 C  
BRANCH   7   8
HETATM    8  C   UNL     1     -11.007  15.223  66.357  1.00  0.00    -0.299 C  
BRANCH   8   9
HETATM    9  C   UNL     1     -12.086  14.206  66.125  1.00  0.00    -0.454 C  
HETATM   10  C   UNL     1     -11.917  12.884  65.955  1.00  0.00    -0.504 C  
BRANCH  10  11
HETATM   11  C   UNL     1     -10.624  12.118  66.033  1.00  0.00    -0.292 C  
BRANCH  11  12
HETATM   12  C   UNL     1     -10.796  10.716  66.552  1.00  0.00    -0.168 C  
HETATM   13  C   UNL     1     -10.786  10.330  67.837  1.00  0.00    -0.337 C  
BRANCH  13  14
HETATM   14  C   UNL     1     -10.526  11.220  69.006  1.00  0.00    -0.221 C  
BRANCH  14  15
HETATM   15  C   UNL     1     -11.760  11.922  69.500  1.00  0.00    -0.410 C  
HETATM   16  C   UNL     1     -12.444  11.532  70.589  1.00  0.00    -0.405 C  
BRANCH  16  17
HETATM   17  C   UNL     1     -12.103  10.321  71.406  1.00  0.00    -0.457 C  
BRANCH  17  18
HETATM   18  C   UNL     1     -13.302   9.480  71.749  1.00  0.00    -0.501 C  
HETATM   19  C   UNL     1     -13.234   8.146  71.904  1.00  0.00    -0.348 C  
BRANCH  19  20
HETATM   20  C   UNL     1     -11.936   7.398  71.758  1.00  0.00    -0.338 C  
BRANCH  20  21
HETATM   21  C   UNL     1     -11.855   6.482  70.542  1.00  0.00    -0.393 C  
HETATM   22  C   UNL     1     -10.813   7.024  69.588  1.00  0.00    -0.247 C  
HETATM   23  O   UNL     1     -11.028   6.650  68.303  1.00  0.00    -0.262 OA 
HETATM   24  O   UNL     1      -9.855   7.704  69.908  1.00  0.00    -0.181 OA 
ENDBRANCH  20  21
ENDBRANCH  19  20
ENDBRANCH  17  18
ENDBRANCH  16  17
ENDBRANCH  14  15
ENDBRANCH  13  14
ENDBRANCH  11  12
ENDBRANCH  10  11
ENDBRANCH   8   9
ENDBRANCH   7   8
ENDBRANCH   5   6
ENDBRANCH   4   5
ENDBRANCH   2   3
TORSDOF 13
ENDMDL
MODEL      167
REMARK 921   NORMALIZED FREE ENERGY PREDICTED BY IDOCK:   -4.25 KCAL/MOL
REMARK 922        TOTAL FREE ENERGY PREDICTED BY IDOCK:  -10.26 KCAL/MOL
REMARK 923 INTER-LIGAND FREE ENERGY PREDICTED BY IDOCK:   -7.60 KCAL/MOL
REMARK 924 INTRA-LIGAND FREE ENERGY PREDICTED BY IDOCK:   -2.65 KCAL/MOL
REMARK 927      BINDING AFFINITY PREDICTED BY RF-SCORE:    0.00 PKD
ROOT
HETATM    1  C   UNL     1     -11.537   5.681  72.590  1.00  0.00    -0.307 C  
HETATM    2  C   UNL     1     -12.074   6.594  71.500  1.00  0.00    -0.406 C  
ENDROOT
BRANCH   2   3
HETATM    3  C   UNL     1     -12.343   7.987  71.994  1.00  0.00    -0.366 C  
HETATM    4  C   UNL     1     -11.536   9.046  71.812  1.00  0.00    -0.444 C  
BRANCH   4   5
HETATM    5  C   UNL     1     -10.180   9.009  71.165  1.00  0.00    -0.363 C  
BRANCH   5   6
HETATM    6  C   UNL     1      -9.103   8.619  72.140  1.00  0.00    -0.301 C  
HETATM    7  C   UNL     1      -8.291   7.552  72.041  1.00  0.00    -0.121 C  
BRANCH   7   8
HETATM    8  C   UNL     1      -8.350   6.537  70.938  1.00  0.00    -0.126 C  
BRANCH   8   9
HETATM    9  C   UNL     1      -7.487   6.909  69.767  1.00  0.00    -0.095 C  
HETATM   10  C   UNL     1      -7.891   7.086  68.498  1.00  0.00    -0.122 C  
BRANCH  10  11
HETATM   11  C   UNL     1      -9.303   7.024  67.980  1.00  0.00    -0.127 C  
BRANCH  11  12
HETATM   12  C   UNL     1      -9.472   7.686  66.640  1.00  0.00    -0.255 C  
HETATM   13  C   UNL     1     -10.069   8.863  66.396  1.00  0.00    -0.333 C  
BRANCH  13  14
HETATM   14  C   UNL     1     -10.753   9.713  67.415  1.00  0.00    -0.308 C  
BRANCH  14  15
HETATM   15  C   UNL     1      -9.849  10.750  68.021  1.00  0.00    -0.180 C  
HETATM   16  C   UNL     1     -10.302  11.880  68.592  1.00  0.00    -0.218 C  
BRANCH  16  17
HETATM   17  C   UNL     1     -11.747  12.276  68.640  1.00  0.00    -0.377 C  
BRANCH  17  18
HETATM   18  C   UNL     1     -11.958  13.763  68.550  1.00  0.00    -0.402 C  
HETATM   19  C   UNL     1     -11.828  14.447  67.399  1.00  0.00    -0.430 C  
BRANCH  19  20
HETATM   20  C   UNL     1     -11.473  13.762  66.106  1.00  0.00    -0.350 C  
BRANCH  20  21
HETATM   21  C   UNL     1     -12.658  13.212  65.322  1.00  0.00    -0.531 C  
HETATM   22  C   UNL     1     -12.152  12.216  64.302  1.00  0.00    -0.375 C  
HETATM   23  O   UNL     1     -12.977  12.086  63.235  1.00  0.00    -0.736 OA 
HETATM   24  O   UNL     1     -11.130  11.561  64.408  1.00  0.00    -0.330 OA 
ENDBRANCH  20  21
ENDBRANCH  19  20
ENDBRANCH  17  18
ENDBRANCH  16  17
ENDBRANCH  14  15
ENDBRANCH  13  14
ENDBRANCH  11  12
ENDBRANCH  10  11
ENDBRANCH   8   9
ENDBRANCH   7   8
ENDBRANCH   5   6
ENDBRANCH   4   5
ENDBRANCH   2   3
TORSDOF 13
ENDMDL
MODEL      168
REMARK 921   NORMALIZED FREE ENERGY PREDICTED BY IDOCK:   -4.25 KCAL/MOL
REMARK 922        TOTAL FREE ENERGY PREDICTED BY IDOCK:  -10.25 KCAL/MOL
REMARK 923 INTER-LIGAND FREE ENERGY PREDICTED BY IDOCK:   -7.49 KCAL/MOL
REMARK 924 INTRA-LIGAND FREE ENERGY PREDICTED BY IDOCK:   -2.75 KCAL/MOL
REMARK 927      BINDING AFFINITY PREDICTED BY RF-SCORE:    0.00 PKD
ROOT
HETATM    1  C   UNL     1     -10.614   5.224  72.807  1.00  0.00    -0.276 C  
HETATM    2  C   UNL     1     -11.049   6.676  72.916  1.00  0.00    -0.263 C  
ENDROOT
BRANCH   2   3
HETATM    3  C   UNL     1      -9.916   7.636  72.683  1.00  0.00    -0.279 C  
HETATM    4  C   UNL     1      -9.968   8.724  71.896  1.00  0.00    -0.401 C  
BRANCH   4   5
HETATM    5  C   UNL     1     -11.135   9.124  71.036  1.00  0.00    -0.374 C  
BRANCH   5   6
HETATM    6  C   UNL     1     -10.729  10.082  69.950  1.00  0.00    -0.328 C  
HETATM    7  C   UNL     1     -11.374  11.210  69.604  1.00  0.00    -0.366 C  
BRANCH   7   8
HETATM    8  C   UNL     1     -12.647  11.691  70.236  1.00  0.00    -0.159 C  
BRANCH   8   9
HETATM    9  C   UNL     1     -12.428  12.856  71.156  1.00  0.00    -0.344 C  
HETATM   10  C   UNL     1     -12.233  14.136  70.796  1.00  0.00    -0.435 C  
BRANCH  10  11
HETATM   11  C   UNL     1     -12.265  14.700  69.401  1.00  0.00    -0.270 C  
BRANCH  11  12
HETATM   12  C   UNL     1     -11.156  15.679  69.132  1.00  0.00    -0.284 C  
HETATM   13  C   UNL     1     -10.059  15.465  68.389  1.00  0.00    -0.215 C  
BRANCH  13  14
HETATM   14  C   UNL     1      -9.693  14.171  67.741  1.00  0.00    -0.223 C  
BRANCH  14  15
HETATM   15  C   UNL     1      -8.760  13.338  68.574  1.00  0.00    -0.059 C  
HETATM   16  C   UNL     1      -8.051  12.308  68.080  1.00  0.00    -0.156 C  
BRANCH  16  17
HETATM   17  C   UNL     1      -8.146  11.825  66.663  1.00  0.00    -0.094 C  
BRANCH  17  18
HETATM   18  C   UNL     1      -8.957  10.567  66.519  1.00  0.00    -0.171 C  
HETATM   19  C   UNL     1     -10.103  10.517  65.817  1.00  0.00    -0.329 C  
BRANCH  19  20
HETATM   20  C   UNL     1     -10.650  11.727  65.108  1.00  0.00    -0.332 C  
BRANCH  20  21
HETATM   21  C   UNL     1     -11.976  12.247  65.651  1.00  0.00    -0.373 C  
HETATM   22  C   UNL     1     -12.525  13.285  64.695  1.00  0.00    -0.349 C  
HETATM   23  O   UNL     1     -13.353  14.172  65.298  1.00  0.00    -0.715 OA 
HETATM   24  O   UNL     1     -12.291  13.331  63.501  1.00  0.00    -0.698 OA 
ENDBRANCH  20  21
ENDBRANCH  19  20
ENDBRANCH  17  18
ENDBRANCH  16  17
ENDBRANCH  14  15
ENDBRANCH  13  14
ENDBRANCH  11  12
ENDBRANCH  10  11
ENDBRANCH   8   9
ENDBRANCH   7   8
ENDBRANCH   5   6
ENDBRANCH   4   5
ENDBRANCH   2   3
TORSDOF 13
ENDMDL
MODEL      169
REMARK 921   NORMALIZED FREE ENERGY PREDICTED BY IDOCK:   -4.24 KCAL/MOL
REMARK 922        TOTAL FREE ENERGY PREDICTED BY IDOCK:  -10.23 KCAL/MOL
REMARK 923 INTER-LIGAND FREE ENERGY PREDICTED BY IDOCK:   -8.00 KCAL/MOL
REMARK 924 INTRA-LIGAND FREE ENERGY PREDICTED BY IDOCK:   -2.23 KCAL/MOL
REMARK 927      BINDING AFFINITY PREDICTED BY RF-SCORE:    0.00 PKD
ROOT
HETATM    1  C   UNL     1      -6.428  19.850  70.025  1.00  0.00    -0.350 C  
HETATM    2  C   UNL     1      -6.065  19.517  68.588  1.00  0.00    -0.267 C  
ENDROOT
BRANCH   2   3
HETATM    3  C   UNL     1      -6.194  20.701  67.671  1.00  0.00    -0.318 C  
HETATM    4  C   UNL     1      -7.151  20.865  66.742  1.00  0.00    -0.284 C  
BRANCH   4   5
HETATM    5  C   UNL     1      -8.207  19.855  66.390  1.00  0.00    -0.365 C  
BRANCH   5   6
HETATM    6  C   UNL     1      -9.550  20.227  66.955  1.00  0.00    -0.572 C  
HETATM    7  C   UNL     1     -10.167  19.635  67.994  1.00  0.00    -0.579 C  
BRANCH   7   8
HETATM    8  C   UNL     1      -9.618  18.463  68.753  1.00  0.00    -0.345 C  
BRANCH   8   9
HETATM    9  C   UNL     1     -10.590  17.323  68.832  1.00  0.00    -0.276 C  
HETATM   10  C   UNL     1     -10.906  16.470  67.843  1.00  0.00    -0.326 C  
BRANCH  10  11
HETATM   11  C   UNL     1     -10.307  16.419  66.464  1.00  0.00    -0.306 C  
BRANCH  11  12
HETATM   12  C   UNL     1      -9.097  15.529  66.376  1.00  0.00    -0.351 C  
HETATM   13  C   UNL     1      -9.048  14.213  66.639  1.00  0.00    -0.238 C  
BRANCH  13  14
HETATM   14  C   UNL     1     -10.185  13.390  67.149  1.00  0.00    -0.247 C  
BRANCH  14  15
HETATM   15  C   UNL     1     -10.992  12.756  66.051  1.00  0.00    -0.306 C  
HETATM   16  C   UNL     1     -10.792  11.499  65.621  1.00  0.00    -0.310 C  
BRANCH  16  17
HETATM   17  C   UNL     1      -9.707  10.598  66.132  1.00  0.00    -0.253 C  
BRANCH  17  18
HETATM   18  C   UNL     1     -10.224   9.293  66.671  1.00  0.00    -0.323 C  
HETATM   19  C   UNL     1     -10.519   9.108  67.970  1.00  0.00    -0.276 C  
BRANCH  19  20
HETATM   20  C   UNL     1     -10.363  10.212  68.981  1.00  0.00    -0.230 C  
BRANCH  20  21
HETATM   21  C   UNL     1     -11.669  10.756  69.548  1.00  0.00    -0.384 C  
HETATM   22  C   UNL     1     -11.921  10.120  70.898  1.00  0.00    -0.365 C  
HETATM   23  O   UNL     1     -13.235  10.088  71.230  1.00  0.00    -0.381 OA 
HETATM   24  O   UNL     1     -11.059   9.696  71.645  1.00  0.00    -0.348 OA 
ENDBRANCH  20  21
ENDBRANCH  19  20
ENDBRANCH  17  18
ENDBRANCH  16  17
ENDBRANCH  14  15
ENDBRANCH  13  14
ENDBRANCH  11  12
ENDBRANCH  10  11
ENDBRANCH   8   9
ENDBRANCH   7   8
ENDBRANCH   5   6
ENDBRANCH   4   5
ENDBRANCH   2   3
TORSDOF 13
ENDMDL
MODEL      170
REMARK 921   NORMALIZED FREE ENERGY PREDICTED BY IDOCK:   -4.24 KCAL/MOL
REMARK 922        TOTAL FREE ENERGY PREDICTED BY IDOCK:  -10.23 KCAL/MOL
REMARK 923 INTER-LIGAND FREE ENERGY PREDICTED BY IDOCK:   -7.29 KCAL/MOL
REMARK 924 INTRA-LIGAND FREE ENERGY PREDICTED BY IDOCK:   -2.94 KCAL/MOL
REMARK 927      BINDING AFFINITY PREDICTED BY RF-SCORE:    0.00 PKD
ROOT
HETATM    1  C   UNL     1     -11.039  16.164  64.860  1.00  0.00    -0.336 C  
HETATM    2  C   UNL     1     -11.363  14.850  65.552  1.00  0.00    -0.339 C  
ENDROOT
BRANCH   2   3
HETATM    3  C   UNL     1     -12.198  13.939  64.697  1.00  0.00    -0.449 C  
HETATM    4  C   UNL     1     -11.746  12.857  64.041  1.00  0.00    -0.499 C  
BRANCH   4   5
HETATM    5  C   UNL     1     -10.311  12.417  63.968  1.00  0.00    -0.435 C  
BRANCH   5   6
HETATM    6  C   UNL     1     -10.157  11.123  63.216  1.00  0.00    -0.426 C  
HETATM    7  C   UNL     1      -9.395  10.078  63.581  1.00  0.00    -0.301 C  
BRANCH   7   8
HETATM    8  C   UNL     1      -8.529  10.043  64.806  1.00  0.00    -0.180 C  
BRANCH   8   9
HETATM    9  C   UNL     1      -8.976   9.008  65.797  1.00  0.00    -0.242 C  
HETATM   10  C   UNL     1      -9.914   9.160  66.747  1.00  0.00    -0.322 C  
BRANCH  10  11
HETATM   11  C   UNL     1     -10.776  10.371  66.984  1.00  0.00    -0.298 C  
BRANCH  11  12
HETATM   12  C   UNL     1     -10.362  11.167  68.191  1.00  0.00    -0.207 C  
HETATM   13  C   UNL     1      -9.476  12.175  68.222  1.00  0.00    -0.204 C  
BRANCH  13  14
HETATM   14  C   UNL     1      -8.669  12.653  67.061  1.00  0.00    -0.198 C  
BRANCH  14  15
HETATM   15  C   UNL     1      -7.316  13.175  67.458  1.00  0.00    -0.153 C  
HETATM   16  C   UNL     1      -7.032  14.485  67.556  1.00  0.00    -0.188 C  
BRANCH  16  17
HETATM   17  C   UNL     1      -7.999  15.582  67.224  1.00  0.00    -0.233 C  
BRANCH  17  18
HETATM   18  C   UNL     1      -7.395  16.669  66.378  1.00  0.00    -0.216 C  
HETATM   19  C   UNL     1      -7.286  17.943  66.798  1.00  0.00    -0.234 C  
BRANCH  19  20
HETATM   20  C   UNL     1      -7.754  18.367  68.164  1.00  0.00    -0.304 C  
BRANCH  20  21
HETATM   21  C   UNL     1      -8.803  19.472  68.171  1.00  0.00    -0.378 C  
HETATM   22  C   UNL     1     -10.170  18.854  67.969  1.00  0.00    -0.388 C  
HETATM   23  O   UNL     1     -11.064  19.715  67.426  1.00  0.00    -0.398 OA 
HETATM   24  O   UNL     1     -10.477  17.716  68.276  1.00  0.00    -0.366 OA 
ENDBRANCH  20  21
ENDBRANCH  19  20
ENDBRANCH  17  18
ENDBRANCH  16  17
ENDBRANCH  14  15
ENDBRANCH  13  14
ENDBRANCH  11  12
ENDBRANCH  10  11
ENDBRANCH   8   9
ENDBRANCH   7   8
ENDBRANCH   5   6
ENDBRANCH   4   5
ENDBRANCH   2   3
TORSDOF 13
ENDMDL
MODEL      171
REMARK 921   NORMALIZED FREE ENERGY PREDICTED BY IDOCK:   -4.22 KCAL/MOL
REMARK 922        TOTAL FREE ENERGY PREDICTED BY IDOCK:  -10.20 KCAL/MOL
REMARK 923 INTER-LIGAND FREE ENERGY PREDICTED BY IDOCK:   -7.80 KCAL/MOL
REMARK 924 INTRA-LIGAND FREE ENERGY PREDICTED BY IDOCK:   -2.41 KCAL/MOL
REMARK 927      BINDING AFFINITY PREDICTED BY RF-SCORE:    0.00 PKD
ROOT
HETATM    1  C   UNL     1     -12.618  11.217  70.501  1.00  0.00    -0.331 C  
HETATM    2  C   UNL     1     -11.259  10.537  70.506  1.00  0.00    -0.348 C  
ENDROOT
BRANCH   2   3
HETATM    3  C   UNL     1     -10.450  10.858  69.281  1.00  0.00    -0.230 C  
HETATM    4  C   UNL     1     -10.143   9.990  68.301  1.00  0.00    -0.182 C  
BRANCH   4   5
HETATM    5  C   UNL     1     -10.474   8.524  68.300  1.00  0.00    -0.222 C  
BRANCH   5   6
HETATM    6  C   UNL     1      -9.238   7.669  68.356  1.00  0.00    -0.140 C  
HETATM    7  C   UNL     1      -8.573   7.164  67.301  1.00  0.00    -0.121 C  
BRANCH   7   8
HETATM    8  C   UNL     1      -8.984   7.347  65.870  1.00  0.00    -0.114 C  
BRANCH   8   9
HETATM    9  C   UNL     1      -7.884   7.922  65.026  1.00  0.00    -0.120 C  
HETATM   10  C   UNL     1      -7.749   9.206  64.653  1.00  0.00    -0.113 C  
BRANCH  10  11
HETATM   11  C   UNL     1      -8.621  10.364  65.056  1.00  0.00    -0.190 C  
BRANCH  11  12
HETATM   12  C   UNL     1      -9.812  10.551  64.158  1.00  0.00    -0.401 C  
HETATM   13  C   UNL     1     -10.900  11.295  64.412  1.00  0.00    -0.373 C  
BRANCH  13  14
HETATM   14  C   UNL     1     -11.169  12.027  65.685  1.00  0.00    -0.377 C  
BRANCH  14  15
HETATM   15  C   UNL     1     -12.197  13.113  65.534  1.00  0.00    -0.513 C  
HETATM   16  C   UNL     1     -12.488  13.993  66.508  1.00  0.00    -0.351 C  
BRANCH  16  17
HETATM   17  C   UNL     1     -11.874  13.966  67.876  1.00  0.00    -0.413 C  
BRANCH  17  18
HETATM   18  C   UNL     1     -11.328  15.298  68.308  1.00  0.00    -0.344 C  
HETATM   19  C   UNL     1     -11.363  15.720  69.585  1.00  0.00    -0.334 C  
BRANCH  19  20
HETATM   20  C   UNL     1     -11.946  14.870  70.683  1.00  0.00    -0.363 C  
BRANCH  20  21
HETATM   21  C   UNL     1     -11.843  15.465  72.081  1.00  0.00    -0.536 C  
HETATM   22  C   UNL     1     -13.146  15.226  72.814  1.00  0.00    -0.461 C  
HETATM   23  O   UNL     1     -13.376  16.135  73.793  1.00  0.00    -0.640 OA 
HETATM   24  O   UNL     1     -13.917  14.309  72.594  1.00  0.00    -0.580 OA 
ENDBRANCH  20  21
ENDBRANCH  19  20
ENDBRANCH  17  18
ENDBRANCH  16  17
ENDBRANCH  14  15
ENDBRANCH  13  14
ENDBRANCH  11  12
ENDBRANCH  10  11
ENDBRANCH   8   9
ENDBRANCH   7   8
ENDBRANCH   5   6
ENDBRANCH   4   5
ENDBRANCH   2   3
TORSDOF 13
ENDMDL
MODEL      172
REMARK 921   NORMALIZED FREE ENERGY PREDICTED BY IDOCK:   -4.21 KCAL/MOL
REMARK 922        TOTAL FREE ENERGY PREDICTED BY IDOCK:  -10.19 KCAL/MOL
REMARK 923 INTER-LIGAND FREE ENERGY PREDICTED BY IDOCK:   -7.39 KCAL/MOL
REMARK 924 INTRA-LIGAND FREE ENERGY PREDICTED BY IDOCK:   -2.81 KCAL/MOL
REMARK 927      BINDING AFFINITY PREDICTED BY RF-SCORE:    0.00 PKD
ROOT
HETATM    1  C   UNL     1      -9.258  10.339  63.314  1.00  0.00    -0.321 C  
HETATM    2  C   UNL     1     -10.014  11.650  63.443  1.00  0.00    -0.447 C  
ENDROOT
BRANCH   2   3
HETATM    3  C   UNL     1     -11.499  11.477  63.289  1.00  0.00    -0.180 C  
HETATM    4  C   UNL     1     -12.421  12.425  63.528  1.00  0.00    -0.605 C  
BRANCH   4   5
HETATM    5  C   UNL     1     -12.142  13.796  64.078  1.00  0.00    -0.448 C  
BRANCH   5   6
HETATM    6  C   UNL     1     -12.745  13.986  65.443  1.00  0.00    -0.499 C  
HETATM    7  C   UNL     1     -12.140  13.743  66.619  1.00  0.00    -0.471 C  
BRANCH   7   8
HETATM    8  C   UNL     1     -10.748  13.202  66.765  1.00  0.00    -0.274 C  
BRANCH   8   9
HETATM    9  C   UNL     1     -10.730  11.796  67.290  1.00  0.00    -0.279 C  
HETATM   10  C   UNL     1      -9.703  10.932  67.232  1.00  0.00    -0.189 C  
BRANCH  10  11
HETATM   11  C   UNL     1      -8.322  11.201  66.697  1.00  0.00    -0.160 C  
BRANCH  11  12
HETATM   12  C   UNL     1      -7.320  11.518  67.774  1.00  0.00    -0.096 C  
HETATM   13  C   UNL     1      -7.245  12.651  68.490  1.00  0.00    -0.113 C  
BRANCH  13  14
HETATM   14  C   UNL     1      -8.106  13.854  68.299  1.00  0.00    -0.150 C  
BRANCH  14  15
HETATM   15  C   UNL     1      -7.439  14.937  67.498  1.00  0.00    -0.224 C  
HETATM   16  C   UNL     1      -7.612  16.248  67.742  1.00  0.00    -0.151 C  
BRANCH  16  17
HETATM   17  C   UNL     1      -8.532  16.793  68.792  1.00  0.00    -0.253 C  
BRANCH  17  18
HETATM   18  C   UNL     1      -9.861  17.236  68.245  1.00  0.00    -0.304 C  
HETATM   19  C   UNL     1     -11.029  16.711  68.657  1.00  0.00    -0.328 C  
BRANCH  19  20
HETATM   20  C   UNL     1     -11.086  15.642  69.715  1.00  0.00    -0.315 C  
BRANCH  20  21
HETATM   21  C   UNL     1     -11.506  16.127  71.097  1.00  0.00    -0.433 C  
HETATM   22  C   UNL     1     -12.554  15.186  71.651  1.00  0.00    -0.351 C  
HETATM   23  O   UNL     1     -13.365  15.775  72.563  1.00  0.00    -0.465 OA 
HETATM   24  O   UNL     1     -12.668  14.010  71.353  1.00  0.00    -0.329 OA 
ENDBRANCH  20  21
ENDBRANCH  19  20
ENDBRANCH  17  18
ENDBRANCH  16  17
ENDBRANCH  14  15
ENDBRANCH  13  14
ENDBRANCH  11  12
ENDBRANCH  10  11
ENDBRANCH   8   9
ENDBRANCH   7   8
ENDBRANCH   5   6
ENDBRANCH   4   5
ENDBRANCH   2   3
TORSDOF 13
ENDMDL
MODEL      173
REMARK 921   NORMALIZED FREE ENERGY PREDICTED BY IDOCK:   -4.21 KCAL/MOL
REMARK 922        TOTAL FREE ENERGY PREDICTED BY IDOCK:  -10.18 KCAL/MOL
REMARK 923 INTER-LIGAND FREE ENERGY PREDICTED BY IDOCK:   -7.27 KCAL/MOL
REMARK 924 INTRA-LIGAND FREE ENERGY PREDICTED BY IDOCK:   -2.91 KCAL/MOL
REMARK 927      BINDING AFFINITY PREDICTED BY RF-SCORE:    0.00 PKD
ROOT
HETATM    1  C   UNL     1     -10.373  15.969  66.093  1.00  0.00    -0.340 C  
HETATM    2  C   UNL     1     -11.172  15.148  67.091  1.00  0.00    -0.320 C  
ENDROOT
BRANCH   2   3
HETATM    3  C   UNL     1     -11.928  14.024  66.440  1.00  0.00    -0.462 C  
HETATM    4  C   UNL     1     -11.798  12.721  66.742  1.00  0.00    -0.452 C  
BRANCH   4   5
HETATM    5  C   UNL     1     -10.811  12.147  67.718  1.00  0.00    -0.263 C  
BRANCH   5   6
HETATM    6  C   UNL     1     -11.137  10.722  68.074  1.00  0.00    -0.359 C  
HETATM    7  C   UNL     1     -10.841   9.633  67.343  1.00  0.00    -0.242 C  
BRANCH   7   8
HETATM    8  C   UNL     1     -10.152   9.664  66.011  1.00  0.00    -0.318 C  
BRANCH   8   9
HETATM    9  C   UNL     1      -8.981   8.727  65.947  1.00  0.00    -0.240 C  
HETATM   10  C   UNL     1      -7.727   8.982  66.358  1.00  0.00    -0.099 C  
BRANCH  10  11
HETATM   11  C   UNL     1      -7.233  10.229  67.040  1.00  0.00    -0.091 C  
BRANCH  11  12
HETATM   12  C   UNL     1      -6.327   9.948  68.207  1.00  0.00    -0.054 C  
HETATM   13  C   UNL     1      -6.700   9.734  69.479  1.00  0.00    -0.054 C  
BRANCH  13  14
HETATM   14  C   UNL     1      -8.098   9.811  69.995  1.00  0.00    -0.203 C  
BRANCH  14  15
HETATM   15  C   UNL     1      -8.682   8.464  70.318  1.00  0.00    -0.140 C  
HETATM   16  C   UNL     1      -9.863   8.302  70.939  1.00  0.00    -0.215 C  
BRANCH  16  17
HETATM   17  C   UNL     1     -10.710   9.433  71.441  1.00  0.00    -0.407 C  
BRANCH  17  18
HETATM   18  C   UNL     1     -12.186   9.174  71.308  1.00  0.00    -0.395 C  
HETATM   19  C   UNL     1     -13.095  10.163  71.235  1.00  0.00    -0.490 C  
BRANCH  19  20
HETATM   20  C   UNL     1     -12.691  11.613  71.270  1.00  0.00    -0.444 C  
BRANCH  20  21
HETATM   21  C   UNL     1     -13.511  12.488  72.209  1.00  0.00    -0.490 C  
HETATM   22  C   UNL     1     -13.178  13.940  71.944  1.00  0.00    -0.397 C  
HETATM   23  O   UNL     1     -13.397  14.737  73.017  1.00  0.00    -0.478 OA 
HETATM   24  O   UNL     1     -12.780  14.386  70.883  1.00  0.00    -0.321 OA 
ENDBRANCH  20  21
ENDBRANCH  19  20
ENDBRANCH  17  18
ENDBRANCH  16  17
ENDBRANCH  14  15
ENDBRANCH  13  14
ENDBRANCH  11  12
ENDBRANCH  10  11
ENDBRANCH   8   9
ENDBRANCH   7   8
ENDBRANCH   5   6
ENDBRANCH   4   5
ENDBRANCH   2   3
TORSDOF 13
ENDMDL
MODEL      174
REMARK 921   NORMALIZED FREE ENERGY PREDICTED BY IDOCK:   -4.20 KCAL/MOL
REMARK 922        TOTAL FREE ENERGY PREDICTED BY IDOCK:  -10.18 KCAL/MOL
REMARK 923 INTER-LIGAND FREE ENERGY PREDICTED BY IDOCK:   -8.53 KCAL/MOL
REMARK 924 INTRA-LIGAND FREE ENERGY PREDICTED BY IDOCK:   -1.64 KCAL/MOL
REMARK 927      BINDING AFFINITY PREDICTED BY RF-SCORE:    0.00 PKD
ROOT
HETATM    1  C   UNL     1      -9.110   6.570  68.261  1.00  0.00    -0.119 C  
HETATM    2  C   UNL     1     -10.286   6.212  69.156  1.00  0.00    -0.242 C  
ENDROOT
BRANCH   2   3
HETATM    3  C   UNL     1      -9.958   5.111  70.125  1.00  0.00    -0.324 C  
HETATM    4  C   UNL     1     -10.381   5.046  71.399  1.00  0.00    -0.251 C  
BRANCH   4   5
HETATM    5  C   UNL     1     -11.176   6.105  72.110  1.00  0.00    -0.335 C  
BRANCH   5   6
HETATM    6  C   UNL     1     -10.291   7.153  72.728  1.00  0.00    -0.261 C  
HETATM    7  C   UNL     1     -10.202   8.440  72.350  1.00  0.00    -0.399 C  
BRANCH   7   8
HETATM    8  C   UNL     1     -10.962   9.046  71.208  1.00  0.00    -0.384 C  
BRANCH   8   9
HETATM    9  C   UNL     1     -12.443   9.064  71.447  1.00  0.00    -0.378 C  
HETATM   10  C   UNL     1     -13.195  10.138  71.739  1.00  0.00    -0.542 C  
BRANCH  10  11
HETATM   11  C   UNL     1     -12.738  11.570  71.819  1.00  0.00    -0.340 C  
BRANCH  11  12
HETATM   12  C   UNL     1     -13.875  12.553  71.871  1.00  0.00     0.074 C  
HETATM   13  C   UNL     1     -13.833  13.802  72.362  1.00  0.00    -0.681 C  
BRANCH  13  14
HETATM   14  C   UNL     1     -12.653  14.432  73.024  1.00  0.00    -0.367 C  
BRANCH  14  15
HETATM   15  C   UNL     1     -12.537  15.905  72.746  1.00  0.00    -0.567 C  
HETATM   16  C   UNL     1     -11.888  16.405  71.680  1.00  0.00    -0.349 C  
BRANCH  16  17
HETATM   17  C   UNL     1     -11.151  15.569  70.677  1.00  0.00    -0.378 C  
BRANCH  17  18
HETATM   18  C   UNL     1     -11.921  15.356  69.403  1.00  0.00    -0.351 C  
HETATM   19  C   UNL     1     -11.594  15.960  68.246  1.00  0.00    -0.274 C  
BRANCH  19  20
HETATM   20  C   UNL     1     -10.414  16.889  68.145  1.00  0.00    -0.350 C  
BRANCH  20  21
HETATM   21  C   UNL     1     -10.766  18.361  67.970  1.00  0.00    -0.277 C  
HETATM   22  C   UNL     1     -10.309  18.816  66.600  1.00  0.00    -0.420 C  
HETATM   23  O   UNL     1     -10.068  20.148  66.539  1.00  0.00    -0.440 OA 
HETATM   24  O   UNL     1     -10.188  18.095  65.626  1.00  0.00    -0.578 OA 
ENDBRANCH  20  21
ENDBRANCH  19  20
ENDBRANCH  17  18
ENDBRANCH  16  17
ENDBRANCH  14  15
ENDBRANCH  13  14
ENDBRANCH  11  12
ENDBRANCH  10  11
ENDBRANCH   8   9
ENDBRANCH   7   8
ENDBRANCH   5   6
ENDBRANCH   4   5
ENDBRANCH   2   3
TORSDOF 13
ENDMDL
MODEL      175
REMARK 921   NORMALIZED FREE ENERGY PREDICTED BY IDOCK:   -4.20 KCAL/MOL
REMARK 922        TOTAL FREE ENERGY PREDICTED BY IDOCK:  -10.17 KCAL/MOL
REMARK 923 INTER-LIGAND FREE ENERGY PREDICTED BY IDOCK:   -8.02 KCAL/MOL
REMARK 924 INTRA-LIGAND FREE ENERGY PREDICTED BY IDOCK:   -2.15 KCAL/MOL
REMARK 927      BINDING AFFINITY PREDICTED BY RF-SCORE:    0.00 PKD
ROOT
HETATM    1  C   UNL     1      -6.178  17.324  69.040  1.00  0.00    -0.209 C  
HETATM    2  C   UNL     1      -7.491  16.964  68.365  1.00  0.00    -0.206 C  
ENDROOT
BRANCH   2   3
HETATM    3  C   UNL     1      -7.325  15.911  67.307  1.00  0.00    -0.251 C  
HETATM    4  C   UNL     1      -8.297  15.096  66.860  1.00  0.00    -0.267 C  
BRANCH   4   5
HETATM    5  C   UNL     1      -9.697  15.029  67.403  1.00  0.00    -0.216 C  
BRANCH   5   6
HETATM    6  C   UNL     1     -10.134  13.612  67.655  1.00  0.00    -0.242 C  
HETATM    7  C   UNL     1     -11.192  13.226  68.389  1.00  0.00    -0.314 C  
BRANCH   7   8
HETATM    8  C   UNL     1     -12.110  14.163  69.118  1.00  0.00    -0.362 C  
BRANCH   8   9
HETATM    9  C   UNL     1     -12.293  13.785  70.558  1.00  0.00    -0.429 C  
HETATM   10  C   UNL     1     -12.456  12.543  71.047  1.00  0.00    -0.353 C  
BRANCH  10  11
HETATM   11  C   UNL     1     -12.416  11.253  70.273  1.00  0.00    -0.330 C  
BRANCH  11  12
HETATM   12  C   UNL     1     -11.469  10.240  70.857  1.00  0.00    -0.425 C  
HETATM   13  C   UNL     1     -10.379   9.727  70.266  1.00  0.00    -0.348 C  
BRANCH  13  14
HETATM   14  C   UNL     1      -9.937  10.012  68.869  1.00  0.00    -0.198 C  
BRANCH  14  15
HETATM   15  C   UNL     1     -10.589   9.120  67.850  1.00  0.00    -0.272 C  
HETATM   16  C   UNL     1     -10.351   9.212  66.530  1.00  0.00    -0.269 C  
BRANCH  16  17
HETATM   17  C   UNL     1      -9.461  10.245  65.907  1.00  0.00    -0.241 C  
BRANCH  17  18
HETATM   18  C   UNL     1      -9.418  10.163  64.406  1.00  0.00    -0.368 C  
HETATM   19  C   UNL     1      -9.799  11.178  63.610  1.00  0.00    -0.387 C  
BRANCH  19  20
HETATM   20  C   UNL     1     -10.287  12.486  64.175  1.00  0.00    -0.416 C  
BRANCH  20  21
HETATM   21  C   UNL     1     -11.798  12.590  64.345  1.00  0.00    -0.455 C  
HETATM   22  C   UNL     1     -12.158  14.025  64.665  1.00  0.00    -0.440 C  
HETATM   23  O   UNL     1     -13.322  14.137  65.350  1.00  0.00    -0.705 OA 
HETATM   24  O   UNL     1     -11.510  15.001  64.335  1.00  0.00    -0.323 OA 
ENDBRANCH  20  21
ENDBRANCH  19  20
ENDBRANCH  17  18
ENDBRANCH  16  17
ENDBRANCH  14  15
ENDBRANCH  13  14
ENDBRANCH  11  12
ENDBRANCH  10  11
ENDBRANCH   8   9
ENDBRANCH   7   8
ENDBRANCH   5   6
ENDBRANCH   4   5
ENDBRANCH   2   3
TORSDOF 13
ENDMDL
MODEL      176
REMARK 921   NORMALIZED FREE ENERGY PREDICTED BY IDOCK:   -4.20 KCAL/MOL
REMARK 922        TOTAL FREE ENERGY PREDICTED BY IDOCK:  -10.17 KCAL/MOL
REMARK 923 INTER-LIGAND FREE ENERGY PREDICTED BY IDOCK:   -7.86 KCAL/MOL
REMARK 924 INTRA-LIGAND FREE ENERGY PREDICTED BY IDOCK:   -2.32 KCAL/MOL
REMARK 927      BINDING AFFINITY PREDICTED BY RF-SCORE:    0.00 PKD
ROOT
HETATM    1  C   UNL     1      -7.245  19.580  68.936  1.00  0.00    -0.397 C  
HETATM    2  C   UNL     1      -8.214  19.491  67.769  1.00  0.00    -0.333 C  
ENDROOT
BRANCH   2   3
HETATM    3  C   UNL     1      -9.650  19.533  68.208  1.00  0.00    -0.464 C  
HETATM    4  C   UNL     1     -10.471  18.472  68.287  1.00  0.00    -0.326 C  
BRANCH   4   5
HETATM    5  C   UNL     1     -10.130  17.071  67.863  1.00  0.00    -0.306 C  
BRANCH   5   6
HETATM    6  C   UNL     1     -10.394  16.073  68.956  1.00  0.00    -0.242 C  
HETATM    7  C   UNL     1     -10.641  14.762  68.792  1.00  0.00    -0.251 C  
BRANCH   7   8
HETATM    8  C   UNL     1     -10.726  14.072  67.462  1.00  0.00    -0.271 C  
BRANCH   8   9
HETATM    9  C   UNL     1     -12.140  13.765  67.063  1.00  0.00    -0.436 C  
HETATM   10  C   UNL     1     -12.661  13.854  65.827  1.00  0.00    -0.533 C  
BRANCH  10  11
HETATM   11  C   UNL     1     -11.931  14.207  64.559  1.00  0.00    -0.476 C  
BRANCH  11  12
HETATM   12  C   UNL     1     -11.882  13.077  63.569  1.00  0.00    -0.582 C  
HETATM   13  C   UNL     1     -11.066  12.012  63.606  1.00  0.00    -0.525 C  
BRANCH  13  14
HETATM   14  C   UNL     1      -9.986  11.784  64.611  1.00  0.00    -0.275 C  
BRANCH  14  15
HETATM   15  C   UNL     1      -9.666  10.330  64.814  1.00  0.00    -0.397 C  
HETATM   16  C   UNL     1      -9.996   9.651  65.927  1.00  0.00    -0.351 C  
BRANCH  16  17
HETATM   17  C   UNL     1     -10.662  10.266  67.120  1.00  0.00    -0.303 C  
BRANCH  17  18
HETATM   18  C   UNL     1      -9.712  10.544  68.253  1.00  0.00    -0.163 C  
HETATM   19  C   UNL     1      -9.595   9.733  69.319  1.00  0.00    -0.204 C  
BRANCH  19  20
HETATM   20  C   UNL     1     -10.407   8.471  69.446  1.00  0.00    -0.218 C  
BRANCH  20  21
HETATM   21  C   UNL     1      -9.643   7.183  69.164  1.00  0.00    -0.154 C  
HETATM   22  C   UNL     1     -10.467   6.315  68.239  1.00  0.00    -0.228 C  
HETATM   23  O   UNL     1     -10.180   4.996  68.354  1.00  0.00    -0.146 OA 
HETATM   24  O   UNL     1     -11.291   6.726  67.441  1.00  0.00    -0.274 OA 
ENDBRANCH  20  21
ENDBRANCH  19  20
ENDBRANCH  17  18
ENDBRANCH  16  17
ENDBRANCH  14  15
ENDBRANCH  13  14
ENDBRANCH  11  12
ENDBRANCH  10  11
ENDBRANCH   8   9
ENDBRANCH   7   8
ENDBRANCH   5   6
ENDBRANCH   4   5
ENDBRANCH   2   3
TORSDOF 13
ENDMDL
MODEL      177
REMARK 921   NORMALIZED FREE ENERGY PREDICTED BY IDOCK:   -4.20 KCAL/MOL
REMARK 922        TOTAL FREE ENERGY PREDICTED BY IDOCK:  -10.17 KCAL/MOL
REMARK 923 INTER-LIGAND FREE ENERGY PREDICTED BY IDOCK:   -7.28 KCAL/MOL
REMARK 924 INTRA-LIGAND FREE ENERGY PREDICTED BY IDOCK:   -2.89 KCAL/MOL
REMARK 927      BINDING AFFINITY PREDICTED BY RF-SCORE:    0.00 PKD
ROOT
HETATM    1  C   UNL     1      -6.398  10.404  69.628  1.00  0.00    -0.068 C  
HETATM    2  C   UNL     1      -7.273   9.953  68.470  1.00  0.00    -0.076 C  
ENDROOT
BRANCH   2   3
HETATM    3  C   UNL     1      -6.629  10.192  67.134  1.00  0.00    -0.069 C  
HETATM    4  C   UNL     1      -7.282  10.312  65.965  1.00  0.00    -0.128 C  
BRANCH   4   5
HETATM    5  C   UNL     1      -8.762  10.136  65.771  1.00  0.00    -0.166 C  
BRANCH   5   6
HETATM    6  C   UNL     1      -9.103   9.774  64.351  1.00  0.00    -0.296 C  
HETATM    7  C   UNL     1      -9.779  10.539  63.477  1.00  0.00    -0.374 C  
BRANCH   7   8
HETATM    8  C   UNL     1     -10.344  11.893  63.790  1.00  0.00    -0.451 C  
BRANCH   8   9
HETATM    9  C   UNL     1     -11.845  11.900  63.809  1.00  0.00    -0.558 C  
HETATM   10  C   UNL     1     -12.633  12.678  64.570  1.00  0.00    -0.491 C  
BRANCH  10  11
HETATM   11  C   UNL     1     -12.194  13.765  65.514  1.00  0.00    -0.470 C  
BRANCH  11  12
HETATM   12  C   UNL     1     -11.943  13.270  66.912  1.00  0.00    -0.430 C  
HETATM   13  C   UNL     1     -10.755  13.178  67.530  1.00  0.00    -0.248 C  
BRANCH  13  14
HETATM   14  C   UNL     1      -9.432  13.484  66.911  1.00  0.00    -0.258 C  
BRANCH  14  15
HETATM   15  C   UNL     1      -8.287  13.367  67.878  1.00  0.00    -0.166 C  
HETATM   16  C   UNL     1      -7.784  14.415  68.553  1.00  0.00    -0.135 C  
BRANCH  16  17
HETATM   17  C   UNL     1      -8.253  15.828  68.384  1.00  0.00    -0.151 C  
BRANCH  17  18
HETATM   18  C   UNL     1      -9.230  16.260  69.443  1.00  0.00    -0.114 C  
HETATM   19  C   UNL     1     -10.355  16.942  69.161  1.00  0.00    -0.319 C  
BRANCH  19  20
HETATM   20  C   UNL     1     -10.722  17.312  67.748  1.00  0.00    -0.333 C  
BRANCH  20  21
HETATM   21  C   UNL     1     -10.712  18.806  67.450  1.00  0.00    -0.487 C  
HETATM   22  C   UNL     1     -10.503  19.009  65.965  1.00  0.00    -0.458 C  
HETATM   23  O   UNL     1      -9.946  20.208  65.668  1.00  0.00    -0.376 OA 
HETATM   24  O   UNL     1     -10.816  18.213  65.098  1.00  0.00    -0.658 OA 
ENDBRANCH  20  21
ENDBRANCH  19  20
ENDBRANCH  17  18
ENDBRANCH  16  17
ENDBRANCH  14  15
ENDBRANCH  13  14
ENDBRANCH  11  12
ENDBRANCH  10  11
ENDBRANCH   8   9
ENDBRANCH   7   8
ENDBRANCH   5   6
ENDBRANCH   4   5
ENDBRANCH   2   3
TORSDOF 13
ENDMDL
MODEL      178
REMARK 921   NORMALIZED FREE ENERGY PREDICTED BY IDOCK:   -4.20 KCAL/MOL
REMARK 922        TOTAL FREE ENERGY PREDICTED BY IDOCK:  -10.16 KCAL/MOL
REMARK 923 INTER-LIGAND FREE ENERGY PREDICTED BY IDOCK:   -7.00 KCAL/MOL
REMARK 924 INTRA-LIGAND FREE ENERGY PREDICTED BY IDOCK:   -3.16 KCAL/MOL
REMARK 927      BINDING AFFINITY PREDICTED BY RF-SCORE:    0.00 PKD
ROOT
HETATM    1  C   UNL     1      -8.124  16.147  68.750  1.00  0.00    -0.218 C  
HETATM    2  C   UNL     1      -7.061  15.176  68.266  1.00  0.00    -0.114 C  
ENDROOT
BRANCH   2   3
HETATM    3  C   UNL     1      -7.587  14.209  67.242  1.00  0.00    -0.104 C  
HETATM    4  C   UNL     1      -7.892  12.921  67.473  1.00  0.00    -0.177 C  
BRANCH   4   5
HETATM    5  C   UNL     1      -7.675  12.192  68.769  1.00  0.00    -0.034 C  
BRANCH   5   6
HETATM    6  C   UNL     1      -7.164  10.795  68.549  1.00  0.00    -0.088 C  
HETATM    7  C   UNL     1      -7.904   9.672  68.523  1.00  0.00    -0.085 C  
BRANCH   7   8
HETATM    8  C   UNL     1      -9.387   9.626  68.747  1.00  0.00    -0.148 C  
BRANCH   8   9
HETATM    9  C   UNL     1     -10.108   8.879  67.664  1.00  0.00    -0.274 C  
HETATM   10  C   UNL     1     -10.365   9.319  66.420  1.00  0.00    -0.238 C  
BRANCH  10  11
HETATM   11  C   UNL     1      -9.923  10.623  65.812  1.00  0.00    -0.315 C  
BRANCH  11  12
HETATM   12  C   UNL     1     -10.209  10.717  64.338  1.00  0.00    -0.400 C  
HETATM   13  C   UNL     1     -10.971  11.636  63.726  1.00  0.00    -0.495 C  
BRANCH  13  14
HETATM   14  C   UNL     1     -11.749  12.710  64.411  1.00  0.00    -0.431 C  
BRANCH  14  15
HETATM   15  C   UNL     1     -10.909  13.900  64.785  1.00  0.00    -0.430 C  
HETATM   16  C   UNL     1     -11.004  14.524  65.972  1.00  0.00    -0.324 C  
BRANCH  16  17
HETATM   17  C   UNL     1     -11.992  14.157  67.038  1.00  0.00    -0.471 C  
BRANCH  17  18
HETATM   18  C   UNL     1     -11.408  13.282  68.113  1.00  0.00    -0.323 C  
HETATM   19  C   UNL     1     -11.336  13.662  69.401  1.00  0.00    -0.303 C  
BRANCH  19  20
HETATM   20  C   UNL     1     -11.855  14.998  69.862  1.00  0.00    -0.362 C  
BRANCH  20  21
HETATM   21  C   UNL     1     -13.195  14.953  70.586  1.00  0.00    -0.319 C  
HETATM   22  C   UNL     1     -12.946  14.791  72.070  1.00  0.00    -0.330 C  
HETATM   23  O   UNL     1     -13.983  14.209  72.720  1.00  0.00    -0.638 OA 
HETATM   24  O   UNL     1     -11.944  15.158  72.657  1.00  0.00    -0.379 OA 
ENDBRANCH  20  21
ENDBRANCH  19  20
ENDBRANCH  17  18
ENDBRANCH  16  17
ENDBRANCH  14  15
ENDBRANCH  13  14
ENDBRANCH  11  12
ENDBRANCH  10  11
ENDBRANCH   8   9
ENDBRANCH   7   8
ENDBRANCH   5   6
ENDBRANCH   4   5
ENDBRANCH   2   3
TORSDOF 13
ENDMDL
MODEL      179
REMARK 921   NORMALIZED FREE ENERGY PREDICTED BY IDOCK:   -4.18 KCAL/MOL
REMARK 922        TOTAL FREE ENERGY PREDICTED BY IDOCK:  -10.14 KCAL/MOL
REMARK 923 INTER-LIGAND FREE ENERGY PREDICTED BY IDOCK:   -8.05 KCAL/MOL
REMARK 924 INTRA-LIGAND FREE ENERGY PREDICTED BY IDOCK:   -2.09 KCAL/MOL
REMARK 927      BINDING AFFINITY PREDICTED BY RF-SCORE:    0.00 PKD
ROOT
HETATM    1  C   UNL     1      -7.957   6.704  74.213  1.00  0.00    -0.119 C  
HETATM    2  C   UNL     1      -8.536   8.054  73.821  1.00  0.00    -0.317 C  
ENDROOT
BRANCH   2   3
HETATM    3  C   UNL     1      -8.424   8.323  72.347  1.00  0.00    -0.252 C  
HETATM    4  C   UNL     1      -9.410   8.793  71.565  1.00  0.00    -0.337 C  
BRANCH   4   5
HETATM    5  C   UNL     1     -10.826   9.045  72.003  1.00  0.00    -0.342 C  
BRANCH   5   6
HETATM    6  C   UNL     1     -11.491   7.791  72.502  1.00  0.00    -0.428 C  
HETATM    7  C   UNL     1     -11.818   6.717  71.763  1.00  0.00    -0.380 C  
BRANCH   7   8
HETATM    8  C   UNL     1     -11.598   6.603  70.283  1.00  0.00    -0.454 C  
BRANCH   8   9
HETATM    9  C   UNL     1     -10.660   5.488  69.924  1.00  0.00    -0.387 C  
HETATM   10  C   UNL     1      -9.635   5.551  69.057  1.00  0.00    -0.180 C  
BRANCH  10  11
HETATM   11  C   UNL     1      -9.152   6.765  68.312  1.00  0.00    -0.124 C  
BRANCH  11  12
HETATM   12  C   UNL     1      -9.961   7.066  67.080  1.00  0.00    -0.273 C  
HETATM   13  C   UNL     1     -10.303   8.280  66.621  1.00  0.00    -0.293 C  
BRANCH  13  14
HETATM   14  C   UNL     1     -10.002   9.576  67.297  1.00  0.00    -0.244 C  
BRANCH  14  15
HETATM   15  C   UNL     1     -10.919   9.864  68.454  1.00  0.00    -0.235 C  
HETATM   16  C   UNL     1     -11.106  11.097  68.956  1.00  0.00    -0.299 C  
BRANCH  16  17
HETATM   17  C   UNL     1     -10.386  12.320  68.473  1.00  0.00    -0.234 C  
BRANCH  17  18
HETATM   18  C   UNL     1     -11.209  13.574  68.579  1.00  0.00    -0.310 C  
HETATM   19  C   UNL     1     -11.963  14.037  67.565  1.00  0.00    -0.430 C  
BRANCH  19  20
HETATM   20  C   UNL     1     -12.044  13.315  66.247  1.00  0.00    -0.472 C  
BRANCH  20  21
HETATM   21  C   UNL     1     -12.312  14.207  65.040  1.00  0.00    -0.452 C  
HETATM   22  C   UNL     1     -11.144  15.154  64.861  1.00  0.00    -0.414 C  
HETATM   23  O   UNL     1     -11.485  16.297  64.218  1.00  0.00    -0.727 OA 
HETATM   24  O   UNL     1     -10.001  14.933  65.218  1.00  0.00    -0.350 OA 
ENDBRANCH  20  21
ENDBRANCH  19  20
ENDBRANCH  17  18
ENDBRANCH  16  17
ENDBRANCH  14  15
ENDBRANCH  13  14
ENDBRANCH  11  12
ENDBRANCH  10  11
ENDBRANCH   8   9
ENDBRANCH   7   8
ENDBRANCH   5   6
ENDBRANCH   4   5
ENDBRANCH   2   3
TORSDOF 13
ENDMDL
MODEL      180
REMARK 921   NORMALIZED FREE ENERGY PREDICTED BY IDOCK:   -4.18 KCAL/MOL
REMARK 922        TOTAL FREE ENERGY PREDICTED BY IDOCK:  -10.14 KCAL/MOL
REMARK 923 INTER-LIGAND FREE ENERGY PREDICTED BY IDOCK:   -7.47 KCAL/MOL
REMARK 924 INTRA-LIGAND FREE ENERGY PREDICTED BY IDOCK:   -2.67 KCAL/MOL
REMARK 927      BINDING AFFINITY PREDICTED BY RF-SCORE:    0.00 PKD
ROOT
HETATM    1  C   UNL     1     -11.256  15.896  64.741  1.00  0.00    -0.364 C  
HETATM    2  C   UNL     1     -11.717  14.449  64.679  1.00  0.00    -0.438 C  
ENDROOT
BRANCH   2   3
HETATM    3  C   UNL     1     -10.616  13.479  65.002  1.00  0.00    -0.382 C  
HETATM    4  C   UNL     1     -10.664  12.539  65.962  1.00  0.00    -0.292 C  
BRANCH   4   5
HETATM    5  C   UNL     1     -11.787  12.351  66.943  1.00  0.00    -0.377 C  
BRANCH   5   6
HETATM    6  C   UNL     1     -11.684  13.304  68.103  1.00  0.00    -0.397 C  
HETATM    7  C   UNL     1     -11.680  12.972  69.406  1.00  0.00    -0.386 C  
BRANCH   7   8
HETATM    8  C   UNL     1     -11.811  11.571  69.927  1.00  0.00    -0.430 C  
BRANCH   8   9
HETATM    9  C   UNL     1     -12.570  11.507  71.220  1.00  0.00    -0.452 C  
HETATM   10  C   UNL     1     -12.944  10.395  71.876  1.00  0.00    -0.555 C  
BRANCH  10  11
HETATM   11  C   UNL     1     -12.623   8.973  71.504  1.00  0.00    -0.400 C  
BRANCH  11  12
HETATM   12  C   UNL     1     -11.726   8.288  72.498  1.00  0.00    -0.451 C  
HETATM   13  C   UNL     1     -11.318   7.009  72.463  1.00  0.00    -0.301 C  
BRANCH  13  14
HETATM   14  C   UNL     1     -11.745   5.993  71.457  1.00  0.00    -0.172 C  
BRANCH  14  15
HETATM   15  C   UNL     1     -10.598   5.424  70.669  1.00  0.00    -0.302 C  
HETATM   16  C   UNL     1     -10.171   5.946  69.506  1.00  0.00    -0.288 C  
BRANCH  16  17
HETATM   17  C   UNL     1     -10.819   7.112  68.821  1.00  0.00    -0.157 C  
BRANCH  17  18
HETATM   18  C   UNL     1     -10.119   8.417  69.083  1.00  0.00    -0.206 C  
HETATM   19  C   UNL     1      -9.787   9.274  68.101  1.00  0.00    -0.185 C  
BRANCH  19  20
HETATM   20  C   UNL     1     -10.111   8.989  66.659  1.00  0.00    -0.355 C  
BRANCH  20  21
HETATM   21  C   UNL     1      -8.907   8.940  65.726  1.00  0.00    -0.223 C  
HETATM   22  C   UNL     1      -8.343   7.536  65.725  1.00  0.00    -0.142 C  
HETATM   23  O   UNL     1      -7.027   7.495  65.403  1.00  0.00    -0.057 OA 
HETATM   24  O   UNL     1      -8.980   6.524  65.955  1.00  0.00    -0.157 OA 
ENDBRANCH  20  21
ENDBRANCH  19  20
ENDBRANCH  17  18
ENDBRANCH  16  17
ENDBRANCH  14  15
ENDBRANCH  13  14
ENDBRANCH  11  12
ENDBRANCH  10  11
ENDBRANCH   8   9
ENDBRANCH   7   8
ENDBRANCH   5   6
ENDBRANCH   4   5
ENDBRANCH   2   3
TORSDOF 13
ENDMDL
MODEL      181
REMARK 921   NORMALIZED FREE ENERGY PREDICTED BY IDOCK:   -4.18 KCAL/MOL
REMARK 922        TOTAL FREE ENERGY PREDICTED BY IDOCK:  -10.14 KCAL/MOL
REMARK 923 INTER-LIGAND FREE ENERGY PREDICTED BY IDOCK:   -7.72 KCAL/MOL
REMARK 924 INTRA-LIGAND FREE ENERGY PREDICTED BY IDOCK:   -2.42 KCAL/MOL
REMARK 927      BINDING AFFINITY PREDICTED BY RF-SCORE:    0.00 PKD
ROOT
HETATM    1  C   UNL     1      -7.280   9.171  63.970  1.00  0.00    -0.096 C  
HETATM    2  C   UNL     1      -8.532   9.933  64.374  1.00  0.00    -0.183 C  
ENDROOT
BRANCH   2   3
HETATM    3  C   UNL     1      -9.444  10.201  63.210  1.00  0.00    -0.302 C  
HETATM    4  C   UNL     1     -10.097  11.353  62.982  1.00  0.00    -0.333 C  
BRANCH   4   5
HETATM    5  C   UNL     1     -10.106  12.546  63.896  1.00  0.00    -0.308 C  
BRANCH   5   6
HETATM    6  C   UNL     1     -11.471  12.799  64.475  1.00  0.00    -0.389 C  
HETATM    7  C   UNL     1     -11.978  12.238  65.586  1.00  0.00    -0.373 C  
BRANCH   7   8
HETATM    8  C   UNL     1     -11.265  11.223  66.429  1.00  0.00    -0.190 C  
BRANCH   8   9
HETATM    9  C   UNL     1     -11.331  11.542  67.894  1.00  0.00    -0.372 C  
HETATM   10  C   UNL     1     -10.506  12.355  68.575  1.00  0.00    -0.244 C  
BRANCH  10  11
HETATM   11  C   UNL     1      -9.383  13.184  68.013  1.00  0.00    -0.219 C  
BRANCH  11  12
HETATM   12  C   UNL     1      -9.825  14.541  67.541  1.00  0.00    -0.222 C  
HETATM   13  C   UNL     1     -10.112  15.604  68.310  1.00  0.00    -0.218 C  
BRANCH  13  14
HETATM   14  C   UNL     1     -10.118  15.615  69.803  1.00  0.00    -0.291 C  
BRANCH  14  15
HETATM   15  C   UNL     1     -11.391  16.163  70.384  1.00  0.00    -0.377 C  
HETATM   16  C   UNL     1     -12.367  15.386  70.886  1.00  0.00    -0.452 C  
BRANCH  16  17
HETATM   17  C   UNL     1     -12.337  13.887  70.874  1.00  0.00    -0.451 C  
BRANCH  17  18
HETATM   18  C   UNL     1     -13.142  13.269  71.984  1.00  0.00    -0.475 C  
HETATM   19  C   UNL     1     -13.355  11.944  72.077  1.00  0.00    -0.425 C  
BRANCH  19  20
HETATM   20  C   UNL     1     -12.785  10.979  71.073  1.00  0.00    -0.485 C  
BRANCH  20  21
HETATM   21  C   UNL     1     -12.647   9.544  71.566  1.00  0.00    -0.462 C  
HETATM   22  C   UNL     1     -11.336   8.976  71.064  1.00  0.00    -0.297 C  
HETATM   23  O   UNL     1     -11.349   7.625  70.961  1.00  0.00    -0.263 OA 
HETATM   24  O   UNL     1     -10.344   9.632  70.799  1.00  0.00    -0.291 OA 
ENDBRANCH  20  21
ENDBRANCH  19  20
ENDBRANCH  17  18
ENDBRANCH  16  17
ENDBRANCH  14  15
ENDBRANCH  13  14
ENDBRANCH  11  12
ENDBRANCH  10  11
ENDBRANCH   8   9
ENDBRANCH   7   8
ENDBRANCH   5   6
ENDBRANCH   4   5
ENDBRANCH   2   3
TORSDOF 13
ENDMDL
MODEL      182
REMARK 921   NORMALIZED FREE ENERGY PREDICTED BY IDOCK:   -4.17 KCAL/MOL
REMARK 922        TOTAL FREE ENERGY PREDICTED BY IDOCK:  -10.12 KCAL/MOL
REMARK 923 INTER-LIGAND FREE ENERGY PREDICTED BY IDOCK:   -7.81 KCAL/MOL
REMARK 924 INTRA-LIGAND FREE ENERGY PREDICTED BY IDOCK:   -2.30 KCAL/MOL
REMARK 927      BINDING AFFINITY PREDICTED BY RF-SCORE:    0.00 PKD
ROOT
HETATM    1  C   UNL     1      -7.873   7.187  72.842  1.00  0.00    -0.111 C  
HETATM    2  C   UNL     1      -9.164   7.757  73.406  1.00  0.00    -0.344 C  
ENDROOT
BRANCH   2   3
HETATM    3  C   UNL     1     -10.140   6.686  73.806  1.00  0.00    -0.325 C  
HETATM    4  C   UNL     1     -11.093   6.167  73.014  1.00  0.00    -0.250 C  
BRANCH   4   5
HETATM    5  C   UNL     1     -11.416   6.627  71.620  1.00  0.00    -0.332 C  
BRANCH   5   6
HETATM    6  C   UNL     1     -12.435   7.734  71.616  1.00  0.00    -0.352 C  
HETATM    7  C   UNL     1     -12.234   8.998  71.204  1.00  0.00    -0.331 C  
BRANCH   7   8
HETATM    8  C   UNL     1     -10.924   9.531  70.702  1.00  0.00    -0.370 C  
BRANCH   8   9
HETATM    9  C   UNL     1     -10.672   9.178  69.266  1.00  0.00    -0.199 C  
HETATM   10  C   UNL     1     -10.433  10.036  68.259  1.00  0.00    -0.246 C  
BRANCH  10  11
HETATM   11  C   UNL     1     -10.290  11.531  68.358  1.00  0.00    -0.214 C  
BRANCH  11  12
HETATM   12  C   UNL     1     -11.573  12.268  68.090  1.00  0.00    -0.396 C  
HETATM   13  C   UNL     1     -11.871  12.989  66.997  1.00  0.00    -0.437 C  
BRANCH  13  14
HETATM   14  C   UNL     1     -10.944  13.258  65.859  1.00  0.00    -0.288 C  
BRANCH  14  15
HETATM   15  C   UNL     1     -11.178  14.594  65.211  1.00  0.00    -0.358 C  
HETATM   16  C   UNL     1     -10.525  15.712  65.571  1.00  0.00    -0.426 C  
BRANCH  16  17
HETATM   17  C   UNL     1      -9.535  15.783  66.695  1.00  0.00    -0.279 C  
BRANCH  17  18
HETATM   18  C   UNL     1      -9.619  17.064  67.479  1.00  0.00    -0.249 C  
HETATM   19  C   UNL     1     -10.064  17.112  68.747  1.00  0.00    -0.329 C  
BRANCH  19  20
HETATM   20  C   UNL     1     -10.502  15.872  69.480  1.00  0.00    -0.281 C  
BRANCH  20  21
HETATM   21  C   UNL     1     -12.010  15.693  69.599  1.00  0.00    -0.367 C  
HETATM   22  C   UNL     1     -12.405  15.809  71.055  1.00  0.00    -0.415 C  
HETATM   23  O   UNL     1     -13.555  15.153  71.345  1.00  0.00    -0.418 OA 
HETATM   24  O   UNL     1     -11.795  16.441  71.899  1.00  0.00    -0.497 OA 
ENDBRANCH  20  21
ENDBRANCH  19  20
ENDBRANCH  17  18
ENDBRANCH  16  17
ENDBRANCH  14  15
ENDBRANCH  13  14
ENDBRANCH  11  12
ENDBRANCH  10  11
ENDBRANCH   8   9
ENDBRANCH   7   8
ENDBRANCH   5   6
ENDBRANCH   4   5
ENDBRANCH   2   3
TORSDOF 13
ENDMDL
MODEL      183
REMARK 921   NORMALIZED FREE ENERGY PREDICTED BY IDOCK:   -4.17 KCAL/MOL
REMARK 922        TOTAL FREE ENERGY PREDICTED BY IDOCK:  -10.11 KCAL/MOL
REMARK 923 INTER-LIGAND FREE ENERGY PREDICTED BY IDOCK:   -7.97 KCAL/MOL
REMARK 924 INTRA-LIGAND FREE ENERGY PREDICTED BY IDOCK:   -2.15 KCAL/MOL
REMARK 927      BINDING AFFINITY PREDICTED BY RF-SCORE:    0.00 PKD
ROOT
HETATM    1  C   UNL     1     -10.525   9.083  67.422  1.00  0.00    -0.338 C  
HETATM    2  C   UNL     1      -9.382   9.898  66.839  1.00  0.00    -0.184 C  
ENDROOT
BRANCH   2   3
HETATM    3  C   UNL     1      -8.951   9.402  65.488  1.00  0.00    -0.248 C  
HETATM    4  C   UNL     1      -9.090  10.074  64.332  1.00  0.00    -0.289 C  
BRANCH   4   5
HETATM    5  C   UNL     1      -9.784  11.397  64.170  1.00  0.00    -0.267 C  
BRANCH   5   6
HETATM    6  C   UNL     1     -11.281  11.251  64.180  1.00  0.00    -0.222 C  
HETATM    7  C   UNL     1     -12.175  12.210  63.880  1.00  0.00    -0.587 C  
BRANCH   7   8
HETATM    8  C   UNL     1     -11.818  13.620  63.510  1.00  0.00    -0.217 C  
BRANCH   8   9
HETATM    9  C   UNL     1     -12.195  14.607  64.575  1.00  0.00    -0.473 C  
HETATM   10  C   UNL     1     -11.468  14.936  65.656  1.00  0.00    -0.290 C  
BRANCH  10  11
HETATM   11  C   UNL     1     -10.087  14.449  66.002  1.00  0.00    -0.338 C  
BRANCH  11  12
HETATM   12  C   UNL     1     -10.027  13.720  67.316  1.00  0.00    -0.239 C  
HETATM   13  C   UNL     1     -10.610  14.091  68.467  1.00  0.00    -0.260 C  
BRANCH  13  14
HETATM   14  C   UNL     1     -11.376  15.354  68.681  1.00  0.00    -0.337 C  
BRANCH  14  15
HETATM   15  C   UNL     1     -10.583  16.411  69.398  1.00  0.00    -0.317 C  
HETATM   16  C   UNL     1     -10.140  17.531  68.801  1.00  0.00    -0.363 C  
BRANCH  16  17
HETATM   17  C   UNL     1     -10.324  17.837  67.345  1.00  0.00    -0.370 C  
BRANCH  17  18
HETATM   18  C   UNL     1     -10.805  19.239  67.090  1.00  0.00    -0.543 C  
HETATM   19  C   UNL     1      -9.987  20.226  66.682  1.00  0.00    -0.561 C  
BRANCH  19  20
HETATM   20  C   UNL     1      -8.521  19.987  66.438  1.00  0.00    -0.341 C  
BRANCH  20  21
HETATM   21  C   UNL     1      -7.588  20.604  67.473  1.00  0.00    -0.340 C  
HETATM   22  C   UNL     1      -6.971  19.496  68.300  1.00  0.00    -0.293 C  
HETATM   23  O   UNL     1      -6.590  19.907  69.534  1.00  0.00    -0.335 OA 
HETATM   24  O   UNL     1      -6.795  18.352  67.921  1.00  0.00    -0.211 OA 
ENDBRANCH  20  21
ENDBRANCH  19  20
ENDBRANCH  17  18
ENDBRANCH  16  17
ENDBRANCH  14  15
ENDBRANCH  13  14
ENDBRANCH  11  12
ENDBRANCH  10  11
ENDBRANCH   8   9
ENDBRANCH   7   8
ENDBRANCH   5   6
ENDBRANCH   4   5
ENDBRANCH   2   3
TORSDOF 13
ENDMDL
MODEL      184
REMARK 921   NORMALIZED FREE ENERGY PREDICTED BY IDOCK:   -4.17 KCAL/MOL
REMARK 922        TOTAL FREE ENERGY PREDICTED BY IDOCK:  -10.11 KCAL/MOL
REMARK 923 INTER-LIGAND FREE ENERGY PREDICTED BY IDOCK:   -8.46 KCAL/MOL
REMARK 924 INTRA-LIGAND FREE ENERGY PREDICTED BY IDOCK:   -1.65 KCAL/MOL
REMARK 927      BINDING AFFINITY PREDICTED BY RF-SCORE:    0.00 PKD
ROOT
HETATM    1  C   UNL     1     -10.499   6.535  73.964  1.00  0.00    -0.306 C  
HETATM    2  C   UNL     1     -11.239   6.579  72.638  1.00  0.00    -0.284 C  
ENDROOT
BRANCH   2   3
HETATM    3  C   UNL     1     -11.743   7.955  72.305  1.00  0.00    -0.408 C  
HETATM    4  C   UNL     1     -11.299   8.723  71.295  1.00  0.00    -0.357 C  
BRANCH   4   5
HETATM    5  C   UNL     1     -10.159   8.384  70.377  1.00  0.00    -0.202 C  
BRANCH   5   6
HETATM    6  C   UNL     1      -9.146   9.494  70.306  1.00  0.00    -0.296 C  
HETATM    7  C   UNL     1      -8.693  10.086  69.187  1.00  0.00    -0.168 C  
BRANCH   7   8
HETATM    8  C   UNL     1      -9.108   9.706  67.796  1.00  0.00    -0.132 C  
BRANCH   8   9
HETATM    9  C   UNL     1     -10.592   9.791  67.594  1.00  0.00    -0.333 C  
HETATM   10  C   UNL     1     -11.380  10.841  67.878  1.00  0.00    -0.372 C  
BRANCH  10  11
HETATM   11  C   UNL     1     -10.946  12.189  68.388  1.00  0.00    -0.271 C  
BRANCH  11  12
HETATM   12  C   UNL     1     -11.846  12.735  69.462  1.00  0.00    -0.379 C  
HETATM   13  C   UNL     1     -12.184  14.021  69.648  1.00  0.00    -0.383 C  
BRANCH  13  14
HETATM   14  C   UNL     1     -11.663  15.175  68.858  1.00  0.00    -0.357 C  
BRANCH  14  15
HETATM   15  C   UNL     1     -10.814  16.111  69.672  1.00  0.00    -0.338 C  
HETATM   16  C   UNL     1     -10.188  17.180  69.151  1.00  0.00    -0.284 C  
BRANCH  16  17
HETATM   17  C   UNL     1     -10.206  17.537  67.694  1.00  0.00    -0.343 C  
BRANCH  17  18
HETATM   18  C   UNL     1      -9.066  16.934  66.922  1.00  0.00    -0.248 C  
HETATM   19  C   UNL     1      -9.251  16.130  65.859  1.00  0.00    -0.296 C  
BRANCH  19  20
HETATM   20  C   UNL     1     -10.628  15.787  65.358  1.00  0.00    -0.441 C  
BRANCH  20  21
HETATM   21  C   UNL     1     -10.973  14.303  65.387  1.00  0.00    -0.335 C  
HETATM   22  C   UNL     1     -12.284  14.089  64.663  1.00  0.00    -0.435 C  
HETATM   23  O   UNL     1     -12.942  12.979  65.077  1.00  0.00    -0.723 OA 
HETATM   24  O   UNL     1     -12.721  14.802  63.777  1.00  0.00    -0.767 OA 
ENDBRANCH  20  21
ENDBRANCH  19  20
ENDBRANCH  17  18
ENDBRANCH  16  17
ENDBRANCH  14  15
ENDBRANCH  13  14
ENDBRANCH  11  12
ENDBRANCH  10  11
ENDBRANCH   8   9
ENDBRANCH   7   8
ENDBRANCH   5   6
ENDBRANCH   4   5
ENDBRANCH   2   3
TORSDOF 13
ENDMDL
MODEL      185
REMARK 921   NORMALIZED FREE ENERGY PREDICTED BY IDOCK:   -4.16 KCAL/MOL
REMARK 922        TOTAL FREE ENERGY PREDICTED BY IDOCK:  -10.10 KCAL/MOL
REMARK 923 INTER-LIGAND FREE ENERGY PREDICTED BY IDOCK:   -6.92 KCAL/MOL
REMARK 924 INTRA-LIGAND FREE ENERGY PREDICTED BY IDOCK:   -3.19 KCAL/MOL
REMARK 927      BINDING AFFINITY PREDICTED BY RF-SCORE:    0.00 PKD
ROOT
HETATM    1  C   UNL     1     -12.280  14.550  64.390  1.00  0.00    -0.480 C  
HETATM    2  C   UNL     1     -10.940  13.858  64.212  1.00  0.00    -0.219 C  
ENDROOT
BRANCH   2   3
HETATM    3  C   UNL     1     -11.056  12.561  63.462  1.00  0.00    -0.497 C  
HETATM    4  C   UNL     1     -10.673  11.358  63.925  1.00  0.00    -0.462 C  
BRANCH   4   5
HETATM    5  C   UNL     1      -9.976  11.107  65.232  1.00  0.00    -0.311 C  
BRANCH   5   6
HETATM    6  C   UNL     1      -9.493   9.687  65.348  1.00  0.00    -0.343 C  
HETATM    7  C   UNL     1      -8.630   9.214  66.264  1.00  0.00    -0.137 C  
BRANCH   7   8
HETATM    8  C   UNL     1      -7.970  10.048  67.323  1.00  0.00    -0.106 C  
BRANCH   8   9
HETATM    9  C   UNL     1      -6.725  10.725  66.829  1.00  0.00    -0.110 C  
HETATM   10  C   UNL     1      -6.375  12.006  67.032  1.00  0.00    -0.124 C  
BRANCH  10  11
HETATM   11  C   UNL     1      -7.110  13.026  67.859  1.00  0.00    -0.128 C  
BRANCH  11  12
HETATM   12  C   UNL     1      -6.602  14.428  67.660  1.00  0.00    -0.172 C  
HETATM   13  C   UNL     1      -7.295  15.471  67.176  1.00  0.00    -0.226 C  
BRANCH  13  14
HETATM   14  C   UNL     1      -8.698  15.417  66.668  1.00  0.00    -0.332 C  
BRANCH  14  15
HETATM   15  C   UNL     1      -9.545  16.560  67.152  1.00  0.00    -0.243 C  
HETATM   16  C   UNL     1     -10.493  16.427  68.096  1.00  0.00    -0.302 C  
BRANCH  16  17
HETATM   17  C   UNL     1     -10.864  15.122  68.735  1.00  0.00    -0.247 C  
BRANCH  17  18
HETATM   18  C   UNL     1     -11.791  14.291  67.892  1.00  0.00    -0.393 C  
HETATM   19  C   UNL     1     -11.710  12.949  67.828  1.00  0.00    -0.412 C  
BRANCH  19  20
HETATM   20  C   UNL     1     -10.685  12.181  68.617  1.00  0.00    -0.261 C  
BRANCH  20  21
HETATM   21  C   UNL     1     -11.173  10.855  69.188  1.00  0.00    -0.318 C  
HETATM   22  C   UNL     1     -11.803  11.106  70.541  1.00  0.00    -0.351 C  
HETATM   23  O   UNL     1     -11.769  10.019  71.350  1.00  0.00    -0.367 OA 
HETATM   24  O   UNL     1     -12.321  12.151  70.891  1.00  0.00    -0.373 OA 
ENDBRANCH  20  21
ENDBRANCH  19  20
ENDBRANCH  17  18
ENDBRANCH  16  17
ENDBRANCH  14  15
ENDBRANCH  13  14
ENDBRANCH  11  12
ENDBRANCH  10  11
ENDBRANCH   8   9
ENDBRANCH   7   8
ENDBRANCH   5   6
ENDBRANCH   4   5
ENDBRANCH   2   3
TORSDOF 13
ENDMDL
MODEL      186
REMARK 921   NORMALIZED FREE ENERGY PREDICTED BY IDOCK:   -4.16 KCAL/MOL
REMARK 922        TOTAL FREE ENERGY PREDICTED BY IDOCK:  -10.10 KCAL/MOL
REMARK 923 INTER-LIGAND FREE ENERGY PREDICTED BY IDOCK:   -8.12 KCAL/MOL
REMARK 924 INTRA-LIGAND FREE ENERGY PREDICTED BY IDOCK:   -1.98 KCAL/MOL
REMARK 927      BINDING AFFINITY PREDICTED BY RF-SCORE:    0.00 PKD
ROOT
HETATM    1  C   UNL     1      -7.305   6.673  71.494  1.00  0.00    -0.087 C  
HETATM    2  C   UNL     1      -8.659   6.800  72.172  1.00  0.00    -0.117 C  
ENDROOT
BRANCH   2   3
HETATM    3  C   UNL     1      -9.493   5.558  72.029  1.00  0.00    -0.171 C  
HETATM    4  C   UNL     1     -10.529   5.409  71.186  1.00  0.00    -0.295 C  
BRANCH   4   5
HETATM    5  C   UNL     1     -11.097   6.485  70.304  1.00  0.00    -0.392 C  
BRANCH   5   6
HETATM    6  C   UNL     1     -12.118   7.322  71.025  1.00  0.00    -0.361 C  
HETATM    7  C   UNL     1     -11.990   8.619  71.358  1.00  0.00    -0.355 C  
BRANCH   7   8
HETATM    8  C   UNL     1     -10.770   9.450  71.089  1.00  0.00    -0.417 C  
BRANCH   8   9
HETATM    9  C   UNL     1     -10.517   9.641  69.622  1.00  0.00    -0.246 C  
HETATM   10  C   UNL     1     -11.101  10.546  68.819  1.00  0.00    -0.315 C  
BRANCH  10  11
HETATM   11  C   UNL     1     -12.081  11.616  69.221  1.00  0.00    -0.323 C  
BRANCH  11  12
HETATM   12  C   UNL     1     -11.497  13.001  69.177  1.00  0.00    -0.353 C  
HETATM   13  C   UNL     1     -11.603  13.885  68.173  1.00  0.00    -0.370 C  
BRANCH  13  14
HETATM   14  C   UNL     1     -12.267  13.629  66.861  1.00  0.00    -0.398 C  
BRANCH  14  15
HETATM   15  C   UNL     1     -11.338  13.043  65.834  1.00  0.00    -0.344 C  
HETATM   16  C   UNL     1     -10.471  13.780  65.119  1.00  0.00    -0.399 C  
BRANCH  16  17
HETATM   17  C   UNL     1     -10.364  15.273  65.208  1.00  0.00    -0.430 C  
BRANCH  17  18
HETATM   18  C   UNL     1      -9.190  15.735  66.027  1.00  0.00    -0.379 C  
HETATM   19  C   UNL     1      -9.293  16.687  66.972  1.00  0.00    -0.236 C  
BRANCH  19  20
HETATM   20  C   UNL     1     -10.607  17.351  67.287  1.00  0.00    -0.284 C  
BRANCH  20  21
HETATM   21  C   UNL     1     -10.495  18.740  67.904  1.00  0.00    -0.448 C  
HETATM   22  C   UNL     1     -10.242  19.748  66.803  1.00  0.00    -0.462 C  
HETATM   23  O   UNL     1      -9.603  20.860  67.241  1.00  0.00    -0.435 OA 
HETATM   24  O   UNL     1     -10.586  19.619  65.642  1.00  0.00    -0.503 OA 
ENDBRANCH  20  21
ENDBRANCH  19  20
ENDBRANCH  17  18
ENDBRANCH  16  17
ENDBRANCH  14  15
ENDBRANCH  13  14
ENDBRANCH  11  12
ENDBRANCH  10  11
ENDBRANCH   8   9
ENDBRANCH   7   8
ENDBRANCH   5   6
ENDBRANCH   4   5
ENDBRANCH   2   3
TORSDOF 13
ENDMDL
MODEL      187
REMARK 921   NORMALIZED FREE ENERGY PREDICTED BY IDOCK:   -4.16 KCAL/MOL
REMARK 922        TOTAL FREE ENERGY PREDICTED BY IDOCK:  -10.09 KCAL/MOL
REMARK 923 INTER-LIGAND FREE ENERGY PREDICTED BY IDOCK:   -6.86 KCAL/MOL
REMARK 924 INTRA-LIGAND FREE ENERGY PREDICTED BY IDOCK:   -3.23 KCAL/MOL
REMARK 927      BINDING AFFINITY PREDICTED BY RF-SCORE:    0.00 PKD
ROOT
HETATM    1  C   UNL     1      -9.353  15.289  66.062  1.00  0.00    -0.346 C  
HETATM    2  C   UNL     1     -10.274  15.461  67.258  1.00  0.00    -0.254 C  
ENDROOT
BRANCH   2   3
HETATM    3  C   UNL     1     -11.519  14.626  67.151  1.00  0.00    -0.380 C  
HETATM    4  C   UNL     1     -11.984  13.796  68.101  1.00  0.00    -0.394 C  
BRANCH   4   5
HETATM    5  C   UNL     1     -11.295  13.484  69.399  1.00  0.00    -0.293 C  
BRANCH   5   6
HETATM    6  C   UNL     1     -12.263  13.427  70.549  1.00  0.00    -0.425 C  
HETATM    7  C   UNL     1     -12.679  12.316  71.183  1.00  0.00    -0.340 C  
BRANCH   7   8
HETATM    8  C   UNL     1     -12.261  10.922  70.819  1.00  0.00    -0.483 C  
BRANCH   8   9
HETATM    9  C   UNL     1     -13.259   9.890  71.255  1.00  0.00    -0.465 C  
HETATM   10  C   UNL     1     -13.001   8.767  71.946  1.00  0.00    -0.421 C  
BRANCH  10  11
HETATM   11  C   UNL     1     -11.672   8.329  72.501  1.00  0.00    -0.451 C  
BRANCH  11  12
HETATM   12  C   UNL     1     -11.161   7.057  71.883  1.00  0.00    -0.282 C  
HETATM   13  C   UNL     1     -10.461   6.943  70.744  1.00  0.00    -0.238 C  
BRANCH  13  14
HETATM   14  C   UNL     1     -10.115   8.067  69.824  1.00  0.00    -0.196 C  
BRANCH  14  15
HETATM   15  C   UNL     1     -10.202   7.689  68.372  1.00  0.00    -0.226 C  
HETATM   16  C   UNL     1     -10.491   8.568  67.397  1.00  0.00    -0.351 C  
BRANCH  16  17
HETATM   17  C   UNL     1     -10.823  10.010  67.638  1.00  0.00    -0.336 C  
BRANCH  17  18
HETATM   18  C   UNL     1     -10.289  10.928  66.573  1.00  0.00    -0.299 C  
HETATM   19  C   UNL     1      -9.199  11.694  66.753  1.00  0.00    -0.190 C  
BRANCH  19  20
HETATM   20  C   UNL     1      -8.422  11.675  68.042  1.00  0.00    -0.151 C  
BRANCH  20  21
HETATM   21  C   UNL     1      -7.528  12.887  68.274  1.00  0.00    -0.125 C  
HETATM   22  C   UNL     1      -6.243  12.431  68.930  1.00  0.00    -0.079 C  
HETATM   23  O   UNL     1      -5.644  13.407  69.655  1.00  0.00    -0.088 OA 
HETATM   24  O   UNL     1      -5.754  11.321  68.818  1.00  0.00    -0.043 OA 
ENDBRANCH  20  21
ENDBRANCH  19  20
ENDBRANCH  17  18
ENDBRANCH  16  17
ENDBRANCH  14  15
ENDBRANCH  13  14
ENDBRANCH  11  12
ENDBRANCH  10  11
ENDBRANCH   8   9
ENDBRANCH   7   8
ENDBRANCH   5   6
ENDBRANCH   4   5
ENDBRANCH   2   3
TORSDOF 13
ENDMDL
MODEL      188
REMARK 921   NORMALIZED FREE ENERGY PREDICTED BY IDOCK:   -4.15 KCAL/MOL
REMARK 922        TOTAL FREE ENERGY PREDICTED BY IDOCK:  -10.09 KCAL/MOL
REMARK 923 INTER-LIGAND FREE ENERGY PREDICTED BY IDOCK:   -7.51 KCAL/MOL
REMARK 924 INTRA-LIGAND FREE ENERGY PREDICTED BY IDOCK:   -2.57 KCAL/MOL
REMARK 927      BINDING AFFINITY PREDICTED BY RF-SCORE:    0.00 PKD
ROOT
HETATM    1  C   UNL     1     -12.759  13.868  65.136  1.00  0.00    -0.434 C  
HETATM    2  C   UNL     1     -12.551  12.525  64.455  1.00  0.00    -0.497 C  
ENDROOT
BRANCH   2   3
HETATM    3  C   UNL     1     -11.556  12.596  63.332  1.00  0.00    -0.536 C  
HETATM    4  C   UNL     1     -10.312  12.088  63.362  1.00  0.00    -0.468 C  
BRANCH   4   5
HETATM    5  C   UNL     1      -9.662  11.441  64.552  1.00  0.00    -0.268 C  
BRANCH   5   6
HETATM    6  C   UNL     1      -9.977   9.972  64.634  1.00  0.00    -0.206 C  
HETATM    7  C   UNL     1      -9.473   9.100  65.526  1.00  0.00    -0.276 C  
BRANCH   7   8
HETATM    8  C   UNL     1      -8.470   9.450  66.585  1.00  0.00    -0.130 C  
BRANCH   8   9
HETATM    9  C   UNL     1      -8.412   8.429  67.683  1.00  0.00    -0.130 C  
HETATM   10  C   UNL     1      -8.579   8.654  68.997  1.00  0.00    -0.129 C  
BRANCH  10  11
HETATM   11  C   UNL     1      -8.935   9.960  69.655  1.00  0.00    -0.232 C  
BRANCH  11  12
HETATM   12  C   UNL     1     -10.330   9.981  70.215  1.00  0.00    -0.301 C  
HETATM   13  C   UNL     1     -11.428  10.467  69.616  1.00  0.00    -0.326 C  
BRANCH  13  14
HETATM   14  C   UNL     1     -11.458  11.154  68.291  1.00  0.00    -0.373 C  
BRANCH  14  15
HETATM   15  C   UNL     1     -11.933  12.578  68.376  1.00  0.00    -0.271 C  
HETATM   16  C   UNL     1     -11.101  13.634  68.359  1.00  0.00    -0.289 C  
BRANCH  16  17
HETATM   17  C   UNL     1      -9.606  13.526  68.316  1.00  0.00    -0.218 C  
BRANCH  17  18
HETATM   18  C   UNL     1      -9.030  13.802  66.955  1.00  0.00    -0.234 C  
HETATM   19  C   UNL     1      -9.366  14.882  66.228  1.00  0.00    -0.329 C  
BRANCH  19  20
HETATM   20  C   UNL     1     -10.342  15.908  66.739  1.00  0.00    -0.298 C  
BRANCH  20  21
HETATM   21  C   UNL     1     -10.107  17.327  66.238  1.00  0.00    -0.323 C  
HETATM   22  C   UNL     1     -10.464  18.302  67.339  1.00  0.00    -0.409 C  
HETATM   23  O   UNL     1     -10.817  19.524  66.869  1.00  0.00    -0.476 OA 
HETATM   24  O   UNL     1     -10.424  18.059  68.532  1.00  0.00    -0.357 OA 
ENDBRANCH  20  21
ENDBRANCH  19  20
ENDBRANCH  17  18
ENDBRANCH  16  17
ENDBRANCH  14  15
ENDBRANCH  13  14
ENDBRANCH  11  12
ENDBRANCH  10  11
ENDBRANCH   8   9
ENDBRANCH   7   8
ENDBRANCH   5   6
ENDBRANCH   4   5
ENDBRANCH   2   3
TORSDOF 13
ENDMDL
MODEL      189
REMARK 921   NORMALIZED FREE ENERGY PREDICTED BY IDOCK:   -4.13 KCAL/MOL
REMARK 922        TOTAL FREE ENERGY PREDICTED BY IDOCK:  -10.05 KCAL/MOL
REMARK 923 INTER-LIGAND FREE ENERGY PREDICTED BY IDOCK:   -7.33 KCAL/MOL
REMARK 924 INTRA-LIGAND FREE ENERGY PREDICTED BY IDOCK:   -2.72 KCAL/MOL
REMARK 927      BINDING AFFINITY PREDICTED BY RF-SCORE:    0.00 PKD
ROOT
HETATM    1  C   UNL     1     -13.350  13.409  72.063  1.00  0.00    -0.569 C  
HETATM    2  C   UNL     1     -12.740  12.145  71.480  1.00  0.00    -0.348 C  
ENDROOT
BRANCH   2   3
HETATM    3  C   UNL     1     -13.385  10.896  72.010  1.00  0.00    -0.394 C  
HETATM    4  C   UNL     1     -12.899   9.650  71.870  1.00  0.00    -0.515 C  
BRANCH   4   5
HETATM    5  C   UNL     1     -11.676   9.274  71.082  1.00  0.00    -0.394 C  
BRANCH   5   6
HETATM    6  C   UNL     1     -10.589   8.722  71.962  1.00  0.00    -0.414 C  
HETATM    7  C   UNL     1      -9.271   8.725  71.694  1.00  0.00    -0.333 C  
BRANCH   7   8
HETATM    8  C   UNL     1      -8.661   9.263  70.433  1.00  0.00    -0.250 C  
BRANCH   8   9
HETATM    9  C   UNL     1      -8.085   8.182  69.566  1.00  0.00    -0.119 C  
HETATM   10  C   UNL     1      -8.745   7.451  68.652  1.00  0.00    -0.128 C  
BRANCH  10  11
HETATM   11  C   UNL     1     -10.184   7.601  68.238  1.00  0.00    -0.229 C  
BRANCH  11  12
HETATM   12  C   UNL     1     -10.347   8.117  66.835  1.00  0.00    -0.401 C  
HETATM   13  C   UNL     1     -10.241   9.393  66.432  1.00  0.00    -0.300 C  
BRANCH  13  14
HETATM   14  C   UNL     1     -10.011  10.566  67.326  1.00  0.00    -0.224 C  
BRANCH  14  15
HETATM   15  C   UNL     1     -11.237  10.970  68.096  1.00  0.00    -0.364 C  
HETATM   16  C   UNL     1     -11.905  12.114  67.870  1.00  0.00    -0.338 C  
BRANCH  16  17
HETATM   17  C   UNL     1     -11.482  13.153  66.875  1.00  0.00    -0.384 C  
BRANCH  17  18
HETATM   18  C   UNL     1     -11.530  14.553  67.421  1.00  0.00    -0.385 C  
HETATM   19  C   UNL     1     -10.528  15.089  68.140  1.00  0.00    -0.245 C  
BRANCH  19  20
HETATM   20  C   UNL     1      -9.269  14.318  68.439  1.00  0.00    -0.196 C  
BRANCH  20  21
HETATM   21  C   UNL     1      -8.183  14.423  67.375  1.00  0.00    -0.215 C  
HETATM   22  C   UNL     1      -7.005  15.180  67.949  1.00  0.00    -0.151 C  
HETATM   23  O   UNL     1      -6.257  15.793  67.000  1.00  0.00    -0.312 OA 
HETATM   24  O   UNL     1      -6.713  15.232  69.130  1.00  0.00    -0.118 OA 
ENDBRANCH  20  21
ENDBRANCH  19  20
ENDBRANCH  17  18
ENDBRANCH  16  17
ENDBRANCH  14  15
ENDBRANCH  13  14
ENDBRANCH  11  12
ENDBRANCH  10  11
ENDBRANCH   8   9
ENDBRANCH   7   8
ENDBRANCH   5   6
ENDBRANCH   4   5
ENDBRANCH   2   3
TORSDOF 13
ENDMDL
MODEL      190
REMARK 921   NORMALIZED FREE ENERGY PREDICTED BY IDOCK:   -4.13 KCAL/MOL
REMARK 922        TOTAL FREE ENERGY PREDICTED BY IDOCK:  -10.04 KCAL/MOL
REMARK 923 INTER-LIGAND FREE ENERGY PREDICTED BY IDOCK:   -7.92 KCAL/MOL
REMARK 924 INTRA-LIGAND FREE ENERGY PREDICTED BY IDOCK:   -2.12 KCAL/MOL
REMARK 927      BINDING AFFINITY PREDICTED BY RF-SCORE:    0.00 PKD
ROOT
HETATM    1  C   UNL     1     -13.265   9.856  71.741  1.00  0.00    -0.535 C  
HETATM    2  C   UNL     1     -11.963   9.075  71.676  1.00  0.00    -0.426 C  
ENDROOT
BRANCH   2   3
HETATM    3  C   UNL     1     -12.172   7.593  71.807  1.00  0.00    -0.341 C  
HETATM    4  C   UNL     1     -11.533   6.651  71.092  1.00  0.00    -0.370 C  
BRANCH   4   5
HETATM    5  C   UNL     1     -10.565   6.912  69.972  1.00  0.00    -0.254 C  
BRANCH   5   6
HETATM    6  C   UNL     1     -11.068   6.377  68.659  1.00  0.00    -0.393 C  
HETATM    7  C   UNL     1     -10.642   6.742  67.437  1.00  0.00    -0.372 C  
BRANCH   7   8
HETATM    8  C   UNL     1      -9.596   7.786  67.177  1.00  0.00    -0.220 C  
BRANCH   8   9
HETATM    9  C   UNL     1      -9.231   7.885  65.725  1.00  0.00    -0.033 C  
HETATM   10  C   UNL     1      -8.619   8.918  65.121  1.00  0.00    -0.208 C  
BRANCH  10  11
HETATM   11  C   UNL     1      -8.096  10.168  65.775  1.00  0.00    -0.142 C  
BRANCH  11  12
HETATM   12  C   UNL     1      -6.868   9.932  66.611  1.00  0.00    -0.084 C  
HETATM   13  C   UNL     1      -6.627  10.421  67.838  1.00  0.00    -0.061 C  
BRANCH  13  14
HETATM   14  C   UNL     1      -7.511  11.365  68.582  1.00  0.00    -0.119 C  
BRANCH  14  15
HETATM   15  C   UNL     1      -8.718  10.697  69.179  1.00  0.00    -0.135 C  
HETATM   16  C   UNL     1      -9.977  11.107  68.949  1.00  0.00    -0.188 C  
BRANCH  16  17
HETATM   17  C   UNL     1     -10.332  12.309  68.125  1.00  0.00    -0.221 C  
BRANCH  17  18
HETATM   18  C   UNL     1     -11.585  12.124  67.315  1.00  0.00    -0.404 C  
HETATM   19  C   UNL     1     -11.721  12.604  66.066  1.00  0.00    -0.470 C  
BRANCH  19  20
HETATM   20  C   UNL     1     -10.611  13.355  65.382  1.00  0.00    -0.310 C  
BRANCH  20  21
HETATM   21  C   UNL     1     -10.754  14.871  65.397  1.00  0.00    -0.391 C  
HETATM   22  C   UNL     1     -11.767  15.279  64.349  1.00  0.00    -0.285 C  
HETATM   23  O   UNL     1     -11.583  16.545  63.900  1.00  0.00    -1.175 OA 
HETATM   24  O   UNL     1     -12.681  14.581  63.947  1.00  0.00    -0.782 OA 
ENDBRANCH  20  21
ENDBRANCH  19  20
ENDBRANCH  17  18
ENDBRANCH  16  17
ENDBRANCH  14  15
ENDBRANCH  13  14
ENDBRANCH  11  12
ENDBRANCH  10  11
ENDBRANCH   8   9
ENDBRANCH   7   8
ENDBRANCH   5   6
ENDBRANCH   4   5
ENDBRANCH   2   3
TORSDOF 13
ENDMDL
MODEL      191
REMARK 921   NORMALIZED FREE ENERGY PREDICTED BY IDOCK:   -4.12 KCAL/MOL
REMARK 922        TOTAL FREE ENERGY PREDICTED BY IDOCK:  -10.03 KCAL/MOL
REMARK 923 INTER-LIGAND FREE ENERGY PREDICTED BY IDOCK:   -7.50 KCAL/MOL
REMARK 924 INTRA-LIGAND FREE ENERGY PREDICTED BY IDOCK:   -2.52 KCAL/MOL
REMARK 927      BINDING AFFINITY PREDICTED BY RF-SCORE:    0.00 PKD
ROOT
HETATM    1  C   UNL     1     -10.676   6.057  73.013  1.00  0.00    -0.279 C  
HETATM    2  C   UNL     1     -11.484   6.786  71.952  1.00  0.00    -0.318 C  
ENDROOT
BRANCH   2   3
HETATM    3  C   UNL     1     -11.871   8.175  72.375  1.00  0.00    -0.448 C  
HETATM    4  C   UNL     1     -11.744   9.281  71.622  1.00  0.00    -0.462 C  
BRANCH   4   5
HETATM    5  C   UNL     1     -11.108   9.342  70.262  1.00  0.00    -0.299 C  
BRANCH   5   6
HETATM    6  C   UNL     1      -9.611   9.463  70.347  1.00  0.00    -0.319 C  
HETATM    7  C   UNL     1      -8.844  10.330  69.664  1.00  0.00    -0.124 C  
BRANCH   7   8
HETATM    8  C   UNL     1      -9.363  11.318  68.661  1.00  0.00    -0.167 C  
BRANCH   8   9
HETATM    9  C   UNL     1      -8.329  12.331  68.264  1.00  0.00    -0.174 C  
HETATM   10  C   UNL     1      -8.439  13.248  67.287  1.00  0.00    -0.203 C  
BRANCH  10  11
HETATM   11  C   UNL     1      -9.644  13.514  66.426  1.00  0.00    -0.268 C  
BRANCH  11  12
HETATM   12  C   UNL     1     -10.570  14.548  67.004  1.00  0.00    -0.278 C  
HETATM   13  C   UNL     1     -11.888  14.664  66.775  1.00  0.00    -0.334 C  
BRANCH  13  14
HETATM   14  C   UNL     1     -12.679  13.821  65.831  1.00  0.00    -0.452 C  
BRANCH  14  15
HETATM   15  C   UNL     1     -12.426  14.156  64.388  1.00  0.00    -0.325 C  
HETATM   16  C   UNL     1     -11.978  13.260  63.491  1.00  0.00    -0.537 C  
BRANCH  16  17
HETATM   17  C   UNL     1     -11.617  11.844  63.826  1.00  0.00    -0.555 C  
BRANCH  17  18
HETATM   18  C   UNL     1     -10.222  11.472  63.403  1.00  0.00    -0.462 C  
HETATM   19  C   UNL     1      -9.475  10.575  64.071  1.00  0.00    -0.337 C  
BRANCH  19  20
HETATM   20  C   UNL     1      -9.996   9.864  65.292  1.00  0.00    -0.320 C  
BRANCH  20  21
HETATM   21  C   UNL     1      -9.035   8.855  65.909  1.00  0.00    -0.244 C  
HETATM   22  C   UNL     1      -9.794   7.990  66.891  1.00  0.00    -0.248 C  
HETATM   23  O   UNL     1      -9.002   7.466  67.857  1.00  0.00    -0.132 OA 
HETATM   24  O   UNL     1     -10.986   7.746  66.835  1.00  0.00    -0.217 OA 
ENDBRANCH  20  21
ENDBRANCH  19  20
ENDBRANCH  17  18
ENDBRANCH  16  17
ENDBRANCH  14  15
ENDBRANCH  13  14
ENDBRANCH  11  12
ENDBRANCH  10  11
ENDBRANCH   8   9
ENDBRANCH   7   8
ENDBRANCH   5   6
ENDBRANCH   4   5
ENDBRANCH   2   3
TORSDOF 13
ENDMDL
MODEL      192
REMARK 921   NORMALIZED FREE ENERGY PREDICTED BY IDOCK:   -4.12 KCAL/MOL
REMARK 922        TOTAL FREE ENERGY PREDICTED BY IDOCK:  -10.02 KCAL/MOL
REMARK 923 INTER-LIGAND FREE ENERGY PREDICTED BY IDOCK:   -7.09 KCAL/MOL
REMARK 924 INTRA-LIGAND FREE ENERGY PREDICTED BY IDOCK:   -2.93 KCAL/MOL
REMARK 927      BINDING AFFINITY PREDICTED BY RF-SCORE:    0.00 PKD
ROOT
HETATM    1  C   UNL     1      -9.002   3.920  68.183  1.00  0.00    -0.158 C  
HETATM    2  C   UNL     1     -10.246   4.256  67.379  1.00  0.00     0.109 C  
ENDROOT
BRANCH   2   3
HETATM    3  C   UNL     1     -10.271   5.688  66.927  1.00  0.00    -0.272 C  
HETATM    4  C   UNL     1     -10.699   6.730  67.661  1.00  0.00    -0.357 C  
BRANCH   4   5
HETATM    5  C   UNL     1     -11.314   6.637  69.029  1.00  0.00    -0.235 C  
BRANCH   5   6
HETATM    6  C   UNL     1     -10.428   7.238  70.086  1.00  0.00    -0.229 C  
HETATM    7  C   UNL     1     -10.709   8.315  70.841  1.00  0.00    -0.250 C  
BRANCH   7   8
HETATM    8  C   UNL     1     -11.964   9.128  70.728  1.00  0.00    -0.243 C  
BRANCH   8   9
HETATM    9  C   UNL     1     -11.691  10.602  70.668  1.00  0.00    -0.454 C  
HETATM   10  C   UNL     1     -11.584  11.352  69.558  1.00  0.00    -0.399 C  
BRANCH  10  11
HETATM   11  C   UNL     1     -11.786  10.902  68.136  1.00  0.00    -0.231 C  
BRANCH  11  12
HETATM   12  C   UNL     1     -10.667  10.037  67.623  1.00  0.00    -0.340 C  
HETATM   13  C   UNL     1      -9.515  10.456  67.078  1.00  0.00    -0.189 C  
BRANCH  13  14
HETATM   14  C   UNL     1      -9.153  11.878  66.806  1.00  0.00    -0.197 C  
BRANCH  14  15
HETATM   15  C   UNL     1      -8.250  12.468  67.853  1.00  0.00    -0.165 C  
HETATM   16  C   UNL     1      -8.340  13.742  68.271  1.00  0.00    -0.161 C  
BRANCH  16  17
HETATM   17  C   UNL     1      -9.302  14.745  67.708  1.00  0.00    -0.199 C  
BRANCH  17  18
HETATM   18  C   UNL     1     -10.685  14.632  68.288  1.00  0.00    -0.240 C  
HETATM   19  C   UNL     1     -11.775  14.409  67.532  1.00  0.00    -0.416 C  
BRANCH  19  20
HETATM   20  C   UNL     1     -11.681  14.244  66.038  1.00  0.00    -0.384 C  
BRANCH  20  21
HETATM   21  C   UNL     1     -12.524  13.113  65.462  1.00  0.00    -0.516 C  
HETATM   22  C   UNL     1     -11.999  12.761  64.087  1.00  0.00    -0.427 C  
HETATM   23  O   UNL     1     -12.940  12.202  63.288  1.00  0.00    -0.735 OA 
HETATM   24  O   UNL     1     -10.851  12.922  63.712  1.00  0.00    -0.401 OA 
ENDBRANCH  20  21
ENDBRANCH  19  20
ENDBRANCH  17  18
ENDBRANCH  16  17
ENDBRANCH  14  15
ENDBRANCH  13  14
ENDBRANCH  11  12
ENDBRANCH  10  11
ENDBRANCH   8   9
ENDBRANCH   7   8
ENDBRANCH   5   6
ENDBRANCH   4   5
ENDBRANCH   2   3
TORSDOF 13
ENDMDL
MODEL      193
REMARK 921   NORMALIZED FREE ENERGY PREDICTED BY IDOCK:   -4.11 KCAL/MOL
REMARK 922        TOTAL FREE ENERGY PREDICTED BY IDOCK:  -10.01 KCAL/MOL
REMARK 923 INTER-LIGAND FREE ENERGY PREDICTED BY IDOCK:   -7.61 KCAL/MOL
REMARK 924 INTRA-LIGAND FREE ENERGY PREDICTED BY IDOCK:   -2.41 KCAL/MOL
REMARK 927      BINDING AFFINITY PREDICTED BY RF-SCORE:    0.00 PKD
ROOT
HETATM    1  C   UNL     1     -12.120  13.188  63.328  1.00  0.00    -0.460 C  
HETATM    2  C   UNL     1     -12.343  12.699  64.749  1.00  0.00    -0.556 C  
ENDROOT
BRANCH   2   3
HETATM    3  C   UNL     1     -12.615  13.822  65.709  1.00  0.00    -0.525 C  
HETATM    4  C   UNL     1     -12.150  13.900  66.967  1.00  0.00    -0.451 C  
BRANCH   4   5
HETATM    5  C   UNL     1     -11.353  12.838  67.670  1.00  0.00    -0.359 C  
BRANCH   5   6
HETATM    6  C   UNL     1     -11.900  12.539  69.040  1.00  0.00    -0.344 C  
HETATM    7  C   UNL     1     -11.660  11.434  69.767  1.00  0.00    -0.407 C  
BRANCH   7   8
HETATM    8  C   UNL     1     -10.818  10.280  69.309  1.00  0.00    -0.275 C  
BRANCH   8   9
HETATM    9  C   UNL     1      -9.354  10.607  69.294  1.00  0.00    -0.136 C  
HETATM   10  C   UNL     1      -8.372   9.917  69.898  1.00  0.00    -0.200 C  
BRANCH  10  11
HETATM   11  C   UNL     1      -8.508   8.626  70.659  1.00  0.00    -0.174 C  
BRANCH  11  12
HETATM   12  C   UNL     1      -9.102   8.805  72.030  1.00  0.00    -0.259 C  
HETATM   13  C   UNL     1      -9.879   7.931  72.688  1.00  0.00    -0.316 C  
BRANCH  13  14
HETATM   14  C   UNL     1     -10.369   6.630  72.145  1.00  0.00    -0.222 C  
BRANCH  14  15
HETATM   15  C   UNL     1     -11.584   6.774  71.273  1.00  0.00    -0.366 C  
HETATM   16  C   UNL     1     -11.607   6.421  69.976  1.00  0.00    -0.446 C  
BRANCH  16  17
HETATM   17  C   UNL     1     -10.417   5.903  69.225  1.00  0.00    -0.342 C  
BRANCH  17  18
HETATM   18  C   UNL     1     -10.733   5.516  67.807  1.00  0.00    -0.186 C  
HETATM   19  C   UNL     1     -10.661   6.386  66.782  1.00  0.00    -0.328 C  
BRANCH  19  20
HETATM   20  C   UNL     1     -10.240   7.817  66.987  1.00  0.00    -0.375 C  
BRANCH  20  21
HETATM   21  C   UNL     1      -8.932   8.206  66.311  1.00  0.00    -0.215 C  
HETATM   22  C   UNL     1      -9.204   9.315  65.317  1.00  0.00    -0.212 C  
HETATM   23  O   UNL     1      -8.295   9.360  64.313  1.00  0.00    -0.151 OA 
HETATM   24  O   UNL     1     -10.117  10.117  65.394  1.00  0.00    -0.303 OA 
ENDBRANCH  20  21
ENDBRANCH  19  20
ENDBRANCH  17  18
ENDBRANCH  16  17
ENDBRANCH  14  15
ENDBRANCH  13  14
ENDBRANCH  11  12
ENDBRANCH  10  11
ENDBRANCH   8   9
ENDBRANCH   7   8
ENDBRANCH   5   6
ENDBRANCH   4   5
ENDBRANCH   2   3
TORSDOF 13
ENDMDL
MODEL      194
REMARK 921   NORMALIZED FREE ENERGY PREDICTED BY IDOCK:   -4.11 KCAL/MOL
REMARK 922        TOTAL FREE ENERGY PREDICTED BY IDOCK:  -10.01 KCAL/MOL
REMARK 923 INTER-LIGAND FREE ENERGY PREDICTED BY IDOCK:   -7.63 KCAL/MOL
REMARK 924 INTRA-LIGAND FREE ENERGY PREDICTED BY IDOCK:   -2.37 KCAL/MOL
REMARK 927      BINDING AFFINITY PREDICTED BY RF-SCORE:    0.00 PKD
ROOT
HETATM    1  C   UNL     1     -11.265   6.796  68.625  1.00  0.00    -0.166 C  
HETATM    2  C   UNL     1     -11.352   6.117  69.982  1.00  0.00    -0.443 C  
ENDROOT
BRANCH   2   3
HETATM    3  C   UNL     1     -12.235   6.862  70.943  1.00  0.00    -0.404 C  
HETATM    4  C   UNL     1     -11.970   8.072  71.466  1.00  0.00    -0.331 C  
BRANCH   4   5
HETATM    5  C   UNL     1     -10.704   8.854  71.257  1.00  0.00    -0.357 C  
BRANCH   5   6
HETATM    6  C   UNL     1      -9.615   8.421  72.199  1.00  0.00    -0.367 C  
HETATM    7  C   UNL     1      -8.294   8.596  72.020  1.00  0.00    -0.169 C  
BRANCH   7   8
HETATM    8  C   UNL     1      -7.676   9.236  70.812  1.00  0.00    -0.164 C  
BRANCH   8   9
HETATM    9  C   UNL     1      -7.156   8.229  69.829  1.00  0.00    -0.056 C  
HETATM   10  C   UNL     1      -7.650   7.973  68.606  1.00  0.00    -0.100 C  
BRANCH  10  11
HETATM   11  C   UNL     1      -8.782   8.688  67.918  1.00  0.00    -0.137 C  
BRANCH  11  12
HETATM   12  C   UNL     1      -8.354   9.955  67.231  1.00  0.00    -0.121 C  
HETATM   13  C   UNL     1      -8.702  11.207  67.568  1.00  0.00    -0.129 C  
BRANCH  13  14
HETATM   14  C   UNL     1      -9.652  11.577  68.657  1.00  0.00    -0.159 C  
BRANCH  14  15
HETATM   15  C   UNL     1     -11.093  11.397  68.270  1.00  0.00    -0.300 C  
HETATM   16  C   UNL     1     -12.110  11.996  68.913  1.00  0.00    -0.201 C  
BRANCH  16  17
HETATM   17  C   UNL     1     -11.944  12.863  70.125  1.00  0.00    -0.373 C  
BRANCH  17  18
HETATM   18  C   UNL     1     -12.712  12.368  71.319  1.00  0.00    -0.347 C  
HETATM   19  C   UNL     1     -13.605  13.129  71.976  1.00  0.00    -0.554 C  
BRANCH  19  20
HETATM   20  C   UNL     1     -13.910  14.539  71.547  1.00  0.00    -0.477 C  
BRANCH  20  21
HETATM   21  C   UNL     1     -13.995  15.553  72.681  1.00  0.00    -0.617 C  
HETATM   22  C   UNL     1     -12.594  15.895  73.141  1.00  0.00    -0.513 C  
HETATM   23  O   UNL     1     -12.548  16.320  74.426  1.00  0.00    -0.717 OA 
HETATM   24  O   UNL     1     -11.594  15.833  72.448  1.00  0.00    -0.432 OA 
ENDBRANCH  20  21
ENDBRANCH  19  20
ENDBRANCH  17  18
ENDBRANCH  16  17
ENDBRANCH  14  15
ENDBRANCH  13  14
ENDBRANCH  11  12
ENDBRANCH  10  11
ENDBRANCH   8   9
ENDBRANCH   7   8
ENDBRANCH   5   6
ENDBRANCH   4   5
ENDBRANCH   2   3
TORSDOF 13
ENDMDL
MODEL      195
REMARK 921   NORMALIZED FREE ENERGY PREDICTED BY IDOCK:   -4.11 KCAL/MOL
REMARK 922        TOTAL FREE ENERGY PREDICTED BY IDOCK:  -10.01 KCAL/MOL
REMARK 923 INTER-LIGAND FREE ENERGY PREDICTED BY IDOCK:   -6.42 KCAL/MOL
REMARK 924 INTRA-LIGAND FREE ENERGY PREDICTED BY IDOCK:   -3.59 KCAL/MOL
REMARK 927      BINDING AFFINITY PREDICTED BY RF-SCORE:    0.00 PKD
ROOT
HETATM    1  C   UNL     1     -11.720  14.931  64.774  1.00  0.00    -0.402 C  
HETATM    2  C   UNL     1     -12.071  13.551  64.242  1.00  0.00    -0.482 C  
ENDROOT
BRANCH   2   3
HETATM    3  C   UNL     1     -12.078  12.503  65.319  1.00  0.00    -0.500 C  
HETATM    4  C   UNL     1     -11.078  11.642  65.572  1.00  0.00    -0.297 C  
BRANCH   4   5
HETATM    5  C   UNL     1      -9.815  11.510  64.768  1.00  0.00    -0.286 C  
BRANCH   5   6
HETATM    6  C   UNL     1      -9.441  10.071  64.542  1.00  0.00    -0.359 C  
HETATM    7  C   UNL     1      -8.517   9.373  65.226  1.00  0.00    -0.161 C  
BRANCH   7   8
HETATM    8  C   UNL     1      -7.670   9.936  66.329  1.00  0.00    -0.105 C  
BRANCH   8   9
HETATM    9  C   UNL     1      -8.423  10.078  67.618  1.00  0.00    -0.114 C  
HETATM   10  C   UNL     1      -8.351  11.107  68.480  1.00  0.00    -0.154 C  
BRANCH  10  11
HETATM   11  C   UNL     1      -7.561  12.377  68.310  1.00  0.00    -0.131 C  
BRANCH  11  12
HETATM   12  C   UNL     1      -8.137  13.300  67.272  1.00  0.00    -0.150 C  
HETATM   13  C   UNL     1      -9.102  14.215  67.459  1.00  0.00    -0.195 C  
BRANCH  13  14
HETATM   14  C   UNL     1      -9.846  14.439  68.733  1.00  0.00    -0.214 C  
BRANCH  14  15
HETATM   15  C   UNL     1     -11.339  14.420  68.556  1.00  0.00    -0.307 C  
HETATM   16  C   UNL     1     -12.106  13.366  68.885  1.00  0.00    -0.289 C  
BRANCH  16  17
HETATM   17  C   UNL     1     -11.571  12.067  69.408  1.00  0.00    -0.393 C  
BRANCH  17  18
HETATM   18  C   UNL     1     -12.513  11.374  70.354  1.00  0.00    -0.345 C  
HETATM   19  C   UNL     1     -12.201  10.225  70.980  1.00  0.00    -0.487 C  
BRANCH  19  20
HETATM   20  C   UNL     1     -10.867   9.555  70.785  1.00  0.00    -0.386 C  
BRANCH  20  21
HETATM   21  C   UNL     1     -10.936   8.116  70.288  1.00  0.00    -0.240 C  
HETATM   22  C   UNL     1      -9.529   7.605  70.067  1.00  0.00    -0.161 C  
HETATM   23  O   UNL     1      -9.466   6.607  69.153  1.00  0.00    -0.138 OA 
HETATM   24  O   UNL     1      -8.538   8.004  70.652  1.00  0.00    -0.125 OA 
ENDBRANCH  20  21
ENDBRANCH  19  20
ENDBRANCH  17  18
ENDBRANCH  16  17
ENDBRANCH  14  15
ENDBRANCH  13  14
ENDBRANCH  11  12
ENDBRANCH  10  11
ENDBRANCH   8   9
ENDBRANCH   7   8
ENDBRANCH   5   6
ENDBRANCH   4   5
ENDBRANCH   2   3
TORSDOF 13
ENDMDL
MODEL      196
REMARK 921   NORMALIZED FREE ENERGY PREDICTED BY IDOCK:   -4.10 KCAL/MOL
REMARK 922        TOTAL FREE ENERGY PREDICTED BY IDOCK:  -10.00 KCAL/MOL
REMARK 923 INTER-LIGAND FREE ENERGY PREDICTED BY IDOCK:   -7.35 KCAL/MOL
REMARK 924 INTRA-LIGAND FREE ENERGY PREDICTED BY IDOCK:   -2.65 KCAL/MOL
REMARK 927      BINDING AFFINITY PREDICTED BY RF-SCORE:    0.00 PKD
ROOT
HETATM    1  C   UNL     1     -10.524   9.762  67.008  1.00  0.00    -0.295 C  
HETATM    2  C   UNL     1      -9.803  10.680  66.035  1.00  0.00    -0.280 C  
ENDROOT
BRANCH   2   3
HETATM    3  C   UNL     1      -9.304   9.953  64.819  1.00  0.00    -0.339 C  
HETATM    4  C   UNL     1      -9.278  10.450  63.571  1.00  0.00    -0.310 C  
BRANCH   4   5
HETATM    5  C   UNL     1      -9.830  11.784  63.152  1.00  0.00    -0.363 C  
BRANCH   5   6
HETATM    6  C   UNL     1     -11.332  11.775  63.085  1.00  0.00    -0.198 C  
HETATM    7  C   UNL     1     -12.157  12.692  63.620  1.00  0.00    -0.632 C  
BRANCH   7   8
HETATM    8  C   UNL     1     -11.705  13.882  64.415  1.00  0.00    -0.427 C  
BRANCH   8   9
HETATM    9  C   UNL     1     -12.661  14.235  65.517  1.00  0.00    -0.399 C  
HETATM   10  C   UNL     1     -12.521  13.947  66.822  1.00  0.00    -0.254 C  
BRANCH  10  11
HETATM   11  C   UNL     1     -11.346  13.276  67.481  1.00  0.00    -0.329 C  
BRANCH  11  12
HETATM   12  C   UNL     1     -11.549  13.036  68.952  1.00  0.00    -0.355 C  
HETATM   13  C   UNL     1     -11.951  13.936  69.863  1.00  0.00    -0.405 C  
BRANCH  13  14
HETATM   14  C   UNL     1     -12.204  15.382  69.598  1.00  0.00    -0.312 C  
BRANCH  14  15
HETATM   15  C   UNL     1     -11.071  16.269  70.032  1.00  0.00    -0.351 C  
HETATM   16  C   UNL     1     -10.300  16.956  69.170  1.00  0.00    -0.319 C  
BRANCH  16  17
HETATM   17  C   UNL     1     -10.431  16.876  67.678  1.00  0.00    -0.332 C  
BRANCH  17  18
HETATM   18  C   UNL     1      -9.161  17.220  66.952  1.00  0.00    -0.250 C  
HETATM   19  C   UNL     1      -8.212  16.308  66.674  1.00  0.00    -0.316 C  
BRANCH  19  20
HETATM   20  C   UNL     1      -8.366  14.862  67.064  1.00  0.00    -0.246 C  
BRANCH  20  21
HETATM   21  C   UNL     1      -7.755  14.489  68.409  1.00  0.00    -0.128 C  
HETATM   22  C   UNL     1      -6.609  13.528  68.179  1.00  0.00    -0.121 C  
HETATM   23  O   UNL     1      -6.362  12.734  69.248  1.00  0.00    -0.097 OA 
HETATM   24  O   UNL     1      -5.939  13.466  67.163  1.00  0.00    -0.285 OA 
ENDBRANCH  20  21
ENDBRANCH  19  20
ENDBRANCH  17  18
ENDBRANCH  16  17
ENDBRANCH  14  15
ENDBRANCH  13  14
ENDBRANCH  11  12
ENDBRANCH  10  11
ENDBRANCH   8   9
ENDBRANCH   7   8
ENDBRANCH   5   6
ENDBRANCH   4   5
ENDBRANCH   2   3
TORSDOF 13
ENDMDL
MODEL      197
REMARK 921   NORMALIZED FREE ENERGY PREDICTED BY IDOCK:   -4.09 KCAL/MOL
REMARK 922        TOTAL FREE ENERGY PREDICTED BY IDOCK:   -9.98 KCAL/MOL
REMARK 923 INTER-LIGAND FREE ENERGY PREDICTED BY IDOCK:   -7.33 KCAL/MOL
REMARK 924 INTRA-LIGAND FREE ENERGY PREDICTED BY IDOCK:   -2.64 KCAL/MOL
REMARK 927      BINDING AFFINITY PREDICTED BY RF-SCORE:    0.00 PKD
ROOT
HETATM    1  C   UNL     1     -10.338  14.377  66.934  1.00  0.00    -0.265 C  
HETATM    2  C   UNL     1     -11.588  14.682  67.743  1.00  0.00    -0.382 C  
ENDROOT
BRANCH   2   3
HETATM    3  C   UNL     1     -11.533  16.033  68.400  1.00  0.00    -0.331 C  
HETATM    4  C   UNL     1     -11.110  16.272  69.654  1.00  0.00    -0.333 C  
BRANCH   4   5
HETATM    5  C   UNL     1     -10.705  15.224  70.652  1.00  0.00    -0.214 C  
BRANCH   5   6
HETATM    6  C   UNL     1     -11.552  15.275  71.894  1.00  0.00    -0.515 C  
HETATM    7  C   UNL     1     -12.661  14.551  72.129  1.00  0.00    -0.391 C  
BRANCH   7   8
HETATM    8  C   UNL     1     -13.264  13.579  71.159  1.00  0.00    -0.218 C  
BRANCH   8   9
HETATM    9  C   UNL     1     -13.109  12.154  71.601  1.00  0.00    -0.413 C  
HETATM   10  C   UNL     1     -12.299  11.230  71.057  1.00  0.00    -0.472 C  
BRANCH  10  11
HETATM   11  C   UNL     1     -11.315  11.434  69.938  1.00  0.00    -0.300 C  
BRANCH  11  12
HETATM   12  C   UNL     1     -11.937  11.325  68.573  1.00  0.00    -0.288 C  
HETATM   13  C   UNL     1     -11.388  10.766  67.483  1.00  0.00    -0.283 C  
BRANCH  13  14
HETATM   14  C   UNL     1     -10.007  10.207  67.400  1.00  0.00    -0.238 C  
BRANCH  14  15
HETATM   15  C   UNL     1      -9.982   8.744  67.055  1.00  0.00    -0.307 C  
HETATM   16  C   UNL     1     -10.229   7.772  67.950  1.00  0.00    -0.259 C  
BRANCH  16  17
HETATM   17  C   UNL     1     -10.495   8.017  69.405  1.00  0.00    -0.223 C  
BRANCH  17  18
HETATM   18  C   UNL     1      -9.244   8.060  70.239  1.00  0.00    -0.155 C  
HETATM   19  C   UNL     1      -9.267   8.156  71.581  1.00  0.00    -0.220 C  
BRANCH  19  20
HETATM   20  C   UNL     1     -10.561   8.214  72.348  1.00  0.00    -0.393 C  
BRANCH  20  21
HETATM   21  C   UNL     1     -11.368   6.922  72.348  1.00  0.00    -0.308 C  
HETATM   22  C   UNL     1     -10.818   5.999  73.415  1.00  0.00    -0.231 C  
HETATM   23  O   UNL     1     -11.060   4.691  73.158  1.00  0.00    -0.260 OA 
HETATM   24  O   UNL     1     -10.240   6.361  74.424  1.00  0.00    -0.335 OA 
ENDBRANCH  20  21
ENDBRANCH  19  20
ENDBRANCH  17  18
ENDBRANCH  16  17
ENDBRANCH  14  15
ENDBRANCH  13  14
ENDBRANCH  11  12
ENDBRANCH  10  11
ENDBRANCH   8   9
ENDBRANCH   7   8
ENDBRANCH   5   6
ENDBRANCH   4   5
ENDBRANCH   2   3
TORSDOF 13
ENDMDL
MODEL      198
REMARK 921   NORMALIZED FREE ENERGY PREDICTED BY IDOCK:   -4.09 KCAL/MOL
REMARK 922        TOTAL FREE ENERGY PREDICTED BY IDOCK:   -9.97 KCAL/MOL
REMARK 923 INTER-LIGAND FREE ENERGY PREDICTED BY IDOCK:   -7.82 KCAL/MOL
REMARK 924 INTRA-LIGAND FREE ENERGY PREDICTED BY IDOCK:   -2.15 KCAL/MOL
REMARK 927      BINDING AFFINITY PREDICTED BY RF-SCORE:    0.00 PKD
ROOT
HETATM    1  C   UNL     1     -10.264   8.171  68.223  1.00  0.00    -0.245 C  
HETATM    2  C   UNL     1      -9.079   8.748  67.467  1.00  0.00    -0.146 C  
ENDROOT
BRANCH   2   3
HETATM    3  C   UNL     1      -9.324   8.830  65.987  1.00  0.00    -0.296 C  
HETATM    4  C   UNL     1      -9.556   9.961  65.298  1.00  0.00    -0.361 C  
BRANCH   4   5
HETATM    5  C   UNL     1      -9.705  11.331  65.896  1.00  0.00    -0.258 C  
BRANCH   5   6
HETATM    6  C   UNL     1     -11.139  11.646  66.228  1.00  0.00    -0.345 C  
HETATM    7  C   UNL     1     -11.938  12.500  65.565  1.00  0.00    -0.500 C  
BRANCH   7   8
HETATM    8  C   UNL     1     -11.514  13.319  64.382  1.00  0.00    -0.416 C  
BRANCH   8   9
HETATM    9  C   UNL     1     -11.722  14.790  64.596  1.00  0.00    -0.426 C  
HETATM   10  C   UNL     1     -10.920  15.620  65.284  1.00  0.00    -0.375 C  
BRANCH  10  11
HETATM   11  C   UNL     1      -9.603  15.282  65.929  1.00  0.00    -0.377 C  
BRANCH  11  12
HETATM   12  C   UNL     1      -9.743  14.808  67.350  1.00  0.00    -0.214 C  
HETATM   13  C   UNL     1      -9.258  15.410  68.447  1.00  0.00    -0.192 C  
BRANCH  13  14
HETATM   14  C   UNL     1      -8.413  16.640  68.457  1.00  0.00    -0.233 C  
BRANCH  14  15
HETATM   15  C   UNL     1      -7.029  16.401  68.993  1.00  0.00    -0.200 C  
HETATM   16  C   UNL     1      -6.237  17.385  69.453  1.00  0.00    -0.250 C  
BRANCH  16  17
HETATM   17  C   UNL     1      -6.604  18.839  69.434  1.00  0.00    -0.271 C  
BRANCH  17  18
HETATM   18  C   UNL     1      -6.149  19.549  68.189  1.00  0.00    -0.245 C  
HETATM   19  C   UNL     1      -7.006  20.091  67.305  1.00  0.00    -0.267 C  
BRANCH  19  20
HETATM   20  C   UNL     1      -8.496  20.033  67.512  1.00  0.00    -0.393 C  
BRANCH  20  21
HETATM   21  C   UNL     1      -9.328  20.176  66.243  1.00  0.00    -0.419 C  
HETATM   22  C   UNL     1     -10.418  19.126  66.250  1.00  0.00    -0.467 C  
HETATM   23  O   UNL     1     -10.845  18.799  65.006  1.00  0.00    -0.503 OA 
HETATM   24  O   UNL     1     -10.905  18.627  67.249  1.00  0.00    -0.426 OA 
ENDBRANCH  20  21
ENDBRANCH  19  20
ENDBRANCH  17  18
ENDBRANCH  16  17
ENDBRANCH  14  15
ENDBRANCH  13  14
ENDBRANCH  11  12
ENDBRANCH  10  11
ENDBRANCH   8   9
ENDBRANCH   7   8
ENDBRANCH   5   6
ENDBRANCH   4   5
ENDBRANCH   2   3
TORSDOF 13
ENDMDL
MODEL      199
REMARK 921   NORMALIZED FREE ENERGY PREDICTED BY IDOCK:   -4.09 KCAL/MOL
REMARK 922        TOTAL FREE ENERGY PREDICTED BY IDOCK:   -9.97 KCAL/MOL
REMARK 923 INTER-LIGAND FREE ENERGY PREDICTED BY IDOCK:   -7.82 KCAL/MOL
REMARK 924 INTRA-LIGAND FREE ENERGY PREDICTED BY IDOCK:   -2.15 KCAL/MOL
REMARK 927      BINDING AFFINITY PREDICTED BY RF-SCORE:    0.00 PKD
ROOT
HETATM    1  C   UNL     1      -9.323  10.653  62.333  1.00  0.00    -0.282 C  
HETATM    2  C   UNL     1      -8.750  10.295  63.694  1.00  0.00    -0.211 C  
ENDROOT
BRANCH   2   3
HETATM    3  C   UNL     1      -8.329   8.856  63.783  1.00  0.00    -0.164 C  
HETATM    4  C   UNL     1      -8.253   8.135  64.915  1.00  0.00    -0.150 C  
BRANCH   4   5
HETATM    5  C   UNL     1      -8.485   8.664  66.302  1.00  0.00    -0.131 C  
BRANCH   5   6
HETATM    6  C   UNL     1      -9.924   8.534  66.720  1.00  0.00    -0.351 C  
HETATM    7  C   UNL     1     -10.689   9.506  67.249  1.00  0.00    -0.269 C  
BRANCH   7   8
HETATM    8  C   UNL     1     -10.212  10.897  67.545  1.00  0.00    -0.224 C  
BRANCH   8   9
HETATM    9  C   UNL     1     -11.329  11.814  67.950  1.00  0.00    -0.362 C  
HETATM   10  C   UNL     1     -12.039  12.618  67.140  1.00  0.00    -0.192 C  
BRANCH  10  11
HETATM   11  C   UNL     1     -11.927  12.726  65.644  1.00  0.00    -0.503 C  
BRANCH  11  12
HETATM   12  C   UNL     1     -12.299  14.084  65.117  1.00  0.00    -0.468 C  
HETATM   13  C   UNL     1     -11.510  15.169  65.066  1.00  0.00    -0.339 C  
BRANCH  13  14
HETATM   14  C   UNL     1     -10.119  15.252  65.599  1.00  0.00    -0.401 C  
BRANCH  14  15
HETATM   15  C   UNL     1      -9.850  16.526  66.350  1.00  0.00    -0.311 C  
HETATM   16  C   UNL     1     -10.121  16.682  67.658  1.00  0.00    -0.272 C  
BRANCH  16  17
HETATM   17  C   UNL     1     -10.777  15.637  68.510  1.00  0.00    -0.264 C  
BRANCH  17  18
HETATM   18  C   UNL     1     -10.289  15.640  69.932  1.00  0.00    -0.322 C  
HETATM   19  C   UNL     1     -11.104  15.431  70.982  1.00  0.00    -0.377 C  
BRANCH  19  20
HETATM   20  C   UNL     1     -12.574  15.163  70.800  1.00  0.00    -0.452 C  
BRANCH  20  21
HETATM   21  C   UNL     1     -12.946  13.694  70.639  1.00  0.00    -0.134 C  
HETATM   22  C   UNL     1     -13.433  13.162  71.970  1.00  0.00    -0.507 C  
HETATM   23  O   UNL     1     -13.269  11.823  72.095  1.00  0.00    -0.498 OA 
HETATM   24  O   UNL     1     -13.949  13.832  72.846  1.00  0.00    -0.635 OA 
ENDBRANCH  20  21
ENDBRANCH  19  20
ENDBRANCH  17  18
ENDBRANCH  16  17
ENDBRANCH  14  15
ENDBRANCH  13  14
ENDBRANCH  11  12
ENDBRANCH  10  11
ENDBRANCH   8   9
ENDBRANCH   7   8
ENDBRANCH   5   6
ENDBRANCH   4   5
ENDBRANCH   2   3
TORSDOF 13
ENDMDL
MODEL      200
REMARK 921   NORMALIZED FREE ENERGY PREDICTED BY IDOCK:   -4.08 KCAL/MOL
REMARK 922        TOTAL FREE ENERGY PREDICTED BY IDOCK:   -9.96 KCAL/MOL
REMARK 923 INTER-LIGAND FREE ENERGY PREDICTED BY IDOCK:   -7.32 KCAL/MOL
REMARK 924 INTRA-LIGAND FREE ENERGY PREDICTED BY IDOCK:   -2.64 KCAL/MOL
REMARK 927      BINDING AFFINITY PREDICTED BY RF-SCORE:    0.00 PKD
ROOT
HETATM    1  C   UNL     1      -9.724   7.813  66.662  1.00  0.00    -0.292 C  
HETATM    2  C   UNL     1      -8.791   8.915  67.136  1.00  0.00    -0.133 C  
ENDROOT
BRANCH   2   3
HETATM    3  C   UNL     1      -7.907   9.434  66.037  1.00  0.00    -0.099 C  
HETATM    4  C   UNL     1      -8.197  10.465  65.226  1.00  0.00    -0.162 C  
BRANCH   4   5
HETATM    5  C   UNL     1      -9.495  11.223  65.210  1.00  0.00    -0.248 C  
BRANCH   5   6
HETATM    6  C   UNL     1     -10.356  10.838  64.038  1.00  0.00    -0.357 C  
HETATM    7  C   UNL     1     -11.308  11.597  63.468  1.00  0.00    -0.447 C  
BRANCH   7   8
HETATM    8  C   UNL     1     -11.698  12.968  63.937  1.00  0.00    -0.531 C  
BRANCH   8   9
HETATM    9  C   UNL     1     -12.511  12.935  65.198  1.00  0.00    -0.561 C  
HETATM   10  C   UNL     1     -12.398  13.768  66.246  1.00  0.00    -0.479 C  
BRANCH  10  11
HETATM   11  C   UNL     1     -11.490  14.962  66.362  1.00  0.00    -0.280 C  
BRANCH  11  12
HETATM   12  C   UNL     1     -10.060  14.655  66.010  1.00  0.00    -0.330 C  
HETATM   13  C   UNL     1      -8.997  14.740  66.825  1.00  0.00    -0.292 C  
BRANCH  13  14
HETATM   14  C   UNL     1      -9.025  15.233  68.234  1.00  0.00    -0.176 C  
BRANCH  14  15
HETATM   15  C   UNL     1      -9.575  16.626  68.361  1.00  0.00    -0.233 C  
HETATM   16  C   UNL     1     -10.439  16.992  69.324  1.00  0.00    -0.293 C  
BRANCH  16  17
HETATM   17  C   UNL     1     -11.006  16.053  70.346  1.00  0.00    -0.347 C  
BRANCH  17  18
HETATM   18  C   UNL     1     -12.400  15.593  70.021  1.00  0.00    -0.304 C  
HETATM   19  C   UNL     1     -12.764  14.298  70.047  1.00  0.00    -0.167 C  
BRANCH  19  20
HETATM   20  C   UNL     1     -11.792  13.211  70.421  1.00  0.00    -0.259 C  
BRANCH  20  21
HETATM   21  C   UNL     1     -12.138  11.827  69.887  1.00  0.00    -0.359 C  
HETATM   22  C   UNL     1     -11.196  11.489  68.751  1.00  0.00    -0.249 C  
HETATM   23  O   UNL     1     -11.720  10.594  67.879  1.00  0.00    -0.506 OA 
HETATM   24  O   UNL     1     -10.070  11.933  68.618  1.00  0.00    -0.216 OA 
ENDBRANCH  20  21
ENDBRANCH  19  20
ENDBRANCH  17  18
ENDBRANCH  16  17
ENDBRANCH  14  15
ENDBRANCH  13  14
ENDBRANCH  11  12
ENDBRANCH  10  11
ENDBRANCH   8   9
ENDBRANCH   7   8
ENDBRANCH   5   6
ENDBRANCH   4   5
ENDBRANCH   2   3
TORSDOF 13
ENDMDL
MODEL      201
REMARK 921   NORMALIZED FREE ENERGY PREDICTED BY IDOCK:   -4.08 KCAL/MOL
REMARK 922        TOTAL FREE ENERGY PREDICTED BY IDOCK:   -9.96 KCAL/MOL
REMARK 923 INTER-LIGAND FREE ENERGY PREDICTED BY IDOCK:   -7.62 KCAL/MOL
REMARK 924 INTRA-LIGAND FREE ENERGY PREDICTED BY IDOCK:   -2.34 KCAL/MOL
REMARK 927      BINDING AFFINITY PREDICTED BY RF-SCORE:    0.00 PKD
ROOT
HETATM    1  C   UNL     1     -11.378  12.261  63.522  1.00  0.00    -0.549 C  
HETATM    2  C   UNL     1     -12.630  12.444  64.363  1.00  0.00    -0.489 C  
ENDROOT
BRANCH   2   3
HETATM    3  C   UNL     1     -12.578  13.682  65.212  1.00  0.00    -0.512 C  
HETATM    4  C   UNL     1     -12.155  13.734  66.487  1.00  0.00    -0.483 C  
BRANCH   4   5
HETATM    5  C   UNL     1     -11.746  12.551  67.319  1.00  0.00    -0.431 C  
BRANCH   5   6
HETATM    6  C   UNL     1     -10.537  12.850  68.163  1.00  0.00    -0.249 C  
HETATM    7  C   UNL     1      -9.259  12.576  67.845  1.00  0.00    -0.200 C  
BRANCH   7   8
HETATM    8  C   UNL     1      -8.825  11.885  66.586  1.00  0.00    -0.191 C  
BRANCH   8   9
HETATM    9  C   UNL     1      -7.470  11.253  66.714  1.00  0.00    -0.146 C  
HETATM   10  C   UNL     1      -7.058  10.113  66.133  1.00  0.00    -0.114 C  
BRANCH  10  11
HETATM   11  C   UNL     1      -7.833   9.257  65.168  1.00  0.00    -0.110 C  
BRANCH  11  12
HETATM   12  C   UNL     1      -8.064   7.858  65.670  1.00  0.00    -0.130 C  
HETATM   13  C   UNL     1      -9.159   7.401  66.296  1.00  0.00    -0.195 C  
BRANCH  13  14
HETATM   14  C   UNL     1     -10.341   8.225  66.685  1.00  0.00    -0.293 C  
BRANCH  14  15
HETATM   15  C   UNL     1     -10.207   8.843  68.049  1.00  0.00    -0.262 C  
HETATM   16  C   UNL     1     -10.538   8.203  69.184  1.00  0.00    -0.179 C  
BRANCH  16  17
HETATM   17  C   UNL     1     -11.136   6.829  69.230  1.00  0.00    -0.289 C  
BRANCH  17  18
HETATM   18  C   UNL     1     -10.553   5.964  70.312  1.00  0.00    -0.354 C  
HETATM   19  C   UNL     1     -11.068   5.905  71.554  1.00  0.00    -0.314 C  
BRANCH  19  20
HETATM   20  C   UNL     1     -12.286   6.699  71.943  1.00  0.00    -0.381 C  
BRANCH  20  21
HETATM   21  C   UNL     1     -12.003   8.118  72.422  1.00  0.00    -0.431 C  
HETATM   22  C   UNL     1     -13.274   8.933  72.321  1.00  0.00    -0.447 C  
HETATM   23  O   UNL     1     -13.041  10.261  72.187  1.00  0.00    -0.438 OA 
HETATM   24  O   UNL     1     -14.404   8.481  72.378  1.00  0.00    -0.432 OA 
ENDBRANCH  20  21
ENDBRANCH  19  20
ENDBRANCH  17  18
ENDBRANCH  16  17
ENDBRANCH  14  15
ENDBRANCH  13  14
ENDBRANCH  11  12
ENDBRANCH  10  11
ENDBRANCH   8   9
ENDBRANCH   7   8
ENDBRANCH   5   6
ENDBRANCH   4   5
ENDBRANCH   2   3
TORSDOF 13
ENDMDL
MODEL      202
REMARK 921   NORMALIZED FREE ENERGY PREDICTED BY IDOCK:   -4.07 KCAL/MOL
REMARK 922        TOTAL FREE ENERGY PREDICTED BY IDOCK:   -9.95 KCAL/MOL
REMARK 923 INTER-LIGAND FREE ENERGY PREDICTED BY IDOCK:   -7.50 KCAL/MOL
REMARK 924 INTRA-LIGAND FREE ENERGY PREDICTED BY IDOCK:   -2.44 KCAL/MOL
REMARK 927      BINDING AFFINITY PREDICTED BY RF-SCORE:    0.00 PKD
ROOT
HETATM    1  C   UNL     1      -7.308   5.874  74.049  1.00  0.00    -0.088 C  
HETATM    2  C   UNL     1      -7.404   7.390  74.093  1.00  0.00    -0.128 C  
ENDROOT
BRANCH   2   3
HETATM    3  C   UNL     1      -7.519   8.001  72.725  1.00  0.00    -0.145 C  
HETATM    4  C   UNL     1      -8.669   8.358  72.127  1.00  0.00    -0.272 C  
BRANCH   4   5
HETATM    5  C   UNL     1     -10.048   8.125  72.677  1.00  0.00    -0.379 C  
BRANCH   5   6
HETATM    6  C   UNL     1     -10.481   6.693  72.518  1.00  0.00    -0.231 C  
HETATM    7  C   UNL     1     -11.090   6.162  71.444  1.00  0.00    -0.346 C  
BRANCH   7   8
HETATM    8  C   UNL     1     -11.474   6.934  70.215  1.00  0.00    -0.373 C  
BRANCH   8   9
HETATM    9  C   UNL     1     -10.705   6.502  69.001  1.00  0.00    -0.324 C  
HETATM   10  C   UNL     1      -9.980   7.291  68.189  1.00  0.00    -0.181 C  
BRANCH  10  11
HETATM   11  C   UNL     1      -9.716   8.763  68.355  1.00  0.00    -0.175 C  
BRANCH  11  12
HETATM   12  C   UNL     1     -10.781   9.629  67.741  1.00  0.00    -0.316 C  
HETATM   13  C   UNL     1     -11.292  10.758  68.257  1.00  0.00    -0.376 C  
BRANCH  13  14
HETATM   14  C   UNL     1     -10.948  11.334  69.590  1.00  0.00    -0.214 C  
BRANCH  14  15
HETATM   15  C   UNL     1     -11.610  10.615  70.732  1.00  0.00    -0.388 C  
HETATM   16  C   UNL     1     -12.665  11.110  71.402  1.00  0.00    -0.524 C  
BRANCH  16  17
HETATM   17  C   UNL     1     -13.269  12.458  71.141  1.00  0.00     0.034 C  
BRANCH  17  18
HETATM   18  C   UNL     1     -13.469  13.271  72.390  1.00  0.00    -0.670 C  
HETATM   19  C   UNL     1     -13.466  14.616  72.390  1.00  0.00    -0.534 C  
BRANCH  19  20
HETATM   20  C   UNL     1     -13.274  15.407  71.124  1.00  0.00    -0.583 C  
BRANCH  20  21
HETATM   21  C   UNL     1     -11.869  15.957  70.914  1.00  0.00    -0.453 C  
HETATM   22  C   UNL     1     -11.283  15.344  69.660  1.00  0.00    -0.283 C  
HETATM   23  O   UNL     1      -9.929  15.314  69.669  1.00  0.00    -0.251 OA 
HETATM   24  O   UNL     1     -11.929  14.936  68.712  1.00  0.00    -0.303 OA 
ENDBRANCH  20  21
ENDBRANCH  19  20
ENDBRANCH  17  18
ENDBRANCH  16  17
ENDBRANCH  14  15
ENDBRANCH  13  14
ENDBRANCH  11  12
ENDBRANCH  10  11
ENDBRANCH   8   9
ENDBRANCH   7   8
ENDBRANCH   5   6
ENDBRANCH   4   5
ENDBRANCH   2   3
TORSDOF 13
ENDMDL
MODEL      203
REMARK 921   NORMALIZED FREE ENERGY PREDICTED BY IDOCK:   -4.06 KCAL/MOL
REMARK 922        TOTAL FREE ENERGY PREDICTED BY IDOCK:   -9.92 KCAL/MOL
REMARK 923 INTER-LIGAND FREE ENERGY PREDICTED BY IDOCK:   -7.16 KCAL/MOL
REMARK 924 INTRA-LIGAND FREE ENERGY PREDICTED BY IDOCK:   -2.76 KCAL/MOL
REMARK 927      BINDING AFFINITY PREDICTED BY RF-SCORE:    0.00 PKD
ROOT
HETATM    1  C   UNL     1      -7.085  20.547  67.685  1.00  0.00    -0.363 C  
HETATM    2  C   UNL     1      -8.098  19.448  67.962  1.00  0.00    -0.345 C  
ENDROOT
BRANCH   2   3
HETATM    3  C   UNL     1      -9.509  19.963  68.009  1.00  0.00    -0.458 C  
HETATM    4  C   UNL     1     -10.543  19.462  67.313  1.00  0.00    -0.599 C  
BRANCH   4   5
HETATM    5  C   UNL     1     -10.457  18.361  66.293  1.00  0.00    -0.421 C  
BRANCH   5   6
HETATM    6  C   UNL     1     -10.898  17.038  66.858  1.00  0.00    -0.013 C  
HETATM    7  C   UNL     1     -10.180  15.902  66.870  1.00  0.00    -0.277 C  
BRANCH   7   8
HETATM    8  C   UNL     1      -8.807  15.756  66.283  1.00  0.00    -0.378 C  
BRANCH   8   9
HETATM    9  C   UNL     1      -7.753  15.542  67.330  1.00  0.00    -0.244 C  
HETATM   10  C   UNL     1      -7.454  14.383  67.941  1.00  0.00    -0.160 C  
BRANCH  10  11
HETATM   11  C   UNL     1      -8.054  13.031  67.663  1.00  0.00    -0.172 C  
BRANCH  11  12
HETATM   12  C   UNL     1      -7.037  12.007  67.238  1.00  0.00    -0.149 C  
HETATM   13  C   UNL     1      -7.116  10.678  67.410  1.00  0.00    -0.090 C  
BRANCH  13  14
HETATM   14  C   UNL     1      -8.210   9.963  68.131  1.00  0.00    -0.109 C  
BRANCH  14  15
HETATM   15  C   UNL     1      -9.212   9.331  67.205  1.00  0.00    -0.149 C  
HETATM   16  C   UNL     1     -10.499   9.713  67.140  1.00  0.00    -0.317 C  
BRANCH  16  17
HETATM   17  C   UNL     1     -11.109  10.766  68.018  1.00  0.00    -0.359 C  
BRANCH  17  18
HETATM   18  C   UNL     1     -11.628  11.950  67.250  1.00  0.00    -0.364 C  
HETATM   19  C   UNL     1     -11.861  13.144  67.824  1.00  0.00    -0.392 C  
BRANCH  19  20
HETATM   20  C   UNL     1     -11.601  13.382  69.288  1.00  0.00    -0.365 C  
BRANCH  20  21
HETATM   21  C   UNL     1     -12.380  14.539  69.900  1.00  0.00    -0.347 C  
HETATM   22  C   UNL     1     -11.411  15.468  70.600  1.00  0.00    -0.343 C  
HETATM   23  O   UNL     1     -11.988  16.181  71.597  1.00  0.00    -0.465 OA 
HETATM   24  O   UNL     1     -10.237  15.606  70.307  1.00  0.00    -0.287 OA 
ENDBRANCH  20  21
ENDBRANCH  19  20
ENDBRANCH  17  18
ENDBRANCH  16  17
ENDBRANCH  14  15
ENDBRANCH  13  14
ENDBRANCH  11  12
ENDBRANCH  10  11
ENDBRANCH   8   9
ENDBRANCH   7   8
ENDBRANCH   5   6
ENDBRANCH   4   5
ENDBRANCH   2   3
TORSDOF 13
ENDMDL
MODEL      204
REMARK 921   NORMALIZED FREE ENERGY PREDICTED BY IDOCK:   -4.06 KCAL/MOL
REMARK 922        TOTAL FREE ENERGY PREDICTED BY IDOCK:   -9.92 KCAL/MOL
REMARK 923 INTER-LIGAND FREE ENERGY PREDICTED BY IDOCK:   -7.83 KCAL/MOL
REMARK 924 INTRA-LIGAND FREE ENERGY PREDICTED BY IDOCK:   -2.09 KCAL/MOL
REMARK 927      BINDING AFFINITY PREDICTED BY RF-SCORE:    0.00 PKD
ROOT
HETATM    1  C   UNL     1      -8.204  15.345  69.400  1.00  0.00    -0.250 C  
HETATM    2  C   UNL     1      -9.198  16.260  68.704  1.00  0.00    -0.227 C  
ENDROOT
BRANCH   2   3
HETATM    3  C   UNL     1     -10.506  16.355  69.437  1.00  0.00    -0.309 C  
HETATM    4  C   UNL     1     -11.637  15.712  69.098  1.00  0.00    -0.393 C  
BRANCH   4   5
HETATM    5  C   UNL     1     -11.821  14.858  67.875  1.00  0.00    -0.286 C  
BRANCH   5   6
HETATM    6  C   UNL     1     -11.680  13.393  68.186  1.00  0.00    -0.397 C  
HETATM    7  C   UNL     1     -11.721  12.385  67.297  1.00  0.00    -0.419 C  
BRANCH   7   8
HETATM    8  C   UNL     1     -11.951  12.557  65.825  1.00  0.00    -0.482 C  
BRANCH   8   9
HETATM    9  C   UNL     1     -10.678  12.791  65.067  1.00  0.00    -0.321 C  
HETATM   10  C   UNL     1      -9.802  11.854  64.664  1.00  0.00    -0.207 C  
BRANCH  10  11
HETATM   11  C   UNL     1      -9.936  10.363  64.815  1.00  0.00    -0.409 C  
BRANCH  11  12
HETATM   12  C   UNL     1      -9.013   9.787  65.853  1.00  0.00    -0.189 C  
HETATM   13  C   UNL     1      -9.313   8.842  66.758  1.00  0.00    -0.229 C  
BRANCH  13  14
HETATM   14  C   UNL     1     -10.660   8.230  66.955  1.00  0.00    -0.328 C  
BRANCH  14  15
HETATM   15  C   UNL     1     -10.648   6.730  66.853  1.00  0.00    -0.374 C  
HETATM   16  C   UNL     1     -10.868   5.918  67.901  1.00  0.00    -0.323 C  
BRANCH  16  17
HETATM   17  C   UNL     1     -11.089   6.398  69.304  1.00  0.00    -0.437 C  
BRANCH  17  18
HETATM   18  C   UNL     1      -9.818   6.508  70.101  1.00  0.00    -0.185 C  
HETATM   19  C   UNL     1      -9.707   7.292  71.189  1.00  0.00    -0.171 C  
BRANCH  19  20
HETATM   20  C   UNL     1     -10.865   8.110  71.696  1.00  0.00    -0.306 C  
BRANCH  20  21
HETATM   21  C   UNL     1     -10.931   9.534  71.160  1.00  0.00    -0.438 C  
HETATM   22  C   UNL     1     -12.315  10.092  71.413  1.00  0.00    -0.415 C  
HETATM   23  O   UNL     1     -12.658  11.072  70.543  1.00  0.00    -0.323 OA 
HETATM   24  O   UNL     1     -13.058   9.741  72.312  1.00  0.00    -0.416 OA 
ENDBRANCH  20  21
ENDBRANCH  19  20
ENDBRANCH  17  18
ENDBRANCH  16  17
ENDBRANCH  14  15
ENDBRANCH  13  14
ENDBRANCH  11  12
ENDBRANCH  10  11
ENDBRANCH   8   9
ENDBRANCH   7   8
ENDBRANCH   5   6
ENDBRANCH   4   5
ENDBRANCH   2   3
TORSDOF 13
ENDMDL
MODEL      205
REMARK 921   NORMALIZED FREE ENERGY PREDICTED BY IDOCK:   -4.06 KCAL/MOL
REMARK 922        TOTAL FREE ENERGY PREDICTED BY IDOCK:   -9.91 KCAL/MOL
REMARK 923 INTER-LIGAND FREE ENERGY PREDICTED BY IDOCK:   -8.64 KCAL/MOL
REMARK 924 INTRA-LIGAND FREE ENERGY PREDICTED BY IDOCK:   -1.27 KCAL/MOL
REMARK 927      BINDING AFFINITY PREDICTED BY RF-SCORE:    0.00 PKD
ROOT
HETATM    1  C   UNL     1      -6.812  20.151  67.745  1.00  0.00    -0.309 C  
HETATM    2  C   UNL     1      -7.998  19.983  66.811  1.00  0.00    -0.349 C  
ENDROOT
BRANCH   2   3
HETATM    3  C   UNL     1      -9.315  20.141  67.517  1.00  0.00    -0.507 C  
HETATM    4  C   UNL     1     -10.336  19.269  67.464  1.00  0.00    -0.542 C  
BRANCH   4   5
HETATM    5  C   UNL     1     -10.380  18.027  66.619  1.00  0.00    -0.375 C  
BRANCH   5   6
HETATM    6  C   UNL     1     -10.199  16.781  67.441  1.00  0.00    -0.288 C  
HETATM    7  C   UNL     1     -10.586  15.540  67.098  1.00  0.00    -0.300 C  
BRANCH   7   8
HETATM    8  C   UNL     1     -11.305  15.193  65.828  1.00  0.00    -0.238 C  
BRANCH   8   9
HETATM    9  C   UNL     1     -10.415  14.511  64.831  1.00  0.00    -0.435 C  
HETATM   10  C   UNL     1     -10.465  13.220  64.462  1.00  0.00    -0.434 C  
BRANCH  10  11
HETATM   11  C   UNL     1     -11.467  12.189  64.907  1.00  0.00    -0.379 C  
BRANCH  11  12
HETATM   12  C   UNL     1     -11.524  12.023  66.400  1.00  0.00    -0.417 C  
HETATM   13  C   UNL     1     -10.704  11.275  67.156  1.00  0.00    -0.297 C  
BRANCH  13  14
HETATM   14  C   UNL     1      -9.613  10.397  66.640  1.00  0.00    -0.219 C  
BRANCH  14  15
HETATM   15  C   UNL     1     -10.074   8.999  66.336  1.00  0.00    -0.351 C  
HETATM   16  C   UNL     1     -10.346   8.089  67.288  1.00  0.00    -0.371 C  
BRANCH  16  17
HETATM   17  C   UNL     1     -10.165   8.330  68.757  1.00  0.00    -0.226 C  
BRANCH  17  18
HETATM   18  C   UNL     1     -10.959   7.385  69.615  1.00  0.00    -0.186 C  
HETATM   19  C   UNL     1     -11.496   7.749  70.794  1.00  0.00    -0.285 C  
BRANCH  19  20
HETATM   20  C   UNL     1     -11.348   9.147  71.332  1.00  0.00    -0.414 C  
BRANCH  20  21
HETATM   21  C   UNL     1     -12.648   9.809  71.772  1.00  0.00    -0.506 C  
HETATM   22  C   UNL     1     -12.638  11.256  71.326  1.00  0.00    -0.382 C  
HETATM   23  O   UNL     1     -13.425  12.050  72.091  1.00  0.00    -0.476 OA 
HETATM   24  O   UNL     1     -12.022  11.690  70.369  1.00  0.00    -0.357 OA 
ENDBRANCH  20  21
ENDBRANCH  19  20
ENDBRANCH  17  18
ENDBRANCH  16  17
ENDBRANCH  14  15
ENDBRANCH  13  14
ENDBRANCH  11  12
ENDBRANCH  10  11
ENDBRANCH   8   9
ENDBRANCH   7   8
ENDBRANCH   5   6
ENDBRANCH   4   5
ENDBRANCH   2   3
TORSDOF 13
ENDMDL
MODEL      206
REMARK 921   NORMALIZED FREE ENERGY PREDICTED BY IDOCK:   -4.05 KCAL/MOL
REMARK 922        TOTAL FREE ENERGY PREDICTED BY IDOCK:   -9.91 KCAL/MOL
REMARK 923 INTER-LIGAND FREE ENERGY PREDICTED BY IDOCK:   -7.09 KCAL/MOL
REMARK 924 INTRA-LIGAND FREE ENERGY PREDICTED BY IDOCK:   -2.82 KCAL/MOL
REMARK 927      BINDING AFFINITY PREDICTED BY RF-SCORE:    0.00 PKD
ROOT
HETATM    1  C   UNL     1      -6.994  17.771  68.723  1.00  0.00    -0.257 C  
HETATM    2  C   UNL     1      -6.976  16.273  68.978  1.00  0.00    -0.188 C  
ENDROOT
BRANCH   2   3
HETATM    3  C   UNL     1      -6.674  15.481  67.737  1.00  0.00    -0.186 C  
HETATM    4  C   UNL     1      -7.069  14.218  67.505  1.00  0.00    -0.189 C  
BRANCH   4   5
HETATM    5  C   UNL     1      -7.803  13.340  68.480  1.00  0.00    -0.110 C  
BRANCH   5   6
HETATM    6  C   UNL     1      -9.048  12.750  67.877  1.00  0.00    -0.204 C  
HETATM    7  C   UNL     1      -9.217  11.472  67.495  1.00  0.00    -0.166 C  
BRANCH   7   8
HETATM    8  C   UNL     1      -8.158  10.412  67.579  1.00  0.00    -0.107 C  
BRANCH   8   9
HETATM    9  C   UNL     1      -7.259  10.401  66.378  1.00  0.00    -0.119 C  
HETATM   10  C   UNL     1      -7.583  10.002  65.137  1.00  0.00    -0.138 C  
BRANCH  10  11
HETATM   11  C   UNL     1      -8.935   9.549  64.655  1.00  0.00    -0.266 C  
BRANCH  11  12
HETATM   12  C   UNL     1      -9.277  10.059  63.282  1.00  0.00    -0.317 C  
HETATM   13  C   UNL     1      -9.851  11.234  62.982  1.00  0.00    -0.370 C  
BRANCH  13  14
HETATM   14  C   UNL     1     -10.333  12.239  63.974  1.00  0.00    -0.423 C  
BRANCH  14  15
HETATM   15  C   UNL     1     -11.714  12.752  63.671  1.00  0.00    -0.587 C  
HETATM   16  C   UNL     1     -12.208  13.889  64.190  1.00  0.00    -0.436 C  
BRANCH  16  17
HETATM   17  C   UNL     1     -11.477  14.750  65.176  1.00  0.00    -0.371 C  
BRANCH  17  18
HETATM   18  C   UNL     1     -11.994  14.614  66.581  1.00  0.00    -0.293 C  
HETATM   19  C   UNL     1     -11.484  15.308  67.615  1.00  0.00    -0.287 C  
BRANCH  19  20
HETATM   20  C   UNL     1     -10.356  16.287  67.430  1.00  0.00    -0.285 C  
BRANCH  20  21
HETATM   21  C   UNL     1     -10.634  17.694  67.946  1.00  0.00    -0.390 C  
HETATM   22  C   UNL     1     -10.369  18.686  66.834  1.00  0.00    -0.402 C  
HETATM   23  O   UNL     1     -10.053  19.921  67.292  1.00  0.00    -0.378 OA 
HETATM   24  O   UNL     1     -10.450  18.443  65.643  1.00  0.00    -0.624 OA 
ENDBRANCH  20  21
ENDBRANCH  19  20
ENDBRANCH  17  18
ENDBRANCH  16  17
ENDBRANCH  14  15
ENDBRANCH  13  14
ENDBRANCH  11  12
ENDBRANCH  10  11
ENDBRANCH   8   9
ENDBRANCH   7   8
ENDBRANCH   5   6
ENDBRANCH   4   5
ENDBRANCH   2   3
TORSDOF 13
ENDMDL
MODEL      207
REMARK 921   NORMALIZED FREE ENERGY PREDICTED BY IDOCK:   -4.05 KCAL/MOL
REMARK 922        TOTAL FREE ENERGY PREDICTED BY IDOCK:   -9.91 KCAL/MOL
REMARK 923 INTER-LIGAND FREE ENERGY PREDICTED BY IDOCK:   -7.62 KCAL/MOL
REMARK 924 INTRA-LIGAND FREE ENERGY PREDICTED BY IDOCK:   -2.29 KCAL/MOL
REMARK 927      BINDING AFFINITY PREDICTED BY RF-SCORE:    0.00 PKD
ROOT
HETATM    1  C   UNL     1     -11.336   6.382  69.159  1.00  0.00    -0.366 C  
HETATM    2  C   UNL     1     -10.987   6.417  70.637  1.00  0.00    -0.355 C  
ENDROOT
BRANCH   2   3
HETATM    3  C   UNL     1     -12.182   6.688  71.506  1.00  0.00    -0.391 C  
HETATM    4  C   UNL     1     -12.551   7.895  71.968  1.00  0.00    -0.327 C  
BRANCH   4   5
HETATM    5  C   UNL     1     -11.784   9.174  71.776  1.00  0.00    -0.456 C  
BRANCH   5   6
HETATM    6  C   UNL     1     -12.551  10.170  70.950  1.00  0.00    -0.454 C  
HETATM    7  C   UNL     1     -12.151  10.712  69.786  1.00  0.00    -0.343 C  
BRANCH   7   8
HETATM    8  C   UNL     1     -10.834  10.432  69.125  1.00  0.00    -0.274 C  
BRANCH   8   9
HETATM    9  C   UNL     1     -10.972  10.171  67.654  1.00  0.00    -0.331 C  
HETATM   10  C   UNL     1      -9.978   9.908  66.789  1.00  0.00    -0.272 C  
BRANCH  10  11
HETATM   11  C   UNL     1      -8.517   9.743  67.111  1.00  0.00    -0.125 C  
BRANCH  11  12
HETATM   12  C   UNL     1      -7.655  10.830  66.530  1.00  0.00    -0.139 C  
HETATM   13  C   UNL     1      -7.368  12.014  67.095  1.00  0.00    -0.134 C  
BRANCH  13  14
HETATM   14  C   UNL     1      -7.919  12.511  68.390  1.00  0.00    -0.139 C  
BRANCH  14  15
HETATM   15  C   UNL     1      -7.377  13.856  68.784  1.00  0.00    -0.118 C  
HETATM   16  C   UNL     1      -8.117  14.979  68.780  1.00  0.00    -0.166 C  
BRANCH  16  17
HETATM   17  C   UNL     1      -9.545  15.043  68.328  1.00  0.00    -0.210 C  
BRANCH  17  18
HETATM   18  C   UNL     1      -9.713  15.704  66.988  1.00  0.00    -0.234 C  
HETATM   19  C   UNL     1     -10.775  15.477  66.193  1.00  0.00    -0.315 C  
BRANCH  19  20
HETATM   20  C   UNL     1     -11.886  14.547  66.603  1.00  0.00    -0.383 C  
BRANCH  20  21
HETATM   21  C   UNL     1     -11.810  13.150  66.001  1.00  0.00    -0.457 C  
HETATM   22  C   UNL     1     -12.501  13.157  64.654  1.00  0.00    -0.373 C  
HETATM   23  O   UNL     1     -12.969  11.938  64.293  1.00  0.00    -0.506 OA 
HETATM   24  O   UNL     1     -12.618  14.131  63.932  1.00  0.00    -0.752 OA 
ENDBRANCH  20  21
ENDBRANCH  19  20
ENDBRANCH  17  18
ENDBRANCH  16  17
ENDBRANCH  14  15
ENDBRANCH  13  14
ENDBRANCH  11  12
ENDBRANCH  10  11
ENDBRANCH   8   9
ENDBRANCH   7   8
ENDBRANCH   5   6
ENDBRANCH   4   5
ENDBRANCH   2   3
TORSDOF 13
ENDMDL
MODEL      208
REMARK 921   NORMALIZED FREE ENERGY PREDICTED BY IDOCK:   -4.05 KCAL/MOL
REMARK 922        TOTAL FREE ENERGY PREDICTED BY IDOCK:   -9.90 KCAL/MOL
REMARK 923 INTER-LIGAND FREE ENERGY PREDICTED BY IDOCK:   -8.29 KCAL/MOL
REMARK 924 INTRA-LIGAND FREE ENERGY PREDICTED BY IDOCK:   -1.60 KCAL/MOL
REMARK 927      BINDING AFFINITY PREDICTED BY RF-SCORE:    0.00 PKD
ROOT
HETATM    1  C   UNL     1     -11.254  15.336  70.689  1.00  0.00    -0.353 C  
HETATM    2  C   UNL     1     -12.000  14.033  70.453  1.00  0.00    -0.398 C  
ENDROOT
BRANCH   2   3
HETATM    3  C   UNL     1     -12.991  13.731  71.541  1.00  0.00    -0.444 C  
HETATM    4  C   UNL     1     -13.310  12.503  71.984  1.00  0.00    -0.528 C  
BRANCH   4   5
HETATM    5  C   UNL     1     -12.804  11.210  71.409  1.00  0.00    -0.544 C  
BRANCH   5   6
HETATM    6  C   UNL     1     -13.532  10.021  71.974  1.00  0.00    -0.448 C  
HETATM    7  C   UNL     1     -13.146   8.736  71.884  1.00  0.00    -0.420 C  
BRANCH   7   8
HETATM    8  C   UNL     1     -11.917   8.265  71.163  1.00  0.00    -0.290 C  
BRANCH   8   9
HETATM    9  C   UNL     1     -11.947   6.793  70.877  1.00  0.00    -0.437 C  
HETATM   10  C   UNL     1     -11.218   6.141  69.954  1.00  0.00    -0.484 C  
BRANCH  10  11
HETATM   11  C   UNL     1     -10.161   6.724  69.057  1.00  0.00    -0.172 C  
BRANCH  11  12
HETATM   12  C   UNL     1     -10.683   7.119  67.703  1.00  0.00    -0.314 C  
HETATM   13  C   UNL     1     -10.679   8.351  67.170  1.00  0.00    -0.222 C  
BRANCH  13  14
HETATM   14  C   UNL     1     -10.216   9.591  67.860  1.00  0.00    -0.251 C  
BRANCH  14  15
HETATM   15  C   UNL     1      -8.724   9.772  67.809  1.00  0.00    -0.129 C  
HETATM   16  C   UNL     1      -8.102  10.498  66.864  1.00  0.00    -0.120 C  
BRANCH  16  17
HETATM   17  C   UNL     1      -8.802  11.161  65.716  1.00  0.00    -0.182 C  
BRANCH  17  18
HETATM   18  C   UNL     1      -8.882  10.295  64.490  1.00  0.00    -0.223 C  
HETATM   19  C   UNL     1      -9.695  10.573  63.454  1.00  0.00    -0.368 C  
BRANCH  19  20
HETATM   20  C   UNL     1     -10.579  11.791  63.448  1.00  0.00    -0.479 C  
BRANCH  20  21
HETATM   21  C   UNL     1     -11.766  11.729  64.401  1.00  0.00    -0.301 C  
HETATM   22  C   UNL     1     -11.671  12.880  65.380  1.00  0.00    -0.375 C  
HETATM   23  O   UNL     1     -12.307  12.632  66.550  1.00  0.00    -0.500 OA 
HETATM   24  O   UNL     1     -11.114  13.941  65.162  1.00  0.00    -0.310 OA 
ENDBRANCH  20  21
ENDBRANCH  19  20
ENDBRANCH  17  18
ENDBRANCH  16  17
ENDBRANCH  14  15
ENDBRANCH  13  14
ENDBRANCH  11  12
ENDBRANCH  10  11
ENDBRANCH   8   9
ENDBRANCH   7   8
ENDBRANCH   5   6
ENDBRANCH   4   5
ENDBRANCH   2   3
TORSDOF 13
ENDMDL
MODEL      209
REMARK 921   NORMALIZED FREE ENERGY PREDICTED BY IDOCK:   -4.03 KCAL/MOL
REMARK 922        TOTAL FREE ENERGY PREDICTED BY IDOCK:   -9.88 KCAL/MOL
REMARK 923 INTER-LIGAND FREE ENERGY PREDICTED BY IDOCK:   -6.83 KCAL/MOL
REMARK 924 INTRA-LIGAND FREE ENERGY PREDICTED BY IDOCK:   -3.05 KCAL/MOL
REMARK 927      BINDING AFFINITY PREDICTED BY RF-SCORE:    0.00 PKD
ROOT
HETATM    1  C   UNL     1      -6.907  16.969  67.083  1.00  0.00    -0.214 C  
HETATM    2  C   UNL     1      -7.975  15.966  66.682  1.00  0.00    -0.270 C  
ENDROOT
BRANCH   2   3
HETATM    3  C   UNL     1      -8.860  15.574  67.833  1.00  0.00    -0.171 C  
HETATM    4  C   UNL     1      -8.793  14.412  68.505  1.00  0.00    -0.182 C  
BRANCH   4   5
HETATM    5  C   UNL     1      -7.888  13.260  68.168  1.00  0.00    -0.145 C  
BRANCH   5   6
HETATM    6  C   UNL     1      -8.454  12.405  67.068  1.00  0.00    -0.170 C  
HETATM    7  C   UNL     1      -8.056  11.162  66.743  1.00  0.00    -0.155 C  
BRANCH   7   8
HETATM    8  C   UNL     1      -6.938  10.423  67.419  1.00  0.00    -0.085 C  
BRANCH   8   9
HETATM    9  C   UNL     1      -6.313   9.388  66.530  1.00  0.00    -0.066 C  
HETATM   10  C   UNL     1      -6.678   8.099  66.423  1.00  0.00    -0.062 C  
BRANCH  10  11
HETATM   11  C   UNL     1      -7.835   7.424  67.108  1.00  0.00    -0.117 C  
BRANCH  11  12
HETATM   12  C   UNL     1      -9.167   7.773  66.505  1.00  0.00    -0.229 C  
HETATM   13  C   UNL     1     -10.301   8.050  67.168  1.00  0.00    -0.395 C  
BRANCH  13  14
HETATM   14  C   UNL     1     -10.473   7.989  68.650  1.00  0.00    -0.196 C  
BRANCH  14  15
HETATM   15  C   UNL     1      -9.685   9.042  69.378  1.00  0.00    -0.169 C  
HETATM   16  C   UNL     1     -10.144  10.286  69.598  1.00  0.00    -0.257 C  
BRANCH  16  17
HETATM   17  C   UNL     1     -11.461  10.797  69.094  1.00  0.00    -0.368 C  
BRANCH  17  18
HETATM   18  C   UNL     1     -11.724  12.230  69.467  1.00  0.00    -0.398 C  
HETATM   19  C   UNL     1     -11.920  13.196  68.552  1.00  0.00    -0.324 C  
BRANCH  19  20
HETATM   20  C   UNL     1     -11.903  12.901  67.075  1.00  0.00    -0.437 C  
BRANCH  20  21
HETATM   21  C   UNL     1     -12.293  14.071  66.181  1.00  0.00    -0.491 C  
HETATM   22  C   UNL     1     -12.737  13.536  64.837  1.00  0.00    -0.287 C  
HETATM   23  O   UNL     1     -12.580  14.432  63.833  1.00  0.00    -0.814 OA 
HETATM   24  O   UNL     1     -13.216  12.433  64.645  1.00  0.00    -0.822 OA 
ENDBRANCH  20  21
ENDBRANCH  19  20
ENDBRANCH  17  18
ENDBRANCH  16  17
ENDBRANCH  14  15
ENDBRANCH  13  14
ENDBRANCH  11  12
ENDBRANCH  10  11
ENDBRANCH   8   9
ENDBRANCH   7   8
ENDBRANCH   5   6
ENDBRANCH   4   5
ENDBRANCH   2   3
TORSDOF 13
ENDMDL
MODEL      210
REMARK 921   NORMALIZED FREE ENERGY PREDICTED BY IDOCK:   -4.02 KCAL/MOL
REMARK 922        TOTAL FREE ENERGY PREDICTED BY IDOCK:   -9.86 KCAL/MOL
REMARK 923 INTER-LIGAND FREE ENERGY PREDICTED BY IDOCK:   -7.43 KCAL/MOL
REMARK 924 INTRA-LIGAND FREE ENERGY PREDICTED BY IDOCK:   -2.42 KCAL/MOL
REMARK 927      BINDING AFFINITY PREDICTED BY RF-SCORE:    0.00 PKD
ROOT
HETATM    1  C   UNL     1      -7.250   8.653  71.581  1.00  0.00    -0.109 C  
HETATM    2  C   UNL     1      -8.645   8.275  71.109  1.00  0.00    -0.168 C  
ENDROOT
BRANCH   2   3
HETATM    3  C   UNL     1      -8.755   6.823  70.741  1.00  0.00    -0.146 C  
HETATM    4  C   UNL     1      -9.665   5.963  71.230  1.00  0.00    -0.206 C  
BRANCH   4   5
HETATM    5  C   UNL     1     -10.675   6.276  72.298  1.00  0.00    -0.263 C  
BRANCH   5   6
HETATM    6  C   UNL     1     -12.072   6.349  71.746  1.00  0.00    -0.351 C  
HETATM    7  C   UNL     1     -12.725   7.467  71.382  1.00  0.00    -0.382 C  
BRANCH   7   8
HETATM    8  C   UNL     1     -12.167   8.855  71.501  1.00  0.00    -0.388 C  
BRANCH   8   9
HETATM    9  C   UNL     1     -13.199   9.855  71.933  1.00  0.00    -0.558 C  
HETATM   10  C   UNL     1     -13.237  11.159  71.610  1.00  0.00    -0.449 C  
BRANCH  10  11
HETATM   11  C   UNL     1     -12.301  11.891  70.687  1.00  0.00    -0.405 C  
BRANCH  11  12
HETATM   12  C   UNL     1     -12.458  13.386  70.745  1.00  0.00    -0.418 C  
HETATM   13  C   UNL     1     -11.918  14.283  69.905  1.00  0.00    -0.397 C  
BRANCH  13  14
HETATM   14  C   UNL     1     -10.986  13.965  68.783  1.00  0.00    -0.286 C  
BRANCH  14  15
HETATM   15  C   UNL     1     -11.673  13.898  67.447  1.00  0.00    -0.422 C  
HETATM   16  C   UNL     1     -11.743  12.776  66.710  1.00  0.00    -0.459 C  
BRANCH  16  17
HETATM   17  C   UNL     1     -11.098  11.478  67.093  1.00  0.00    -0.355 C  
BRANCH  17  18
HETATM   18  C   UNL     1     -10.448  10.774  65.934  1.00  0.00    -0.270 C  
HETATM   19  C   UNL     1      -9.789   9.609  66.067  1.00  0.00    -0.345 C  
BRANCH  19  20
HETATM   20  C   UNL     1      -9.669   8.916  67.398  1.00  0.00    -0.227 C  
BRANCH  20  21
HETATM   21  C   UNL     1     -10.598   7.724  67.590  1.00  0.00    -0.283 C  
HETATM   22  C   UNL     1      -9.881   6.466  67.152  1.00  0.00    -0.146 C  
HETATM   23  O   UNL     1     -10.728   5.482  66.765  1.00  0.00    -0.289 OA 
HETATM   24  O   UNL     1      -8.673   6.308  67.161  1.00  0.00    -0.110 OA 
ENDBRANCH  20  21
ENDBRANCH  19  20
ENDBRANCH  17  18
ENDBRANCH  16  17
ENDBRANCH  14  15
ENDBRANCH  13  14
ENDBRANCH  11  12
ENDBRANCH  10  11
ENDBRANCH   8   9
ENDBRANCH   7   8
ENDBRANCH   5   6
ENDBRANCH   4   5
ENDBRANCH   2   3
TORSDOF 13
ENDMDL
MODEL      211
REMARK 921   NORMALIZED FREE ENERGY PREDICTED BY IDOCK:   -4.02 KCAL/MOL
REMARK 922        TOTAL FREE ENERGY PREDICTED BY IDOCK:   -9.85 KCAL/MOL
REMARK 923 INTER-LIGAND FREE ENERGY PREDICTED BY IDOCK:   -7.76 KCAL/MOL
REMARK 924 INTRA-LIGAND FREE ENERGY PREDICTED BY IDOCK:   -2.09 KCAL/MOL
REMARK 927      BINDING AFFINITY PREDICTED BY RF-SCORE:    0.00 PKD
ROOT
HETATM    1  C   UNL     1     -10.460   9.198  71.604  1.00  0.00    -0.403 C  
HETATM    2  C   UNL     1     -10.359   7.713  71.911  1.00  0.00    -0.240 C  
ENDROOT
BRANCH   2   3
HETATM    3  C   UNL     1     -11.479   6.921  71.298  1.00  0.00    -0.337 C  
HETATM    4  C   UNL     1     -11.485   6.419  70.051  1.00  0.00    -0.496 C  
BRANCH   4   5
HETATM    5  C   UNL     1     -10.418   6.640  69.017  1.00  0.00    -0.243 C  
BRANCH   5   6
HETATM    6  C   UNL     1     -10.936   6.429  67.620  1.00  0.00    -0.441 C  
HETATM    7  C   UNL     1     -10.287   6.720  66.479  1.00  0.00    -0.116 C  
BRANCH   7   8
HETATM    8  C   UNL     1      -8.925   7.346  66.411  1.00  0.00    -0.190 C  
BRANCH   8   9
HETATM    9  C   UNL     1      -8.933   8.663  65.693  1.00  0.00    -0.231 C  
HETATM   10  C   UNL     1      -9.178   9.869  66.234  1.00  0.00    -0.208 C  
BRANCH  10  11
HETATM   11  C   UNL     1      -9.424  10.178  67.686  1.00  0.00    -0.166 C  
BRANCH  11  12
HETATM   12  C   UNL     1     -10.884  10.197  68.048  1.00  0.00    -0.320 C  
HETATM   13  C   UNL     1     -11.573  11.236  68.547  1.00  0.00    -0.384 C  
BRANCH  13  14
HETATM   14  C   UNL     1     -10.994  12.563  68.910  1.00  0.00    -0.272 C  
BRANCH  14  15
HETATM   15  C   UNL     1     -11.911  13.712  68.594  1.00  0.00    -0.409 C  
HETATM   16  C   UNL     1     -11.874  14.386  67.431  1.00  0.00    -0.430 C  
BRANCH  16  17
HETATM   17  C   UNL     1     -10.883  14.120  66.337  1.00  0.00    -0.304 C  
BRANCH  17  18
HETATM   18  C   UNL     1     -11.013  15.068  65.176  1.00  0.00    -0.417 C  
HETATM   19  C   UNL     1     -10.562  16.335  65.218  1.00  0.00    -0.357 C  
BRANCH  19  20
HETATM   20  C   UNL     1      -9.876  16.891  66.437  1.00  0.00    -0.319 C  
BRANCH  20  21
HETATM   21  C   UNL     1     -10.364  18.265  66.878  1.00  0.00    -0.404 C  
HETATM   22  C   UNL     1      -9.291  19.288  66.572  1.00  0.00    -0.353 C  
HETATM   23  O   UNL     1      -9.358  20.380  67.372  1.00  0.00    -0.379 OA 
HETATM   24  O   UNL     1      -8.459  19.188  65.688  1.00  0.00    -0.342 OA 
ENDBRANCH  20  21
ENDBRANCH  19  20
ENDBRANCH  17  18
ENDBRANCH  16  17
ENDBRANCH  14  15
ENDBRANCH  13  14
ENDBRANCH  11  12
ENDBRANCH  10  11
ENDBRANCH   8   9
ENDBRANCH   7   8
ENDBRANCH   5   6
ENDBRANCH   4   5
ENDBRANCH   2   3
TORSDOF 13
ENDMDL
MODEL      212
REMARK 921   NORMALIZED FREE ENERGY PREDICTED BY IDOCK:   -4.02 KCAL/MOL
REMARK 922        TOTAL FREE ENERGY PREDICTED BY IDOCK:   -9.85 KCAL/MOL
REMARK 923 INTER-LIGAND FREE ENERGY PREDICTED BY IDOCK:   -7.73 KCAL/MOL
REMARK 924 INTRA-LIGAND FREE ENERGY PREDICTED BY IDOCK:   -2.12 KCAL/MOL
REMARK 927      BINDING AFFINITY PREDICTED BY RF-SCORE:    0.00 PKD
ROOT
HETATM    1  C   UNL     1     -11.006   6.236  68.187  1.00  0.00    -0.412 C  
HETATM    2  C   UNL     1     -10.611   6.173  69.653  1.00  0.00    -0.347 C  
ENDROOT
BRANCH   2   3
HETATM    3  C   UNL     1     -11.642   6.791  70.556  1.00  0.00    -0.426 C  
HETATM    4  C   UNL     1     -11.766   8.105  70.809  1.00  0.00    -0.211 C  
BRANCH   4   5
HETATM    5  C   UNL     1     -10.843   9.180  70.311  1.00  0.00    -0.282 C  
BRANCH   5   6
HETATM    6  C   UNL     1      -9.468   9.062  70.911  1.00  0.00    -0.331 C  
HETATM    7  C   UNL     1      -8.324   9.520  70.372  1.00  0.00    -0.226 C  
BRANCH   7   8
HETATM    8  C   UNL     1      -8.226  10.210  69.043  1.00  0.00    -0.132 C  
BRANCH   8   9
HETATM    9  C   UNL     1      -7.936   9.257  67.921  1.00  0.00    -0.100 C  
HETATM   10  C   UNL     1      -8.763   8.930  66.914  1.00  0.00    -0.128 C  
BRANCH  10  11
HETATM   11  C   UNL     1     -10.130   9.498  66.643  1.00  0.00    -0.321 C  
BRANCH  11  12
HETATM   12  C   UNL     1     -10.155  10.458  65.486  1.00  0.00    -0.352 C  
HETATM   13  C   UNL     1     -10.154  11.798  65.555  1.00  0.00    -0.285 C  
BRANCH  13  14
HETATM   14  C   UNL     1     -10.205  12.599  66.814  1.00  0.00    -0.246 C  
BRANCH  14  15
HETATM   15  C   UNL     1     -11.561  13.191  67.082  1.00  0.00    -0.410 C  
HETATM   16  C   UNL     1     -11.786  14.515  67.151  1.00  0.00    -0.412 C  
BRANCH  16  17
HETATM   17  C   UNL     1     -10.715  15.557  67.033  1.00  0.00    -0.321 C  
BRANCH  17  18
HETATM   18  C   UNL     1     -10.676  16.502  68.202  1.00  0.00    -0.343 C  
HETATM   19  C   UNL     1     -10.642  17.839  68.056  1.00  0.00    -0.372 C  
BRANCH  19  20
HETATM   20  C   UNL     1     -10.655  18.487  66.697  1.00  0.00    -0.383 C  
BRANCH  20  21
HETATM   21  C   UNL     1      -9.922  19.820  66.612  1.00  0.00    -0.556 C  
HETATM   22  C   UNL     1      -8.457  19.558  66.335  1.00  0.00    -0.352 C  
HETATM   23  O   UNL     1      -7.650  20.556  66.769  1.00  0.00    -0.285 OA 
HETATM   24  O   UNL     1      -8.016  18.578  65.761  1.00  0.00    -0.498 OA 
ENDBRANCH  20  21
ENDBRANCH  19  20
ENDBRANCH  17  18
ENDBRANCH  16  17
ENDBRANCH  14  15
ENDBRANCH  13  14
ENDBRANCH  11  12
ENDBRANCH  10  11
ENDBRANCH   8   9
ENDBRANCH   7   8
ENDBRANCH   5   6
ENDBRANCH   4   5
ENDBRANCH   2   3
TORSDOF 13
ENDMDL
MODEL      213
REMARK 921   NORMALIZED FREE ENERGY PREDICTED BY IDOCK:   -4.02 KCAL/MOL
REMARK 922        TOTAL FREE ENERGY PREDICTED BY IDOCK:   -9.85 KCAL/MOL
REMARK 923 INTER-LIGAND FREE ENERGY PREDICTED BY IDOCK:   -7.44 KCAL/MOL
REMARK 924 INTRA-LIGAND FREE ENERGY PREDICTED BY IDOCK:   -2.40 KCAL/MOL
REMARK 927      BINDING AFFINITY PREDICTED BY RF-SCORE:    0.00 PKD
ROOT
HETATM    1  C   UNL     1     -10.322  18.828  67.436  1.00  0.00    -0.472 C  
HETATM    2  C   UNL     1     -10.184  17.915  66.229  1.00  0.00    -0.363 C  
ENDROOT
BRANCH   2   3
HETATM    3  C   UNL     1      -9.402  16.669  66.535  1.00  0.00    -0.290 C  
HETATM    4  C   UNL     1      -9.657  15.448  66.035  1.00  0.00    -0.382 C  
BRANCH   4   5
HETATM    5  C   UNL     1     -10.822  15.091  65.155  1.00  0.00    -0.422 C  
BRANCH   5   6
HETATM    6  C   UNL     1     -12.017  14.653  65.957  1.00  0.00    -0.248 C  
HETATM    7  C   UNL     1     -12.275  13.404  66.381  1.00  0.00    -0.435 C  
BRANCH   7   8
HETATM    8  C   UNL     1     -11.412  12.211  66.090  1.00  0.00    -0.429 C  
BRANCH   8   9
HETATM    9  C   UNL     1     -10.297  12.052  67.082  1.00  0.00    -0.235 C  
HETATM   10  C   UNL     1     -10.400  11.570  68.332  1.00  0.00    -0.214 C  
BRANCH  10  11
HETATM   11  C   UNL     1     -11.633  11.013  68.990  1.00  0.00    -0.392 C  
BRANCH  11  12
HETATM   12  C   UNL     1     -11.997  11.723  70.265  1.00  0.00    -0.429 C  
HETATM   13  C   UNL     1     -12.702  11.220  71.290  1.00  0.00    -0.510 C  
BRANCH  13  14
HETATM   14  C   UNL     1     -13.331   9.867  71.326  1.00  0.00    -0.419 C  
BRANCH  14  15
HETATM   15  C   UNL     1     -12.917   9.056  72.522  1.00  0.00    -0.429 C  
HETATM   16  C   UNL     1     -11.842   8.249  72.529  1.00  0.00    -0.439 C  
BRANCH  16  17
HETATM   17  C   UNL     1     -10.963   8.010  71.338  1.00  0.00    -0.273 C  
BRANCH  17  18
HETATM   18  C   UNL     1      -9.738   8.882  71.320  1.00  0.00    -0.359 C  
HETATM   19  C   UNL     1      -8.844   8.860  70.315  1.00  0.00    -0.191 C  
BRANCH  19  20
HETATM   20  C   UNL     1      -9.019   7.961  69.120  1.00  0.00    -0.145 C  
BRANCH  20  21
HETATM   21  C   UNL     1      -7.797   7.126  68.758  1.00  0.00    -0.122 C  
HETATM   22  C   UNL     1      -7.948   5.747  69.363  1.00  0.00    -0.097 C  
HETATM   23  O   UNL     1      -6.760   5.132  69.581  1.00  0.00    -0.047 OA 
HETATM   24  O   UNL     1      -9.008   5.204  69.615  1.00  0.00    -0.103 OA 
ENDBRANCH  20  21
ENDBRANCH  19  20
ENDBRANCH  17  18
ENDBRANCH  16  17
ENDBRANCH  14  15
ENDBRANCH  13  14
ENDBRANCH  11  12
ENDBRANCH  10  11
ENDBRANCH   8   9
ENDBRANCH   7   8
ENDBRANCH   5   6
ENDBRANCH   4   5
ENDBRANCH   2   3
TORSDOF 13
ENDMDL
MODEL      214
REMARK 921   NORMALIZED FREE ENERGY PREDICTED BY IDOCK:   -4.01 KCAL/MOL
REMARK 922        TOTAL FREE ENERGY PREDICTED BY IDOCK:   -9.83 KCAL/MOL
REMARK 923 INTER-LIGAND FREE ENERGY PREDICTED BY IDOCK:   -8.01 KCAL/MOL
REMARK 924 INTRA-LIGAND FREE ENERGY PREDICTED BY IDOCK:   -1.83 KCAL/MOL
REMARK 927      BINDING AFFINITY PREDICTED BY RF-SCORE:    0.00 PKD
ROOT
HETATM    1  C   UNL     1     -13.342   9.246  72.270  1.00  0.00    -0.547 C  
HETATM    2  C   UNL     1     -12.231   9.889  71.457  1.00  0.00    -0.505 C  
ENDROOT
BRANCH   2   3
HETATM    3  C   UNL     1     -12.746  10.918  70.490  1.00  0.00    -0.363 C  
HETATM    4  C   UNL     1     -12.019  11.518  69.532  1.00  0.00    -0.402 C  
BRANCH   4   5
HETATM    5  C   UNL     1     -10.543  11.338  69.316  1.00  0.00    -0.187 C  
BRANCH   5   6
HETATM    6  C   UNL     1     -10.252  10.308  68.259  1.00  0.00    -0.184 C  
HETATM    7  C   UNL     1     -10.170  10.530  66.935  1.00  0.00    -0.280 C  
BRANCH   7   8
HETATM    8  C   UNL     1     -10.393  11.862  66.280  1.00  0.00    -0.259 C  
BRANCH   8   9
HETATM    9  C   UNL     1     -11.384  11.791  65.156  1.00  0.00    -0.281 C  
HETATM   10  C   UNL     1     -12.237  12.758  64.777  1.00  0.00    -0.517 C  
BRANCH  10  11
HETATM   11  C   UNL     1     -12.339  14.149  65.344  1.00  0.00    -0.475 C  
BRANCH  11  12
HETATM   12  C   UNL     1     -12.267  14.185  66.845  1.00  0.00    -0.400 C  
HETATM   13  C   UNL     1     -11.537  15.027  67.594  1.00  0.00    -0.327 C  
BRANCH  13  14
HETATM   14  C   UNL     1     -10.589  16.052  67.067  1.00  0.00    -0.302 C  
BRANCH  14  15
HETATM   15  C   UNL     1      -9.237  15.488  66.731  1.00  0.00    -0.272 C  
HETATM   16  C   UNL     1      -8.180  15.568  67.557  1.00  0.00    -0.182 C  
BRANCH  16  17
HETATM   17  C   UNL     1      -8.197  16.276  68.878  1.00  0.00    -0.231 C  
BRANCH  17  18
HETATM   18  C   UNL     1      -7.023  17.196  69.074  1.00  0.00    -0.235 C  
HETATM   19  C   UNL     1      -7.027  18.478  68.667  1.00  0.00    -0.289 C  
BRANCH  19  20
HETATM   20  C   UNL     1      -8.227  19.090  67.994  1.00  0.00    -0.334 C  
BRANCH  20  21
HETATM   21  C   UNL     1      -7.907  20.158  66.955  1.00  0.00    -0.354 C  
HETATM   22  C   UNL     1      -7.239  19.502  65.766  1.00  0.00    -0.295 C  
HETATM   23  O   UNL     1      -6.448  20.353  65.068  1.00  0.00    -0.263 OA 
HETATM   24  O   UNL     1      -7.395  18.344  65.425  1.00  0.00    -0.521 OA 
ENDBRANCH  20  21
ENDBRANCH  19  20
ENDBRANCH  17  18
ENDBRANCH  16  17
ENDBRANCH  14  15
ENDBRANCH  13  14
ENDBRANCH  11  12
ENDBRANCH  10  11
ENDBRANCH   8   9
ENDBRANCH   7   8
ENDBRANCH   5   6
ENDBRANCH   4   5
ENDBRANCH   2   3
TORSDOF 13
ENDMDL
MODEL      215
REMARK 921   NORMALIZED FREE ENERGY PREDICTED BY IDOCK:   -4.01 KCAL/MOL
REMARK 922        TOTAL FREE ENERGY PREDICTED BY IDOCK:   -9.83 KCAL/MOL
REMARK 923 INTER-LIGAND FREE ENERGY PREDICTED BY IDOCK:   -7.25 KCAL/MOL
REMARK 924 INTRA-LIGAND FREE ENERGY PREDICTED BY IDOCK:   -2.57 KCAL/MOL
REMARK 927      BINDING AFFINITY PREDICTED BY RF-SCORE:    0.00 PKD
ROOT
HETATM    1  C   UNL     1      -6.521  17.591  66.361  1.00  0.00    -0.283 C  
HETATM    2  C   UNL     1      -6.688  18.467  67.592  1.00  0.00    -0.198 C  
ENDROOT
BRANCH   2   3
HETATM    3  C   UNL     1      -6.828  19.923  67.249  1.00  0.00    -0.244 C  
HETATM    4  C   UNL     1      -7.978  20.620  67.267  1.00  0.00    -0.327 C  
BRANCH   4   5
HETATM    5  C   UNL     1      -9.340  20.048  67.543  1.00  0.00    -0.485 C  
BRANCH   5   6
HETATM    6  C   UNL     1     -10.055  19.664  66.276  1.00  0.00    -0.578 C  
HETATM    7  C   UNL     1     -10.533  18.445  65.972  1.00  0.00    -0.400 C  
BRANCH   7   8
HETATM    8  C   UNL     1     -10.402  17.236  66.851  1.00  0.00    -0.310 C  
BRANCH   8   9
HETATM    9  C   UNL     1      -9.752  16.081  66.148  1.00  0.00    -0.353 C  
HETATM   10  C   UNL     1     -10.351  15.202  65.327  1.00  0.00    -0.425 C  
BRANCH  10  11
HETATM   11  C   UNL     1     -11.785  15.221  64.871  1.00  0.00    -0.230 C  
BRANCH  11  12
HETATM   12  C   UNL     1     -12.517  13.940  65.161  1.00  0.00    -0.479 C  
HETATM   13  C   UNL     1     -12.275  12.736  64.618  1.00  0.00    -0.510 C  
BRANCH  13  14
HETATM   14  C   UNL     1     -11.269  12.455  63.552  1.00  0.00    -0.540 C  
BRANCH  14  15
HETATM   15  C   UNL     1     -10.775  11.036  63.567  1.00  0.00    -0.230 C  
HETATM   16  C   UNL     1      -9.859  10.583  64.441  1.00  0.00    -0.405 C  
BRANCH  16  17
HETATM   17  C   UNL     1      -9.175  11.443  65.461  1.00  0.00    -0.193 C  
BRANCH  17  18
HETATM   18  C   UNL     1      -9.547  11.094  66.876  1.00  0.00    -0.208 C  
HETATM   19  C   UNL     1      -8.923  11.624  67.944  1.00  0.00    -0.170 C  
BRANCH  19  20
HETATM   20  C   UNL     1      -7.807  12.623  67.792  1.00  0.00    -0.154 C  
BRANCH  20  21
HETATM   21  C   UNL     1      -8.011  13.934  68.541  1.00  0.00    -0.137 C  
HETATM   22  C   UNL     1      -6.684  14.654  68.641  1.00  0.00    -0.086 C  
HETATM   23  O   UNL     1      -6.620  15.499  69.699  1.00  0.00    -0.160 OA 
HETATM   24  O   UNL     1      -5.760  14.534  67.857  1.00  0.00    -0.147 OA 
ENDBRANCH  20  21
ENDBRANCH  19  20
ENDBRANCH  17  18
ENDBRANCH  16  17
ENDBRANCH  14  15
ENDBRANCH  13  14
ENDBRANCH  11  12
ENDBRANCH  10  11
ENDBRANCH   8   9
ENDBRANCH   7   8
ENDBRANCH   5   6
ENDBRANCH   4   5
ENDBRANCH   2   3
TORSDOF 13
ENDMDL
MODEL      216
REMARK 921   NORMALIZED FREE ENERGY PREDICTED BY IDOCK:   -4.00 KCAL/MOL
REMARK 922        TOTAL FREE ENERGY PREDICTED BY IDOCK:   -9.82 KCAL/MOL
REMARK 923 INTER-LIGAND FREE ENERGY PREDICTED BY IDOCK:   -7.47 KCAL/MOL
REMARK 924 INTRA-LIGAND FREE ENERGY PREDICTED BY IDOCK:   -2.35 KCAL/MOL
REMARK 927      BINDING AFFINITY PREDICTED BY RF-SCORE:    0.00 PKD
ROOT
HETATM    1  C   UNL     1     -10.084  15.088  65.433  1.00  0.00    -0.396 C  
HETATM    2  C   UNL     1     -10.722  13.711  65.369  1.00  0.00    -0.311 C  
ENDROOT
BRANCH   2   3
HETATM    3  C   UNL     1     -10.760  13.157  63.972  1.00  0.00    -0.330 C  
HETATM    4  C   UNL     1     -10.659  11.857  63.647  1.00  0.00    -0.500 C  
BRANCH   4   5
HETATM    5  C   UNL     1     -10.397  10.735  64.612  1.00  0.00    -0.394 C  
BRANCH   5   6
HETATM    6  C   UNL     1      -9.174   9.944  64.235  1.00  0.00    -0.317 C  
HETATM    7  C   UNL     1      -7.970  10.014  64.828  1.00  0.00    -0.144 C  
BRANCH   7   8
HETATM    8  C   UNL     1      -7.633  10.933  65.965  1.00  0.00    -0.094 C  
BRANCH   8   9
HETATM    9  C   UNL     1      -7.568  10.218  67.283  1.00  0.00    -0.095 C  
HETATM   10  C   UNL     1      -8.237  10.541  68.403  1.00  0.00    -0.121 C  
BRANCH  10  11
HETATM   11  C   UNL     1      -9.253  11.638  68.568  1.00  0.00    -0.163 C  
BRANCH  11  12
HETATM   12  C   UNL     1     -10.639  11.230  68.150  1.00  0.00    -0.225 C  
HETATM   13  C   UNL     1     -11.643  10.854  68.958  1.00  0.00    -0.387 C  
BRANCH  13  14
HETATM   14  C   UNL     1     -11.548  10.696  70.439  1.00  0.00    -0.441 C  
BRANCH  14  15
HETATM   15  C   UNL     1     -12.888  10.692  71.119  1.00  0.00    -0.518 C  
HETATM   16  C   UNL     1     -13.338  11.714  71.867  1.00  0.00    -0.403 C  
BRANCH  16  17
HETATM   17  C   UNL     1     -12.544  12.950  72.167  1.00  0.00     0.090 C  
BRANCH  17  18
HETATM   18  C   UNL     1     -13.379  14.074  72.715  1.00  0.00    -0.603 C  
HETATM   19  C   UNL     1     -13.598  15.215  72.036  1.00  0.00    -0.549 C  
BRANCH  19  20
HETATM   20  C   UNL     1     -13.027  15.439  70.661  1.00  0.00    -0.450 C  
BRANCH  20  21
HETATM   21  C   UNL     1     -11.590  15.944  70.636  1.00  0.00    -0.426 C  
HETATM   22  C   UNL     1     -10.832  15.214  69.548  1.00  0.00    -0.263 C  
HETATM   23  O   UNL     1      -9.497  15.162  69.777  1.00  0.00    -0.168 OA 
HETATM   24  O   UNL     1     -11.331  14.736  68.545  1.00  0.00    -0.264 OA 
ENDBRANCH  20  21
ENDBRANCH  19  20
ENDBRANCH  17  18
ENDBRANCH  16  17
ENDBRANCH  14  15
ENDBRANCH  13  14
ENDBRANCH  11  12
ENDBRANCH  10  11
ENDBRANCH   8   9
ENDBRANCH   7   8
ENDBRANCH   5   6
ENDBRANCH   4   5
ENDBRANCH   2   3
TORSDOF 13
ENDMDL
MODEL      217
REMARK 921   NORMALIZED FREE ENERGY PREDICTED BY IDOCK:   -4.00 KCAL/MOL
REMARK 922        TOTAL FREE ENERGY PREDICTED BY IDOCK:   -9.81 KCAL/MOL
REMARK 923 INTER-LIGAND FREE ENERGY PREDICTED BY IDOCK:   -7.41 KCAL/MOL
REMARK 924 INTRA-LIGAND FREE ENERGY PREDICTED BY IDOCK:   -2.40 KCAL/MOL
REMARK 927      BINDING AFFINITY PREDICTED BY RF-SCORE:    0.00 PKD
ROOT
HETATM    1  C   UNL     1      -6.893  20.283  66.069  1.00  0.00    -0.281 C  
HETATM    2  C   UNL     1      -7.661  19.511  67.129  1.00  0.00    -0.283 C  
ENDROOT
BRANCH   2   3
HETATM    3  C   UNL     1      -8.921  20.212  67.553  1.00  0.00    -0.442 C  
HETATM    4  C   UNL     1     -10.166  19.723  67.420  1.00  0.00    -0.575 C  
BRANCH   4   5
HETATM    5  C   UNL     1     -10.528  18.432  66.740  1.00  0.00    -0.415 C  
BRANCH   5   6
HETATM    6  C   UNL     1     -10.891  17.359  67.730  1.00  0.00    -0.257 C  
HETATM    7  C   UNL     1     -10.602  16.050  67.624  1.00  0.00    -0.309 C  
BRANCH   7   8
HETATM    8  C   UNL     1      -9.884  15.429  66.463  1.00  0.00    -0.288 C  
BRANCH   8   9
HETATM    9  C   UNL     1      -8.394  15.582  66.558  1.00  0.00    -0.234 C  
HETATM   10  C   UNL     1      -7.550  14.794  67.245  1.00  0.00    -0.195 C  
BRANCH  10  11
HETATM   11  C   UNL     1      -7.895  13.544  68.008  1.00  0.00    -0.147 C  
BRANCH  11  12
HETATM   12  C   UNL     1      -7.006  12.378  67.669  1.00  0.00    -0.132 C  
HETATM   13  C   UNL     1      -7.110  11.127  68.142  1.00  0.00    -0.071 C  
BRANCH  13  14
HETATM   14  C   UNL     1      -8.095  10.667  69.165  1.00  0.00    -0.143 C  
BRANCH  14  15
HETATM   15  C   UNL     1      -8.410   9.201  69.065  1.00  0.00    -0.127 C  
HETATM   16  C   UNL     1      -9.394   8.710  68.291  1.00  0.00    -0.143 C  
BRANCH  16  17
HETATM   17  C   UNL     1     -10.332   9.558  67.486  1.00  0.00    -0.306 C  
BRANCH  17  18
HETATM   18  C   UNL     1     -10.063   9.501  66.007  1.00  0.00    -0.319 C  
HETATM   19  C   UNL     1     -10.042  10.599  65.229  1.00  0.00    -0.363 C  
BRANCH  19  20
HETATM   20  C   UNL     1     -10.275  11.974  65.795  1.00  0.00    -0.274 C  
BRANCH  20  21
HETATM   21  C   UNL     1     -11.737  12.342  66.011  1.00  0.00    -0.451 C  
HETATM   22  C   UNL     1     -12.229  13.128  64.815  1.00  0.00    -0.425 C  
HETATM   23  O   UNL     1     -13.269  13.944  65.109  1.00  0.00    -0.768 OA 
HETATM   24  O   UNL     1     -11.779  13.040  63.686  1.00  0.00    -0.463 OA 
ENDBRANCH  20  21
ENDBRANCH  19  20
ENDBRANCH  17  18
ENDBRANCH  16  17
ENDBRANCH  14  15
ENDBRANCH  13  14
ENDBRANCH  11  12
ENDBRANCH  10  11
ENDBRANCH   8   9
ENDBRANCH   7   8
ENDBRANCH   5   6
ENDBRANCH   4   5
ENDBRANCH   2   3
TORSDOF 13
ENDMDL
MODEL      218
REMARK 921   NORMALIZED FREE ENERGY PREDICTED BY IDOCK:   -3.99 KCAL/MOL
REMARK 922        TOTAL FREE ENERGY PREDICTED BY IDOCK:   -9.80 KCAL/MOL
REMARK 923 INTER-LIGAND FREE ENERGY PREDICTED BY IDOCK:   -8.03 KCAL/MOL
REMARK 924 INTRA-LIGAND FREE ENERGY PREDICTED BY IDOCK:   -1.76 KCAL/MOL
REMARK 927      BINDING AFFINITY PREDICTED BY RF-SCORE:    0.00 PKD
ROOT
HETATM    1  C   UNL     1     -10.075  19.522  67.829  1.00  0.00    -0.532 C  
HETATM    2  C   UNL     1     -10.707  18.170  67.543  1.00  0.00    -0.365 C  
ENDROOT
BRANCH   2   3
HETATM    3  C   UNL     1     -10.177  17.539  66.286  1.00  0.00    -0.356 C  
HETATM    4  C   UNL     1     -10.272  16.237  65.969  1.00  0.00    -0.376 C  
BRANCH   4   5
HETATM    5  C   UNL     1     -10.841  15.163  66.854  1.00  0.00    -0.317 C  
BRANCH   5   6
HETATM    6  C   UNL     1     -11.807  14.279  66.113  1.00  0.00    -0.413 C  
HETATM    7  C   UNL     1     -11.713  12.945  65.969  1.00  0.00    -0.456 C  
BRANCH   7   8
HETATM    8  C   UNL     1     -10.590  12.108  66.508  1.00  0.00    -0.269 C  
BRANCH   8   9
HETATM    9  C   UNL     1     -10.410  10.828  65.747  1.00  0.00    -0.295 C  
HETATM   10  C   UNL     1     -10.320   9.592  66.266  1.00  0.00    -0.230 C  
BRANCH  10  11
HETATM   11  C   UNL     1     -10.454   9.206  67.714  1.00  0.00    -0.306 C  
BRANCH  11  12
HETATM   12  C   UNL     1      -9.143   8.839  68.354  1.00  0.00    -0.141 C  
HETATM   13  C   UNL     1      -8.645   7.602  68.510  1.00  0.00    -0.129 C  
BRANCH  13  14
HETATM   14  C   UNL     1      -9.343   6.336  68.139  1.00  0.00    -0.115 C  
BRANCH  14  15
HETATM   15  C   UNL     1      -9.446   5.363  69.281  1.00  0.00    -0.179 C  
HETATM   16  C   UNL     1     -10.401   5.434  70.225  1.00  0.00    -0.357 C  
BRANCH  16  17
HETATM   17  C   UNL     1     -11.436   6.517  70.294  1.00  0.00    -0.474 C  
BRANCH  17  18
HETATM   18  C   UNL     1     -11.833   6.868  71.701  1.00  0.00    -0.363 C  
HETATM   19  C   UNL     1     -12.044   8.135  72.103  1.00  0.00    -0.408 C  
BRANCH  19  20
HETATM   20  C   UNL     1     -11.908   9.298  71.156  1.00  0.00    -0.396 C  
BRANCH  20  21
HETATM   21  C   UNL     1     -12.914  10.422  71.370  1.00  0.00    -0.545 C  
HETATM   22  C   UNL     1     -12.371  11.691  70.748  1.00  0.00    -0.358 C  
HETATM   23  O   UNL     1     -12.869  12.814  71.319  1.00  0.00    -0.359 OA 
HETATM   24  O   UNL     1     -11.591  11.736  69.814  1.00  0.00    -0.295 OA 
ENDBRANCH  20  21
ENDBRANCH  19  20
ENDBRANCH  17  18
ENDBRANCH  16  17
ENDBRANCH  14  15
ENDBRANCH  13  14
ENDBRANCH  11  12
ENDBRANCH  10  11
ENDBRANCH   8   9
ENDBRANCH   7   8
ENDBRANCH   5   6
ENDBRANCH   4   5
ENDBRANCH   2   3
TORSDOF 13
ENDMDL
MODEL      219
REMARK 921   NORMALIZED FREE ENERGY PREDICTED BY IDOCK:   -3.99 KCAL/MOL
REMARK 922        TOTAL FREE ENERGY PREDICTED BY IDOCK:   -9.79 KCAL/MOL
REMARK 923 INTER-LIGAND FREE ENERGY PREDICTED BY IDOCK:   -7.94 KCAL/MOL
REMARK 924 INTRA-LIGAND FREE ENERGY PREDICTED BY IDOCK:   -1.86 KCAL/MOL
REMARK 927      BINDING AFFINITY PREDICTED BY RF-SCORE:    0.00 PKD
ROOT
HETATM    1  C   UNL     1      -9.854   6.084  73.861  1.00  0.00    -0.200 C  
HETATM    2  C   UNL     1     -10.657   5.331  72.813  1.00  0.00    -0.276 C  
ENDROOT
BRANCH   2   3
HETATM    3  C   UNL     1     -11.930   6.039  72.445  1.00  0.00    -0.232 C  
HETATM    4  C   UNL     1     -12.102   6.817  71.363  1.00  0.00    -0.415 C  
BRANCH   4   5
HETATM    5  C   UNL     1     -11.030   7.194  70.380  1.00  0.00    -0.290 C  
BRANCH   5   6
HETATM    6  C   UNL     1     -10.182   8.330  70.882  1.00  0.00    -0.224 C  
HETATM    7  C   UNL     1     -10.556   9.618  70.981  1.00  0.00    -0.362 C  
BRANCH   7   8
HETATM    8  C   UNL     1     -11.898  10.148  70.567  1.00  0.00    -0.408 C  
BRANCH   8   9
HETATM    9  C   UNL     1     -11.806  11.118  69.426  1.00  0.00    -0.415 C  
HETATM   10  C   UNL     1     -11.900  12.457  69.503  1.00  0.00    -0.368 C  
BRANCH  10  11
HETATM   11  C   UNL     1     -12.043  13.285  70.750  1.00  0.00    -0.311 C  
BRANCH  11  12
HETATM   12  C   UNL     1     -12.717  14.608  70.510  1.00  0.00    -0.394 C  
HETATM   13  C   UNL     1     -12.318  15.569  69.662  1.00  0.00    -0.221 C  
BRANCH  13  14
HETATM   14  C   UNL     1     -11.072  15.536  68.841  1.00  0.00    -0.282 C  
BRANCH  14  15
HETATM   15  C   UNL     1     -10.791  16.837  68.143  1.00  0.00    -0.353 C  
HETATM   16  C   UNL     1     -10.383  16.914  66.864  1.00  0.00    -0.304 C  
BRANCH  16  17
HETATM   17  C   UNL     1     -10.099  15.723  65.999  1.00  0.00    -0.359 C  
BRANCH  17  18
HETATM   18  C   UNL     1     -10.950  15.672  64.761  1.00  0.00    -0.418 C  
HETATM   19  C   UNL     1     -11.996  14.835  64.631  1.00  0.00    -0.448 C  
BRANCH  19  20
HETATM   20  C   UNL     1     -12.397  13.893  65.734  1.00  0.00    -0.518 C  
BRANCH  20  21
HETATM   21  C   UNL     1     -12.322  12.414  65.377  1.00  0.00    -0.308 C  
HETATM   22  C   UNL     1     -10.915  11.918  65.630  1.00  0.00    -0.304 C  
HETATM   23  O   UNL     1     -10.589  10.842  64.873  1.00  0.00    -0.302 OA 
HETATM   24  O   UNL     1     -10.140  12.392  66.441  1.00  0.00    -0.227 OA 
ENDBRANCH  20  21
ENDBRANCH  19  20
ENDBRANCH  17  18
ENDBRANCH  16  17
ENDBRANCH  14  15
ENDBRANCH  13  14
ENDBRANCH  11  12
ENDBRANCH  10  11
ENDBRANCH   8   9
ENDBRANCH   7   8
ENDBRANCH   5   6
ENDBRANCH   4   5
ENDBRANCH   2   3
TORSDOF 13
ENDMDL
MODEL      220
REMARK 921   NORMALIZED FREE ENERGY PREDICTED BY IDOCK:   -3.98 KCAL/MOL
REMARK 922        TOTAL FREE ENERGY PREDICTED BY IDOCK:   -9.79 KCAL/MOL
REMARK 923 INTER-LIGAND FREE ENERGY PREDICTED BY IDOCK:   -7.65 KCAL/MOL
REMARK 924 INTRA-LIGAND FREE ENERGY PREDICTED BY IDOCK:   -2.13 KCAL/MOL
REMARK 927      BINDING AFFINITY PREDICTED BY RF-SCORE:    0.00 PKD
ROOT
HETATM    1  C   UNL     1     -11.407   5.050  72.993  1.00  0.00    -0.374 C  
HETATM    2  C   UNL     1     -11.644   6.341  72.228  1.00  0.00    -0.355 C  
ENDROOT
BRANCH   2   3
HETATM    3  C   UNL     1     -10.820   7.482  72.753  1.00  0.00    -0.397 C  
HETATM    4  C   UNL     1     -10.583   8.634  72.103  1.00  0.00    -0.411 C  
BRANCH   4   5
HETATM    5  C   UNL     1     -11.020   8.951  70.701  1.00  0.00    -0.287 C  
BRANCH   5   6
HETATM    6  C   UNL     1     -10.103   8.342  69.676  1.00  0.00    -0.199 C  
HETATM    7  C   UNL     1      -9.028   8.930  69.123  1.00  0.00    -0.140 C  
BRANCH   7   8
HETATM    8  C   UNL     1      -8.576  10.329  69.420  1.00  0.00    -0.167 C  
BRANCH   8   9
HETATM    9  C   UNL     1      -7.632  10.862  68.382  1.00  0.00    -0.104 C  
HETATM   10  C   UNL     1      -7.967  11.440  67.216  1.00  0.00    -0.149 C  
BRANCH  10  11
HETATM   11  C   UNL     1      -9.354  11.752  66.723  1.00  0.00    -0.199 C  
BRANCH  11  12
HETATM   12  C   UNL     1      -9.948  10.651  65.888  1.00  0.00    -0.312 C  
HETATM   13  C   UNL     1     -10.319  10.733  64.600  1.00  0.00    -0.394 C  
BRANCH  13  14
HETATM   14  C   UNL     1     -10.281  11.969  63.766  1.00  0.00    -0.447 C  
BRANCH  14  15
HETATM   15  C   UNL     1     -11.648  12.477  63.401  1.00  0.00    -0.547 C  
HETATM   16  C   UNL     1     -12.234  13.520  64.014  1.00  0.00    -0.458 C  
BRANCH  16  17
HETATM   17  C   UNL     1     -11.632  14.263  65.169  1.00  0.00    -0.355 C  
BRANCH  17  18
HETATM   18  C   UNL     1     -12.320  13.984  66.477  1.00  0.00    -0.442 C  
HETATM   19  C   UNL     1     -11.851  14.432  67.655  1.00  0.00    -0.412 C  
BRANCH  19  20
HETATM   20  C   UNL     1     -10.600  15.265  67.744  1.00  0.00    -0.266 C  
BRANCH  20  21
HETATM   21  C   UNL     1     -10.827  16.771  67.734  1.00  0.00    -0.285 C  
HETATM   22  C   UNL     1      -9.711  17.442  68.506  1.00  0.00    -0.304 C  
HETATM   23  O   UNL     1     -10.070  18.642  69.020  1.00  0.00    -0.394 OA 
HETATM   24  O   UNL     1      -8.587  16.992  68.645  1.00  0.00    -0.254 OA 
ENDBRANCH  20  21
ENDBRANCH  19  20
ENDBRANCH  17  18
ENDBRANCH  16  17
ENDBRANCH  14  15
ENDBRANCH  13  14
ENDBRANCH  11  12
ENDBRANCH  10  11
ENDBRANCH   8   9
ENDBRANCH   7   8
ENDBRANCH   5   6
ENDBRANCH   4   5
ENDBRANCH   2   3
TORSDOF 13
ENDMDL
MODEL      221
REMARK 921   NORMALIZED FREE ENERGY PREDICTED BY IDOCK:   -3.98 KCAL/MOL
REMARK 922        TOTAL FREE ENERGY PREDICTED BY IDOCK:   -9.77 KCAL/MOL
REMARK 923 INTER-LIGAND FREE ENERGY PREDICTED BY IDOCK:   -8.50 KCAL/MOL
REMARK 924 INTRA-LIGAND FREE ENERGY PREDICTED BY IDOCK:   -1.27 KCAL/MOL
REMARK 927      BINDING AFFINITY PREDICTED BY RF-SCORE:    0.00 PKD
ROOT
HETATM    1  C   UNL     1      -8.089   4.734  71.802  1.00  0.00    -0.108 C  
HETATM    2  C   UNL     1      -9.262   4.497  70.865  1.00  0.00    -0.201 C  
ENDROOT
BRANCH   2   3
HETATM    3  C   UNL     1     -10.540   5.098  71.378  1.00  0.00    -0.207 C  
HETATM    4  C   UNL     1     -11.149   6.183  70.870  1.00  0.00    -0.371 C  
BRANCH   4   5
HETATM    5  C   UNL     1     -10.615   7.043  69.760  1.00  0.00    -0.253 C  
BRANCH   5   6
HETATM    6  C   UNL     1      -9.649   8.079  70.267  1.00  0.00    -0.171 C  
HETATM    7  C   UNL     1      -9.970   9.241  70.862  1.00  0.00    -0.367 C  
BRANCH   7   8
HETATM    8  C   UNL     1     -11.373   9.720  71.092  1.00  0.00    -0.459 C  
BRANCH   8   9
HETATM    9  C   UNL     1     -11.721  10.910  70.246  1.00  0.00    -0.437 C  
HETATM   10  C   UNL     1     -12.497  11.947  70.603  1.00  0.00    -0.347 C  
BRANCH  10  11
HETATM   11  C   UNL     1     -13.128  12.186  71.948  1.00  0.00    -0.475 C  
BRANCH  11  12
HETATM   12  C   UNL     1     -14.085  13.347  71.956  1.00  0.00    -0.313 C  
HETATM   13  C   UNL     1     -13.914  14.524  72.579  1.00  0.00    -0.510 C  
BRANCH  13  14
HETATM   14  C   UNL     1     -12.758  14.879  73.454  1.00  0.00    -0.636 C  
BRANCH  14  15
HETATM   15  C   UNL     1     -12.174  16.228  73.140  1.00  0.00    -0.620 C  
HETATM   16  C   UNL     1     -11.488  16.490  72.014  1.00  0.00    -0.077 C  
BRANCH  16  17
HETATM   17  C   UNL     1     -11.167  15.466  70.967  1.00  0.00    -0.408 C  
BRANCH  17  18
HETATM   18  C   UNL     1     -12.103  15.507  69.791  1.00  0.00    -0.372 C  
HETATM   19  C   UNL     1     -11.754  15.068  68.568  1.00  0.00    -0.345 C  
BRANCH  19  20
HETATM   20  C   UNL     1     -10.392  14.486  68.296  1.00  0.00    -0.236 C  
BRANCH  20  21
HETATM   21  C   UNL     1     -10.395  13.193  67.489  1.00  0.00    -0.225 C  
HETATM   22  C   UNL     1     -11.655  13.138  66.653  1.00  0.00    -0.356 C  
HETATM   23  O   UNL     1     -12.030  11.873  66.344  1.00  0.00    -0.572 OA 
HETATM   24  O   UNL     1     -12.278  14.107  66.258  1.00  0.00    -0.437 OA 
ENDBRANCH  20  21
ENDBRANCH  19  20
ENDBRANCH  17  18
ENDBRANCH  16  17
ENDBRANCH  14  15
ENDBRANCH  13  14
ENDBRANCH  11  12
ENDBRANCH  10  11
ENDBRANCH   8   9
ENDBRANCH   7   8
ENDBRANCH   5   6
ENDBRANCH   4   5
ENDBRANCH   2   3
TORSDOF 13
ENDMDL
MODEL      222
REMARK 921   NORMALIZED FREE ENERGY PREDICTED BY IDOCK:   -3.95 KCAL/MOL
REMARK 922        TOTAL FREE ENERGY PREDICTED BY IDOCK:   -9.73 KCAL/MOL
REMARK 923 INTER-LIGAND FREE ENERGY PREDICTED BY IDOCK:   -7.60 KCAL/MOL
REMARK 924 INTRA-LIGAND FREE ENERGY PREDICTED BY IDOCK:   -2.13 KCAL/MOL
REMARK 927      BINDING AFFINITY PREDICTED BY RF-SCORE:    0.00 PKD
ROOT
HETATM    1  C   UNL     1      -8.561  15.436  66.520  1.00  0.00    -0.294 C  
HETATM    2  C   UNL     1      -9.542  16.564  66.793  1.00  0.00    -0.268 C  
ENDROOT
BRANCH   2   3
HETATM    3  C   UNL     1      -9.728  16.825  68.261  1.00  0.00    -0.252 C  
HETATM    4  C   UNL     1     -10.732  16.344  69.015  1.00  0.00    -0.322 C  
BRANCH   4   5
HETATM    5  C   UNL     1     -11.896  15.540  68.508  1.00  0.00    -0.276 C  
BRANCH   5   6
HETATM    6  C   UNL     1     -11.571  14.073  68.426  1.00  0.00    -0.366 C  
HETATM    7  C   UNL     1     -11.825  13.260  67.385  1.00  0.00    -0.413 C  
BRANCH   7   8
HETATM    8  C   UNL     1     -12.518  13.685  66.124  1.00  0.00    -0.449 C  
BRANCH   8   9
HETATM    9  C   UNL     1     -11.555  13.989  65.013  1.00  0.00    -0.351 C  
HETATM   10  C   UNL     1     -10.661  13.143  64.475  1.00  0.00    -0.425 C  
BRANCH  10  11
HETATM   11  C   UNL     1     -10.474  11.688  64.808  1.00  0.00    -0.346 C  
BRANCH  11  12
HETATM   12  C   UNL     1      -9.263  11.426  65.662  1.00  0.00    -0.209 C  
HETATM   13  C   UNL     1      -9.078  10.389  66.494  1.00  0.00    -0.175 C  
BRANCH  13  14
HETATM   14  C   UNL     1     -10.082   9.325  66.788  1.00  0.00    -0.331 C  
BRANCH  14  15
HETATM   15  C   UNL     1      -9.540   7.935  66.607  1.00  0.00    -0.293 C  
HETATM   16  C   UNL     1      -9.972   6.877  67.316  1.00  0.00    -0.224 C  
BRANCH  16  17
HETATM   17  C   UNL     1     -10.994   6.959  68.410  1.00  0.00    -0.198 C  
BRANCH  17  18
HETATM   18  C   UNL     1     -10.846   5.875  69.442  1.00  0.00    -0.422 C  
HETATM   19  C   UNL     1     -11.154   6.058  70.738  1.00  0.00    -0.355 C  
BRANCH  19  20
HETATM   20  C   UNL     1     -11.685   7.372  71.247  1.00  0.00    -0.316 C  
BRANCH  20  21
HETATM   21  C   UNL     1     -10.950   7.938  72.456  1.00  0.00    -0.412 C  
HETATM   22  C   UNL     1      -9.653   8.565  71.993  1.00  0.00    -0.301 C  
HETATM   23  O   UNL     1      -8.707   8.599  72.962  1.00  0.00    -0.380 OA 
HETATM   24  O   UNL     1      -9.454   9.026  70.884  1.00  0.00    -0.221 OA 
ENDBRANCH  20  21
ENDBRANCH  19  20
ENDBRANCH  17  18
ENDBRANCH  16  17
ENDBRANCH  14  15
ENDBRANCH  13  14
ENDBRANCH  11  12
ENDBRANCH  10  11
ENDBRANCH   8   9
ENDBRANCH   7   8
ENDBRANCH   5   6
ENDBRANCH   4   5
ENDBRANCH   2   3
TORSDOF 13
ENDMDL
MODEL      223
REMARK 921   NORMALIZED FREE ENERGY PREDICTED BY IDOCK:   -3.95 KCAL/MOL
REMARK 922        TOTAL FREE ENERGY PREDICTED BY IDOCK:   -9.73 KCAL/MOL
REMARK 923 INTER-LIGAND FREE ENERGY PREDICTED BY IDOCK:   -6.69 KCAL/MOL
REMARK 924 INTRA-LIGAND FREE ENERGY PREDICTED BY IDOCK:   -3.04 KCAL/MOL
REMARK 927      BINDING AFFINITY PREDICTED BY RF-SCORE:    0.00 PKD
ROOT
HETATM    1  C   UNL     1     -12.747  12.902  64.943  1.00  0.00    -0.474 C  
HETATM    2  C   UNL     1     -11.877  14.070  64.511  1.00  0.00    -0.452 C  
ENDROOT
BRANCH   2   3
HETATM    3  C   UNL     1     -10.461  13.947  65.000  1.00  0.00    -0.428 C  
HETATM    4  C   UNL     1     -10.044  14.214  66.250  1.00  0.00    -0.308 C  
BRANCH   4   5
HETATM    5  C   UNL     1     -10.898  14.770  67.354  1.00  0.00    -0.300 C  
BRANCH   5   6
HETATM    6  C   UNL     1     -10.704  16.253  67.520  1.00  0.00    -0.300 C  
HETATM    7  C   UNL     1      -9.673  16.855  68.138  1.00  0.00    -0.254 C  
BRANCH   7   8
HETATM    8  C   UNL     1      -8.540  16.131  68.804  1.00  0.00    -0.236 C  
BRANCH   8   9
HETATM    9  C   UNL     1      -7.312  16.070  67.944  1.00  0.00    -0.145 C  
HETATM   10  C   UNL     1      -6.591  14.973  67.654  1.00  0.00    -0.193 C  
BRANCH  10  11
HETATM   11  C   UNL     1      -6.893  13.556  68.061  1.00  0.00    -0.136 C  
BRANCH  11  12
HETATM   12  C   UNL     1      -5.921  12.557  67.496  1.00  0.00    -0.152 C  
HETATM   13  C   UNL     1      -6.215  11.501  66.721  1.00  0.00    -0.140 C  
BRANCH  13  14
HETATM   14  C   UNL     1      -7.590  11.071  66.331  1.00  0.00    -0.135 C  
BRANCH  14  15
HETATM   15  C   UNL     1      -8.067   9.863  67.088  1.00  0.00    -0.117 C  
HETATM   16  C   UNL     1      -9.035   9.912  68.020  1.00  0.00    -0.121 C  
BRANCH  16  17
HETATM   17  C   UNL     1      -9.712  11.175  68.463  1.00  0.00    -0.196 C  
BRANCH  17  18
HETATM   18  C   UNL     1     -11.158  11.246  68.057  1.00  0.00    -0.325 C  
HETATM   19  C   UNL     1     -12.147  11.504  68.932  1.00  0.00    -0.270 C  
BRANCH  19  20
HETATM   20  C   UNL     1     -11.868  11.754  70.390  1.00  0.00    -0.362 C  
BRANCH  20  21
HETATM   21  C   UNL     1     -12.737  10.960  71.357  1.00  0.00    -0.539 C  
HETATM   22  C   UNL     1     -12.049   9.648  71.670  1.00  0.00    -0.402 C  
HETATM   23  O   UNL     1     -12.914   8.674  72.043  1.00  0.00    -0.336 OA 
HETATM   24  O   UNL     1     -10.847   9.460  71.630  1.00  0.00    -0.368 OA 
ENDBRANCH  20  21
ENDBRANCH  19  20
ENDBRANCH  17  18
ENDBRANCH  16  17
ENDBRANCH  14  15
ENDBRANCH  13  14
ENDBRANCH  11  12
ENDBRANCH  10  11
ENDBRANCH   8   9
ENDBRANCH   7   8
ENDBRANCH   5   6
ENDBRANCH   4   5
ENDBRANCH   2   3
TORSDOF 13
ENDMDL
MODEL      224
REMARK 921   NORMALIZED FREE ENERGY PREDICTED BY IDOCK:   -3.94 KCAL/MOL
REMARK 922        TOTAL FREE ENERGY PREDICTED BY IDOCK:   -9.71 KCAL/MOL
REMARK 923 INTER-LIGAND FREE ENERGY PREDICTED BY IDOCK:   -7.54 KCAL/MOL
REMARK 924 INTRA-LIGAND FREE ENERGY PREDICTED BY IDOCK:   -2.17 KCAL/MOL
REMARK 927      BINDING AFFINITY PREDICTED BY RF-SCORE:    0.00 PKD
ROOT
HETATM    1  C   UNL     1      -9.863   5.427  69.300  1.00  0.00    -0.249 C  
HETATM    2  C   UNL     1     -10.961   6.170  70.043  1.00  0.00    -0.441 C  
ENDROOT
BRANCH   2   3
HETATM    3  C   UNL     1     -10.876   5.985  71.532  1.00  0.00    -0.322 C  
HETATM    4  C   UNL     1     -11.302   6.868  72.451  1.00  0.00    -0.308 C  
BRANCH   4   5
HETATM    5  C   UNL     1     -11.854   8.235  72.157  1.00  0.00    -0.431 C  
BRANCH   5   6
HETATM    6  C   UNL     1     -10.810   9.148  71.574  1.00  0.00    -0.436 C  
HETATM    7  C   UNL     1     -11.040  10.241  70.824  1.00  0.00    -0.303 C  
BRANCH   7   8
HETATM    8  C   UNL     1     -12.401  10.719  70.411  1.00  0.00    -0.438 C  
BRANCH   8   9
HETATM    9  C   UNL     1     -12.530  12.212  70.476  1.00  0.00    -0.282 C  
HETATM   10  C   UNL     1     -12.040  13.098  69.592  1.00  0.00    -0.317 C  
BRANCH  10  11
HETATM   11  C   UNL     1     -11.321  12.793  68.307  1.00  0.00    -0.335 C  
BRANCH  11  12
HETATM   12  C   UNL     1      -9.840  12.599  68.487  1.00  0.00    -0.152 C  
HETATM   13  C   UNL     1      -8.866  13.085  67.702  1.00  0.00    -0.191 C  
BRANCH  13  14
HETATM   14  C   UNL     1      -9.075  13.857  66.442  1.00  0.00    -0.105 C  
BRANCH  14  15
HETATM   15  C   UNL     1      -9.493  15.280  66.684  1.00  0.00    -0.281 C  
HETATM   16  C   UNL     1     -10.516  15.868  66.040  1.00  0.00    -0.357 C  
BRANCH  16  17
HETATM   17  C   UNL     1     -11.323  15.206  64.963  1.00  0.00    -0.381 C  
BRANCH  17  18
HETATM   18  C   UNL     1     -12.587  14.572  65.474  1.00  0.00    -0.233 C  
HETATM   19  C   UNL     1     -12.963  13.325  65.137  1.00  0.00    -0.231 C  
BRANCH  19  20
HETATM   20  C   UNL     1     -12.126  12.465  64.226  1.00  0.00    -0.516 C  
BRANCH  20  21
HETATM   21  C   UNL     1     -11.180  11.506  64.937  1.00  0.00    -0.242 C  
HETATM   22  C   UNL     1     -10.137  11.024  63.951  1.00  0.00    -0.356 C  
HETATM   23  O   UNL     1      -9.615   9.819  64.281  1.00  0.00    -0.236 OA 
HETATM   24  O   UNL     1      -9.762  11.641  62.970  1.00  0.00    -0.396 OA 
ENDBRANCH  20  21
ENDBRANCH  19  20
ENDBRANCH  17  18
ENDBRANCH  16  17
ENDBRANCH  14  15
ENDBRANCH  13  14
ENDBRANCH  11  12
ENDBRANCH  10  11
ENDBRANCH   8   9
ENDBRANCH   7   8
ENDBRANCH   5   6
ENDBRANCH   4   5
ENDBRANCH   2   3
TORSDOF 13
ENDMDL
MODEL      225
REMARK 921   NORMALIZED FREE ENERGY PREDICTED BY IDOCK:   -3.94 KCAL/MOL
REMARK 922        TOTAL FREE ENERGY PREDICTED BY IDOCK:   -9.71 KCAL/MOL
REMARK 923 INTER-LIGAND FREE ENERGY PREDICTED BY IDOCK:   -7.26 KCAL/MOL
REMARK 924 INTRA-LIGAND FREE ENERGY PREDICTED BY IDOCK:   -2.45 KCAL/MOL
REMARK 927      BINDING AFFINITY PREDICTED BY RF-SCORE:    0.00 PKD
ROOT
HETATM    1  C   UNL     1     -10.279  16.471  66.649  1.00  0.00    -0.302 C  
HETATM    2  C   UNL     1     -10.800  15.087  66.301  1.00  0.00    -0.333 C  
ENDROOT
BRANCH   2   3
HETATM    3  C   UNL     1      -9.884  13.991  66.768  1.00  0.00    -0.275 C  
HETATM    4  C   UNL     1     -10.276  12.847  67.355  1.00  0.00    -0.230 C  
BRANCH   4   5
HETATM    5  C   UNL     1     -11.688  12.500  67.734  1.00  0.00    -0.419 C  
BRANCH   5   6
HETATM    6  C   UNL     1     -12.025  12.958  69.126  1.00  0.00    -0.308 C  
HETATM    7  C   UNL     1     -11.899  12.235  70.253  1.00  0.00    -0.324 C  
BRANCH   7   8
HETATM    8  C   UNL     1     -11.422  10.813  70.303  1.00  0.00    -0.406 C  
BRANCH   8   9
HETATM    9  C   UNL     1     -12.236   9.966  71.236  1.00  0.00    -0.480 C  
HETATM   10  C   UNL     1     -11.812   8.884  71.912  1.00  0.00    -0.440 C  
BRANCH  10  11
HETATM   11  C   UNL     1     -10.415   8.327  71.945  1.00  0.00    -0.342 C  
BRANCH  11  12
HETATM   12  C   UNL     1     -10.078   7.648  73.245  1.00  0.00    -0.393 C  
HETATM   13  C   UNL     1     -10.380   6.388  73.594  1.00  0.00    -0.301 C  
BRANCH  13  14
HETATM   14  C   UNL     1     -11.184   5.433  72.776  1.00  0.00    -0.358 C  
BRANCH  14  15
HETATM   15  C   UNL     1     -10.384   4.261  72.282  1.00  0.00    -0.214 C  
HETATM   16  C   UNL     1      -9.666   4.285  71.146  1.00  0.00    -0.259 C  
BRANCH  16  17
HETATM   17  C   UNL     1      -9.621   5.451  70.205  1.00  0.00    -0.235 C  
BRANCH  17  18
HETATM   18  C   UNL     1     -10.867   5.593  69.376  1.00  0.00    -0.334 C  
HETATM   19  C   UNL     1     -11.112   6.671  68.609  1.00  0.00    -0.288 C  
BRANCH  19  20
HETATM   20  C   UNL     1     -10.138   7.815  68.518  1.00  0.00    -0.216 C  
BRANCH  20  21
HETATM   21  C   UNL     1     -10.387   8.782  67.368  1.00  0.00    -0.349 C  
HETATM   22  C   UNL     1      -9.181   8.777  66.452  1.00  0.00    -0.189 C  
HETATM   23  O   UNL     1      -9.044   9.929  65.752  1.00  0.00    -0.150 OA 
HETATM   24  O   UNL     1      -8.411   7.844  66.313  1.00  0.00    -0.114 OA 
ENDBRANCH  20  21
ENDBRANCH  19  20
ENDBRANCH  17  18
ENDBRANCH  16  17
ENDBRANCH  14  15
ENDBRANCH  13  14
ENDBRANCH  11  12
ENDBRANCH  10  11
ENDBRANCH   8   9
ENDBRANCH   7   8
ENDBRANCH   5   6
ENDBRANCH   4   5
ENDBRANCH   2   3
TORSDOF 13
ENDMDL
MODEL      226
REMARK 921   NORMALIZED FREE ENERGY PREDICTED BY IDOCK:   -3.93 KCAL/MOL
REMARK 922        TOTAL FREE ENERGY PREDICTED BY IDOCK:   -9.70 KCAL/MOL
REMARK 923 INTER-LIGAND FREE ENERGY PREDICTED BY IDOCK:   -6.89 KCAL/MOL
REMARK 924 INTRA-LIGAND FREE ENERGY PREDICTED BY IDOCK:   -2.81 KCAL/MOL
REMARK 927      BINDING AFFINITY PREDICTED BY RF-SCORE:    0.00 PKD
ROOT
HETATM    1  C   UNL     1      -9.459  10.284  62.703  1.00  0.00    -0.309 C  
HETATM    2  C   UNL     1      -8.667  10.117  63.989  1.00  0.00    -0.224 C  
ENDROOT
BRANCH   2   3
HETATM    3  C   UNL     1      -9.506   9.594  65.120  1.00  0.00    -0.332 C  
HETATM    4  C   UNL     1      -9.601  10.148  66.341  1.00  0.00    -0.242 C  
BRANCH   4   5
HETATM    5  C   UNL     1      -8.814  11.334  66.823  1.00  0.00    -0.170 C  
BRANCH   5   6
HETATM    6  C   UNL     1      -7.463  10.935  67.350  1.00  0.00    -0.100 C  
HETATM    7  C   UNL     1      -7.198  10.462  68.581  1.00  0.00    -0.082 C  
BRANCH   7   8
HETATM    8  C   UNL     1      -8.224  10.280  69.661  1.00  0.00    -0.146 C  
BRANCH   8   9
HETATM    9  C   UNL     1      -7.883   9.155  70.594  1.00  0.00    -0.165 C  
HETATM   10  C   UNL     1      -8.283   7.877  70.487  1.00  0.00    -0.118 C  
BRANCH  10  11
HETATM   11  C   UNL     1      -9.095   7.271  69.374  1.00  0.00    -0.142 C  
BRANCH  11  12
HETATM   12  C   UNL     1      -9.829   6.025  69.786  1.00  0.00    -0.208 C  
HETATM   13  C   UNL     1     -11.096   5.947  70.224  1.00  0.00    -0.368 C  
BRANCH  13  14
HETATM   14  C   UNL     1     -12.003   7.109  70.458  1.00  0.00    -0.258 C  
BRANCH  14  15
HETATM   15  C   UNL     1     -11.703   7.844  71.734  1.00  0.00    -0.329 C  
HETATM   16  C   UNL     1     -11.587   9.182  71.805  1.00  0.00    -0.457 C  
BRANCH  16  17
HETATM   17  C   UNL     1     -11.681  10.097  70.621  1.00  0.00    -0.425 C  
BRANCH  17  18
HETATM   18  C   UNL     1     -12.290  11.432  70.950  1.00  0.00    -0.483 C  
HETATM   19  C   UNL     1     -12.271  12.471  70.095  1.00  0.00    -0.307 C  
BRANCH  19  20
HETATM   20  C   UNL     1     -11.645  12.361  68.731  1.00  0.00    -0.373 C  
BRANCH  20  21
HETATM   21  C   UNL     1     -11.714  13.627  67.887  1.00  0.00    -0.395 C  
HETATM   22  C   UNL     1     -11.879  13.240  66.433  1.00  0.00    -0.396 C  
HETATM   23  O   UNL     1     -11.417  14.185  65.578  1.00  0.00    -0.312 OA 
HETATM   24  O   UNL     1     -12.392  12.209  66.035  1.00  0.00    -0.550 OA 
ENDBRANCH  20  21
ENDBRANCH  19  20
ENDBRANCH  17  18
ENDBRANCH  16  17
ENDBRANCH  14  15
ENDBRANCH  13  14
ENDBRANCH  11  12
ENDBRANCH  10  11
ENDBRANCH   8   9
ENDBRANCH   7   8
ENDBRANCH   5   6
ENDBRANCH   4   5
ENDBRANCH   2   3
TORSDOF 13
ENDMDL
MODEL      227
REMARK 921   NORMALIZED FREE ENERGY PREDICTED BY IDOCK:   -3.93 KCAL/MOL
REMARK 922        TOTAL FREE ENERGY PREDICTED BY IDOCK:   -9.69 KCAL/MOL
REMARK 923 INTER-LIGAND FREE ENERGY PREDICTED BY IDOCK:   -7.04 KCAL/MOL
REMARK 924 INTRA-LIGAND FREE ENERGY PREDICTED BY IDOCK:   -2.65 KCAL/MOL
REMARK 927      BINDING AFFINITY PREDICTED BY RF-SCORE:    0.00 PKD
ROOT
HETATM    1  C   UNL     1      -9.598  15.231  66.151  1.00  0.00    -0.353 C  
HETATM    2  C   UNL     1     -10.273  14.065  65.449  1.00  0.00    -0.368 C  
ENDROOT
BRANCH   2   3
HETATM    3  C   UNL     1     -11.697  13.873  65.889  1.00  0.00    -0.372 C  
HETATM    4  C   UNL     1     -12.138  12.887  66.689  1.00  0.00    -0.360 C  
BRANCH   4   5
HETATM    5  C   UNL     1     -11.306  11.749  67.210  1.00  0.00    -0.379 C  
BRANCH   5   6
HETATM    6  C   UNL     1     -10.692  12.067  68.546  1.00  0.00    -0.261 C  
HETATM    7  C   UNL     1     -11.173  11.705  69.748  1.00  0.00    -0.203 C  
BRANCH   7   8
HETATM    8  C   UNL     1     -12.443  10.935  69.960  1.00  0.00    -0.332 C  
BRANCH   8   9
HETATM    9  C   UNL     1     -12.788  10.782  71.412  1.00  0.00    -0.557 C  
HETATM   10  C   UNL     1     -13.513   9.794  71.963  1.00  0.00    -0.498 C  
BRANCH  10  11
HETATM   11  C   UNL     1     -14.077   8.586  71.266  1.00  0.00    -0.267 C  
BRANCH  11  12
HETATM   12  C   UNL     1     -13.531   7.287  71.794  1.00  0.00    -0.373 C  
HETATM   13  C   UNL     1     -12.260   6.862  71.721  1.00  0.00    -0.396 C  
BRANCH  13  14
HETATM   14  C   UNL     1     -11.149   7.576  71.026  1.00  0.00    -0.274 C  
BRANCH  14  15
HETATM   15  C   UNL     1     -10.138   8.159  71.974  1.00  0.00    -0.304 C  
HETATM   16  C   UNL     1      -9.063   8.856  71.567  1.00  0.00    -0.299 C  
BRANCH  16  17
HETATM   17  C   UNL     1      -8.704   9.086  70.130  1.00  0.00    -0.184 C  
BRANCH  17  18
HETATM   18  C   UNL     1      -7.555   8.235  69.662  1.00  0.00    -0.094 C  
HETATM   19  C   UNL     1      -7.311   7.995  68.361  1.00  0.00    -0.098 C  
BRANCH  19  20
HETATM   20  C   UNL     1      -8.172   8.578  67.273  1.00  0.00    -0.108 C  
BRANCH  20  21
HETATM   21  C   UNL     1      -8.995   7.563  66.489  1.00  0.00    -0.189 C  
HETATM   22  C   UNL     1     -10.393   7.514  67.066  1.00  0.00    -0.324 C  
HETATM   23  O   UNL     1     -11.015   6.330  66.844  1.00  0.00    -0.358 OA 
HETATM   24  O   UNL     1     -10.945   8.431  67.648  1.00  0.00    -0.084 OA 
ENDBRANCH  20  21
ENDBRANCH  19  20
ENDBRANCH  17  18
ENDBRANCH  16  17
ENDBRANCH  14  15
ENDBRANCH  13  14
ENDBRANCH  11  12
ENDBRANCH  10  11
ENDBRANCH   8   9
ENDBRANCH   7   8
ENDBRANCH   5   6
ENDBRANCH   4   5
ENDBRANCH   2   3
TORSDOF 13
ENDMDL
MODEL      228
REMARK 921   NORMALIZED FREE ENERGY PREDICTED BY IDOCK:   -3.92 KCAL/MOL
REMARK 922        TOTAL FREE ENERGY PREDICTED BY IDOCK:   -9.68 KCAL/MOL
REMARK 923 INTER-LIGAND FREE ENERGY PREDICTED BY IDOCK:   -7.75 KCAL/MOL
REMARK 924 INTRA-LIGAND FREE ENERGY PREDICTED BY IDOCK:   -1.93 KCAL/MOL
REMARK 927      BINDING AFFINITY PREDICTED BY RF-SCORE:    0.00 PKD
ROOT
HETATM    1  C   UNL     1     -10.464   9.912  67.246  1.00  0.00    -0.319 C  
HETATM    2  C   UNL     1      -9.930  10.805  66.138  1.00  0.00    -0.283 C  
ENDROOT
BRANCH   2   3
HETATM    3  C   UNL     1     -10.004  10.152  64.786  1.00  0.00    -0.334 C  
HETATM    4  C   UNL     1     -10.321  10.775  63.638  1.00  0.00    -0.265 C  
BRANCH   4   5
HETATM    5  C   UNL     1     -10.748  12.210  63.513  1.00  0.00    -0.509 C  
BRANCH   5   6
HETATM    6  C   UNL     1     -12.108  12.445  64.111  1.00  0.00    -0.539 C  
HETATM    7  C   UNL     1     -12.426  13.387  65.016  1.00  0.00    -0.479 C  
BRANCH   7   8
HETATM    8  C   UNL     1     -11.449  14.357  65.614  1.00  0.00    -0.336 C  
BRANCH   8   9
HETATM    9  C   UNL     1     -11.220  15.555  64.740  1.00  0.00    -0.399 C  
HETATM   10  C   UNL     1     -10.748  16.752  65.129  1.00  0.00    -0.159 C  
BRANCH  10  11
HETATM   11  C   UNL     1     -10.272  17.135  66.504  1.00  0.00    -0.322 C  
BRANCH  11  12
HETATM   12  C   UNL     1     -10.716  18.510  66.923  1.00  0.00    -0.332 C  
HETATM   13  C   UNL     1      -9.937  19.592  67.078  1.00  0.00    -0.510 C  
BRANCH  13  14
HETATM   14  C   UNL     1      -8.451  19.616  66.933  1.00  0.00    -0.343 C  
BRANCH  14  15
HETATM   15  C   UNL     1      -7.731  19.627  68.253  1.00  0.00    -0.356 C  
HETATM   16  C   UNL     1      -7.104  18.552  68.759  1.00  0.00    -0.310 C  
BRANCH  16  17
HETATM   17  C   UNL     1      -7.096  17.200  68.110  1.00  0.00    -0.180 C  
BRANCH  17  18
HETATM   18  C   UNL     1      -7.011  16.068  69.097  1.00  0.00    -0.189 C  
HETATM   19  C   UNL     1      -8.099  15.464  69.607  1.00  0.00    -0.134 C  
BRANCH  19  20
HETATM   20  C   UNL     1      -9.492  15.875  69.208  1.00  0.00    -0.260 C  
BRANCH  20  21
HETATM   21  C   UNL     1     -10.584  15.493  70.199  1.00  0.00    -0.336 C  
HETATM   22  C   UNL     1     -11.428  14.389  69.599  1.00  0.00    -0.283 C  
HETATM   23  O   UNL     1     -12.686  14.353  70.102  1.00  0.00    -0.334 OA 
HETATM   24  O   UNL     1     -11.043  13.583  68.772  1.00  0.00    -0.246 OA 
ENDBRANCH  20  21
ENDBRANCH  19  20
ENDBRANCH  17  18
ENDBRANCH  16  17
ENDBRANCH  14  15
ENDBRANCH  13  14
ENDBRANCH  11  12
ENDBRANCH  10  11
ENDBRANCH   8   9
ENDBRANCH   7   8
ENDBRANCH   5   6
ENDBRANCH   4   5
ENDBRANCH   2   3
TORSDOF 13
ENDMDL
MODEL      229
REMARK 921   NORMALIZED FREE ENERGY PREDICTED BY IDOCK:   -3.90 KCAL/MOL
REMARK 922        TOTAL FREE ENERGY PREDICTED BY IDOCK:   -9.65 KCAL/MOL
REMARK 923 INTER-LIGAND FREE ENERGY PREDICTED BY IDOCK:   -6.97 KCAL/MOL
REMARK 924 INTRA-LIGAND FREE ENERGY PREDICTED BY IDOCK:   -2.68 KCAL/MOL
REMARK 927      BINDING AFFINITY PREDICTED BY RF-SCORE:    0.00 PKD
ROOT
HETATM    1  C   UNL     1      -8.539  16.641  66.261  1.00  0.00    -0.359 C  
HETATM    2  C   UNL     1      -9.899  16.002  66.041  1.00  0.00    -0.365 C  
ENDROOT
BRANCH   2   3
HETATM    3  C   UNL     1      -9.812  14.515  65.845  1.00  0.00    -0.347 C  
HETATM    4  C   UNL     1     -10.782  13.632  66.141  1.00  0.00    -0.286 C  
BRANCH   4   5
HETATM    5  C   UNL     1     -12.088  13.963  66.806  1.00  0.00    -0.476 C  
BRANCH   5   6
HETATM    6  C   UNL     1     -11.915  14.251  68.272  1.00  0.00    -0.346 C  
HETATM    7  C   UNL     1     -11.796  13.339  69.253  1.00  0.00    -0.383 C  
BRANCH   7   8
HETATM    8  C   UNL     1     -11.852  11.854  69.045  1.00  0.00    -0.368 C  
BRANCH   8   9
HETATM    9  C   UNL     1     -10.490  11.223  69.033  1.00  0.00    -0.221 C  
HETATM   10  C   UNL     1     -10.021  10.347  68.129  1.00  0.00    -0.170 C  
BRANCH  10  11
HETATM   11  C   UNL     1     -10.723   9.860  66.890  1.00  0.00    -0.195 C  
BRANCH  11  12
HETATM   12  C   UNL     1      -9.976  10.175  65.623  1.00  0.00    -0.348 C  
HETATM   13  C   UNL     1      -8.884   9.548  65.158  1.00  0.00    -0.223 C  
BRANCH  13  14
HETATM   14  C   UNL     1      -8.151   8.452  65.859  1.00  0.00    -0.110 C  
BRANCH  14  15
HETATM   15  C   UNL     1      -8.603   7.080  65.444  1.00  0.00    -0.048 C  
HETATM   16  C   UNL     1      -9.228   6.227  66.274  1.00  0.00    -0.165 C  
BRANCH  16  17
HETATM   17  C   UNL     1      -9.494   6.508  67.723  1.00  0.00    -0.119 C  
BRANCH  17  18
HETATM   18  C   UNL     1     -10.821   5.981  68.195  1.00  0.00    -0.365 C  
HETATM   19  C   UNL     1     -11.361   6.325  69.378  1.00  0.00    -0.448 C  
BRANCH  19  20
HETATM   20  C   UNL     1     -10.673   7.283  70.313  1.00  0.00    -0.252 C  
BRANCH  20  21
HETATM   21  C   UNL     1     -11.551   8.411  70.840  1.00  0.00    -0.288 C  
HETATM   22  C   UNL     1     -11.834   8.169  72.307  1.00  0.00    -0.382 C  
HETATM   23  O   UNL     1     -12.984   8.750  72.727  1.00  0.00    -0.345 OA 
HETATM   24  O   UNL     1     -11.113   7.548  73.067  1.00  0.00    -0.360 OA 
ENDBRANCH  20  21
ENDBRANCH  19  20
ENDBRANCH  17  18
ENDBRANCH  16  17
ENDBRANCH  14  15
ENDBRANCH  13  14
ENDBRANCH  11  12
ENDBRANCH  10  11
ENDBRANCH   8   9
ENDBRANCH   7   8
ENDBRANCH   5   6
ENDBRANCH   4   5
ENDBRANCH   2   3
TORSDOF 13
ENDMDL
MODEL      230
REMARK 921   NORMALIZED FREE ENERGY PREDICTED BY IDOCK:   -3.89 KCAL/MOL
REMARK 922        TOTAL FREE ENERGY PREDICTED BY IDOCK:   -9.62 KCAL/MOL
REMARK 923 INTER-LIGAND FREE ENERGY PREDICTED BY IDOCK:   -6.16 KCAL/MOL
REMARK 924 INTRA-LIGAND FREE ENERGY PREDICTED BY IDOCK:   -3.46 KCAL/MOL
REMARK 927      BINDING AFFINITY PREDICTED BY RF-SCORE:    0.00 PKD
ROOT
HETATM    1  C   UNL     1     -12.320  14.763  64.130  1.00  0.00    -0.259 C  
HETATM    2  C   UNL     1     -12.158  13.315  63.698  1.00  0.00    -0.551 C  
ENDROOT
BRANCH   2   3
HETATM    3  C   UNL     1     -12.316  12.352  64.841  1.00  0.00    -0.475 C  
HETATM    4  C   UNL     1     -11.310  11.741  65.489  1.00  0.00    -0.283 C  
BRANCH   4   5
HETATM    5  C   UNL     1      -9.854  11.838  65.128  1.00  0.00    -0.263 C  
BRANCH   5   6
HETATM    6  C   UNL     1      -9.061  10.682  65.674  1.00  0.00    -0.206 C  
HETATM    7  C   UNL     1      -8.061  10.757  66.569  1.00  0.00    -0.146 C  
BRANCH   7   8
HETATM    8  C   UNL     1      -7.539  12.035  67.157  1.00  0.00    -0.146 C  
BRANCH   8   9
HETATM    9  C   UNL     1      -8.246  12.417  68.424  1.00  0.00    -0.144 C  
HETATM   10  C   UNL     1      -8.970  13.530  68.634  1.00  0.00    -0.002 C  
BRANCH  10  11
HETATM   11  C   UNL     1      -9.295  14.602  67.630  1.00  0.00    -0.200 C  
BRANCH  11  12
HETATM   12  C   UNL     1     -10.770  14.755  67.382  1.00  0.00    -0.281 C  
HETATM   13  C   UNL     1     -11.714  15.023  68.297  1.00  0.00    -0.338 C  
BRANCH  13  14
HETATM   14  C   UNL     1     -11.484  15.148  69.767  1.00  0.00    -0.321 C  
BRANCH  14  15
HETATM   15  C   UNL     1     -12.573  14.520  70.591  1.00  0.00    -0.416 C  
HETATM   16  C   UNL     1     -12.633  13.202  70.851  1.00  0.00    -0.377 C  
BRANCH  16  17
HETATM   17  C   UNL     1     -11.666  12.193  70.308  1.00  0.00    -0.240 C  
BRANCH  17  18
HETATM   18  C   UNL     1     -12.149  11.528  69.048  1.00  0.00    -0.303 C  
HETATM   19  C   UNL     1     -11.611  10.390  68.575  1.00  0.00    -0.152 C  
BRANCH  19  20
HETATM   20  C   UNL     1     -10.486   9.689  69.289  1.00  0.00    -0.232 C  
BRANCH  20  21
HETATM   21  C   UNL     1     -10.769   8.243  69.674  1.00  0.00    -0.196 C  
HETATM   22  C   UNL     1     -10.653   7.374  68.441  1.00  0.00    -0.152 C  
HETATM   23  O   UNL     1     -11.384   6.236  68.524  1.00  0.00    -0.324 OA 
HETATM   24  O   UNL     1      -9.964   7.625  67.468  1.00  0.00    -0.153 OA 
ENDBRANCH  20  21
ENDBRANCH  19  20
ENDBRANCH  17  18
ENDBRANCH  16  17
ENDBRANCH  14  15
ENDBRANCH  13  14
ENDBRANCH  11  12
ENDBRANCH  10  11
ENDBRANCH   8   9
ENDBRANCH   7   8
ENDBRANCH   5   6
ENDBRANCH   4   5
ENDBRANCH   2   3
TORSDOF 13
ENDMDL
MODEL      231
REMARK 921   NORMALIZED FREE ENERGY PREDICTED BY IDOCK:   -3.87 KCAL/MOL
REMARK 922        TOTAL FREE ENERGY PREDICTED BY IDOCK:   -9.59 KCAL/MOL
REMARK 923 INTER-LIGAND FREE ENERGY PREDICTED BY IDOCK:   -6.53 KCAL/MOL
REMARK 924 INTRA-LIGAND FREE ENERGY PREDICTED BY IDOCK:   -3.06 KCAL/MOL
REMARK 927      BINDING AFFINITY PREDICTED BY RF-SCORE:    0.00 PKD
ROOT
HETATM    1  C   UNL     1      -6.129  14.085  68.761  1.00  0.00    -0.086 C  
HETATM    2  C   UNL     1      -7.287  13.102  68.809  1.00  0.00    -0.068 C  
ENDROOT
BRANCH   2   3
HETATM    3  C   UNL     1      -7.762  12.704  67.441  1.00  0.00    -0.161 C  
HETATM    4  C   UNL     1      -8.954  13.025  66.907  1.00  0.00    -0.210 C  
BRANCH   4   5
HETATM    5  C   UNL     1     -10.058  13.758  67.616  1.00  0.00    -0.242 C  
BRANCH   5   6
HETATM    6  C   UNL     1     -10.010  15.238  67.351  1.00  0.00    -0.223 C  
HETATM    7  C   UNL     1     -10.250  15.842  66.174  1.00  0.00    -0.332 C  
BRANCH   7   8
HETATM    8  C   UNL     1     -10.578  15.121  64.899  1.00  0.00    -0.392 C  
BRANCH   8   9
HETATM    9  C   UNL     1     -12.041  14.808  64.775  1.00  0.00    -0.387 C  
HETATM   10  C   UNL     1     -12.596  13.587  64.705  1.00  0.00    -0.351 C  
BRANCH  10  11
HETATM   11  C   UNL     1     -11.888  12.263  64.810  1.00  0.00    -0.428 C  
BRANCH  11  12
HETATM   12  C   UNL     1     -10.998  11.971  63.633  1.00  0.00    -0.517 C  
HETATM   13  C   UNL     1      -9.932  11.156  63.616  1.00  0.00    -0.411 C  
BRANCH  13  14
HETATM   14  C   UNL     1      -9.376  10.433  64.798  1.00  0.00    -0.301 C  
BRANCH  14  15
HETATM   15  C   UNL     1      -8.430   9.328  64.422  1.00  0.00    -0.201 C  
HETATM   16  C   UNL     1      -8.270   8.213  65.155  1.00  0.00    -0.156 C  
BRANCH  16  17
HETATM   17  C   UNL     1      -8.962   7.959  66.461  1.00  0.00    -0.192 C  
BRANCH  17  18
HETATM   18  C   UNL     1      -8.144   8.368  67.655  1.00  0.00    -0.118 C  
HETATM   19  C   UNL     1      -8.583   9.252  68.569  1.00  0.00    -0.128 C  
BRANCH  19  20
HETATM   20  C   UNL     1      -9.942   9.890  68.464  1.00  0.00    -0.175 C  
BRANCH  20  21
HETATM   21  C   UNL     1     -10.580  10.270  69.795  1.00  0.00    -0.312 C  
HETATM   22  C   UNL     1     -11.831  11.078  69.528  1.00  0.00    -0.333 C  
HETATM   23  O   UNL     1     -12.157  11.902  70.553  1.00  0.00    -0.366 OA 
HETATM   24  O   UNL     1     -12.513  11.003  68.521  1.00  0.00    -0.440 OA 
ENDBRANCH  20  21
ENDBRANCH  19  20
ENDBRANCH  17  18
ENDBRANCH  16  17
ENDBRANCH  14  15
ENDBRANCH  13  14
ENDBRANCH  11  12
ENDBRANCH  10  11
ENDBRANCH   8   9
ENDBRANCH   7   8
ENDBRANCH   5   6
ENDBRANCH   4   5
ENDBRANCH   2   3
TORSDOF 13
ENDMDL
MODEL      232
REMARK 921   NORMALIZED FREE ENERGY PREDICTED BY IDOCK:   -3.87 KCAL/MOL
REMARK 922        TOTAL FREE ENERGY PREDICTED BY IDOCK:   -9.59 KCAL/MOL
REMARK 923 INTER-LIGAND FREE ENERGY PREDICTED BY IDOCK:   -7.08 KCAL/MOL
REMARK 924 INTRA-LIGAND FREE ENERGY PREDICTED BY IDOCK:   -2.51 KCAL/MOL
REMARK 927      BINDING AFFINITY PREDICTED BY RF-SCORE:    0.00 PKD
ROOT
HETATM    1  C   UNL     1      -7.404   8.677  70.922  1.00  0.00    -0.077 C  
HETATM    2  C   UNL     1      -8.890   8.941  71.093  1.00  0.00    -0.297 C  
ENDROOT
BRANCH   2   3
HETATM    3  C   UNL     1      -9.701   7.676  71.118  1.00  0.00    -0.172 C  
HETATM    4  C   UNL     1     -10.881   7.521  71.742  1.00  0.00    -0.261 C  
BRANCH   4   5
HETATM    5  C   UNL     1     -11.555   8.552  72.603  1.00  0.00    -0.284 C  
BRANCH   5   6
HETATM    6  C   UNL     1     -12.979   8.792  72.181  1.00  0.00    -0.457 C  
HETATM    7  C   UNL     1     -13.514   9.974  71.829  1.00  0.00    -0.422 C  
BRANCH   7   8
HETATM    8  C   UNL     1     -12.772  11.278  71.829  1.00  0.00    -0.379 C  
BRANCH   8   9
HETATM    9  C   UNL     1     -13.656  12.443  72.167  1.00  0.00    -0.405 C  
HETATM   10  C   UNL     1     -13.370  13.744  71.989  1.00  0.00    -0.536 C  
BRANCH  10  11
HETATM   11  C   UNL     1     -12.139  14.321  71.346  1.00  0.00    -0.354 C  
BRANCH  11  12
HETATM   12  C   UNL     1     -12.444  15.387  70.330  1.00  0.00    -0.447 C  
HETATM   13  C   UNL     1     -11.597  15.897  69.422  1.00  0.00    -0.352 C  
BRANCH  13  14
HETATM   14  C   UNL     1     -10.151  15.549  69.298  1.00  0.00    -0.256 C  
BRANCH  14  15
HETATM   15  C   UNL     1      -9.776  15.069  67.923  1.00  0.00    -0.212 C  
HETATM   16  C   UNL     1      -9.681  13.769  67.597  1.00  0.00    -0.227 C  
BRANCH  16  17
HETATM   17  C   UNL     1      -9.874  12.642  68.568  1.00  0.00    -0.152 C  
BRANCH  17  18
HETATM   18  C   UNL     1     -11.303  12.186  68.671  1.00  0.00    -0.330 C  
HETATM   19  C   UNL     1     -11.766  11.096  68.033  1.00  0.00    -0.288 C  
BRANCH  19  20
HETATM   20  C   UNL     1     -10.872  10.243  67.174  1.00  0.00    -0.278 C  
BRANCH  20  21
HETATM   21  C   UNL     1     -10.522   8.882  67.763  1.00  0.00    -0.300 C  
HETATM   22  C   UNL     1      -9.885   8.029  66.686  1.00  0.00    -0.252 C  
HETATM   23  O   UNL     1     -10.034   6.701  66.906  1.00  0.00    -0.160 OA 
HETATM   24  O   UNL     1      -9.272   8.457  65.724  1.00  0.00    -0.182 OA 
ENDBRANCH  20  21
ENDBRANCH  19  20
ENDBRANCH  17  18
ENDBRANCH  16  17
ENDBRANCH  14  15
ENDBRANCH  13  14
ENDBRANCH  11  12
ENDBRANCH  10  11
ENDBRANCH   8   9
ENDBRANCH   7   8
ENDBRANCH   5   6
ENDBRANCH   4   5
ENDBRANCH   2   3
TORSDOF 13
ENDMDL
MODEL      233
REMARK 921   NORMALIZED FREE ENERGY PREDICTED BY IDOCK:   -3.87 KCAL/MOL
REMARK 922        TOTAL FREE ENERGY PREDICTED BY IDOCK:   -9.59 KCAL/MOL
REMARK 923 INTER-LIGAND FREE ENERGY PREDICTED BY IDOCK:   -6.77 KCAL/MOL
REMARK 924 INTRA-LIGAND FREE ENERGY PREDICTED BY IDOCK:   -2.81 KCAL/MOL
REMARK 927      BINDING AFFINITY PREDICTED BY RF-SCORE:    0.00 PKD
ROOT
HETATM    1  C   UNL     1      -7.787   7.776  67.522  1.00  0.00    -0.122 C  
HETATM    2  C   UNL     1      -7.155   9.149  67.359  1.00  0.00    -0.079 C  
ENDROOT
BRANCH   2   3
HETATM    3  C   UNL     1      -7.418   9.747  66.005  1.00  0.00    -0.102 C  
HETATM    4  C   UNL     1      -8.331  10.696  65.738  1.00  0.00    -0.162 C  
BRANCH   4   5
HETATM    5  C   UNL     1      -9.315  11.261  66.723  1.00  0.00    -0.191 C  
BRANCH   5   6
HETATM    6  C   UNL     1     -10.456  10.316  66.983  1.00  0.00    -0.304 C  
HETATM    7  C   UNL     1     -10.817   9.816  68.177  1.00  0.00    -0.264 C  
BRANCH   7   8
HETATM    8  C   UNL     1     -10.107  10.099  69.468  1.00  0.00    -0.258 C  
BRANCH   8   9
HETATM    9  C   UNL     1     -10.929   9.733  70.669  1.00  0.00    -0.398 C  
HETATM   10  C   UNL     1     -12.048  10.346  71.091  1.00  0.00    -0.487 C  
BRANCH  10  11
HETATM   11  C   UNL     1     -12.768  11.483  70.417  1.00  0.00    -0.138 C  
BRANCH  11  12
HETATM   12  C   UNL     1     -12.304  12.837  70.880  1.00  0.00    -0.356 C  
HETATM   13  C   UNL     1     -11.606  13.733  70.166  1.00  0.00    -0.230 C  
BRANCH  13  14
HETATM   14  C   UNL     1     -11.087  13.522  68.782  1.00  0.00    -0.298 C  
BRANCH  14  15
HETATM   15  C   UNL     1     -12.156  13.625  67.730  1.00  0.00    -0.325 C  
HETATM   16  C   UNL     1     -11.923  14.076  66.485  1.00  0.00    -0.470 C  
BRANCH  16  17
HETATM   17  C   UNL     1     -10.596  14.589  66.011  1.00  0.00    -0.311 C  
BRANCH  17  18
HETATM   18  C   UNL     1     -10.679  15.948  65.374  1.00  0.00    -0.415 C  
HETATM   19  C   UNL     1     -10.254  17.067  65.989  1.00  0.00    -0.337 C  
BRANCH  19  20
HETATM   20  C   UNL     1      -9.648  17.031  67.367  1.00  0.00    -0.246 C  
BRANCH  20  21
HETATM   21  C   UNL     1      -8.516  18.024  67.598  1.00  0.00    -0.239 C  
HETATM   22  C   UNL     1      -9.110  19.375  67.935  1.00  0.00    -0.321 C  
HETATM   23  O   UNL     1      -8.285  20.406  67.628  1.00  0.00    -0.304 OA 
HETATM   24  O   UNL     1     -10.197  19.554  68.452  1.00  0.00    -0.415 OA 
ENDBRANCH  20  21
ENDBRANCH  19  20
ENDBRANCH  17  18
ENDBRANCH  16  17
ENDBRANCH  14  15
ENDBRANCH  13  14
ENDBRANCH  11  12
ENDBRANCH  10  11
ENDBRANCH   8   9
ENDBRANCH   7   8
ENDBRANCH   5   6
ENDBRANCH   4   5
ENDBRANCH   2   3
TORSDOF 13
ENDMDL
MODEL      234
REMARK 921   NORMALIZED FREE ENERGY PREDICTED BY IDOCK:   -3.86 KCAL/MOL
REMARK 922        TOTAL FREE ENERGY PREDICTED BY IDOCK:   -9.56 KCAL/MOL
REMARK 923 INTER-LIGAND FREE ENERGY PREDICTED BY IDOCK:   -6.78 KCAL/MOL
REMARK 924 INTRA-LIGAND FREE ENERGY PREDICTED BY IDOCK:   -2.78 KCAL/MOL
REMARK 927      BINDING AFFINITY PREDICTED BY RF-SCORE:    0.00 PKD
ROOT
HETATM    1  C   UNL     1      -9.385  10.159  63.479  1.00  0.00    -0.333 C  
HETATM    2  C   UNL     1      -9.974  11.556  63.578  1.00  0.00    -0.429 C  
ENDROOT
BRANCH   2   3
HETATM    3  C   UNL     1     -11.466  11.567  63.393  1.00  0.00    -0.274 C  
HETATM    4  C   UNL     1     -12.280  12.592  63.699  1.00  0.00    -0.642 C  
BRANCH   4   5
HETATM    5  C   UNL     1     -11.859  13.871  64.366  1.00  0.00    -0.456 C  
BRANCH   5   6
HETATM    6  C   UNL     1     -12.606  14.107  65.650  1.00  0.00    -0.495 C  
HETATM    7  C   UNL     1     -12.271  13.632  66.862  1.00  0.00    -0.398 C  
BRANCH   7   8
HETATM    8  C   UNL     1     -11.092  12.743  67.132  1.00  0.00    -0.315 C  
BRANCH   8   9
HETATM    9  C   UNL     1     -11.494  11.327  67.421  1.00  0.00    -0.300 C  
HETATM   10  C   UNL     1     -10.693  10.248  67.409  1.00  0.00    -0.339 C  
BRANCH  10  11
HETATM   11  C   UNL     1      -9.206  10.226  67.178  1.00  0.00    -0.163 C  
BRANCH  11  12
HETATM   12  C   UNL     1      -8.407  10.315  68.450  1.00  0.00    -0.119 C  
HETATM   13  C   UNL     1      -7.780  11.400  68.929  1.00  0.00    -0.108 C  
BRANCH  13  14
HETATM   14  C   UNL     1      -7.695  12.723  68.243  1.00  0.00    -0.136 C  
BRANCH  14  15
HETATM   15  C   UNL     1      -6.283  13.140  67.939  1.00  0.00    -0.140 C  
HETATM   16  C   UNL     1      -5.804  14.369  68.199  1.00  0.00    -0.135 C  
BRANCH  16  17
HETATM   17  C   UNL     1      -6.627  15.489  68.763  1.00  0.00    -0.108 C  
BRANCH  17  18
HETATM   18  C   UNL     1      -5.982  16.837  68.603  1.00  0.00    -0.136 C  
HETATM   19  C   UNL     1      -6.208  17.630  67.539  1.00  0.00    -0.172 C  
BRANCH  19  20
HETATM   20  C   UNL     1      -7.143  17.221  66.433  1.00  0.00    -0.312 C  
BRANCH  20  21
HETATM   21  C   UNL     1      -8.593  17.644  66.626  1.00  0.00    -0.282 C  
HETATM   22  C   UNL     1      -9.493  16.649  65.925  1.00  0.00    -0.183 C  
HETATM   23  O   UNL     1     -10.687  17.179  65.564  1.00  0.00    -0.493 OA 
HETATM   24  O   UNL     1      -9.218  15.481  65.715  1.00  0.00    -0.317 OA 
ENDBRANCH  20  21
ENDBRANCH  19  20
ENDBRANCH  17  18
ENDBRANCH  16  17
ENDBRANCH  14  15
ENDBRANCH  13  14
ENDBRANCH  11  12
ENDBRANCH  10  11
ENDBRANCH   8   9
ENDBRANCH   7   8
ENDBRANCH   5   6
ENDBRANCH   4   5
ENDBRANCH   2   3
TORSDOF 13
ENDMDL
MODEL      235
REMARK 921   NORMALIZED FREE ENERGY PREDICTED BY IDOCK:   -3.83 KCAL/MOL
REMARK 922        TOTAL FREE ENERGY PREDICTED BY IDOCK:   -9.52 KCAL/MOL
REMARK 923 INTER-LIGAND FREE ENERGY PREDICTED BY IDOCK:   -7.58 KCAL/MOL
REMARK 924 INTRA-LIGAND FREE ENERGY PREDICTED BY IDOCK:   -1.94 KCAL/MOL
REMARK 927      BINDING AFFINITY PREDICTED BY RF-SCORE:    0.00 PKD
ROOT
HETATM    1  C   UNL     1      -7.519   6.376  68.228  1.00  0.00    -0.091 C  
HETATM    2  C   UNL     1      -8.120   6.799  66.898  1.00  0.00    -0.109 C  
ENDROOT
BRANCH   2   3
HETATM    3  C   UNL     1      -9.183   5.851  66.418  1.00  0.00    -0.160 C  
HETATM    4  C   UNL     1     -10.479   5.892  66.771  1.00  0.00    -0.344 C  
BRANCH   4   5
HETATM    5  C   UNL     1     -11.080   6.832  67.778  1.00  0.00    -0.285 C  
BRANCH   5   6
HETATM    6  C   UNL     1     -11.223   6.189  69.131  1.00  0.00    -0.409 C  
HETATM    7  C   UNL     1     -11.171   6.817  70.318  1.00  0.00    -0.385 C  
BRANCH   7   8
HETATM    8  C   UNL     1     -10.926   8.287  70.494  1.00  0.00    -0.253 C  
BRANCH   8   9
HETATM    9  C   UNL     1     -11.739   8.876  71.609  1.00  0.00    -0.411 C  
HETATM   10  C   UNL     1     -12.483   9.994  71.554  1.00  0.00    -0.516 C  
BRANCH  10  11
HETATM   11  C   UNL     1     -12.729  10.861  70.349  1.00  0.00    -0.326 C  
BRANCH  11  12
HETATM   12  C   UNL     1     -11.943  12.143  70.369  1.00  0.00    -0.360 C  
HETATM   13  C   UNL     1     -11.638  12.914  69.314  1.00  0.00    -0.368 C  
BRANCH  13  14
HETATM   14  C   UNL     1     -11.964  12.601  67.891  1.00  0.00    -0.307 C  
BRANCH  14  15
HETATM   15  C   UNL     1     -12.046  13.825  67.022  1.00  0.00    -0.436 C  
HETATM   16  C   UNL     1     -12.274  13.775  65.698  1.00  0.00    -0.484 C  
BRANCH  16  17
HETATM   17  C   UNL     1     -12.411  12.502  64.917  1.00  0.00    -0.539 C  
BRANCH  17  18
HETATM   18  C   UNL     1     -11.436  12.398  63.776  1.00  0.00    -0.544 C  
HETATM   19  C   UNL     1     -10.261  11.752  63.881  1.00  0.00    -0.411 C  
BRANCH  19  20
HETATM   20  C   UNL     1      -9.844  11.070  65.157  1.00  0.00    -0.319 C  
BRANCH  20  21
HETATM   21  C   UNL     1      -9.085  11.952  66.140  1.00  0.00    -0.162 C  
HETATM   22  C   UNL     1      -8.147  11.086  66.954  1.00  0.00    -0.142 C  
HETATM   23  O   UNL     1      -7.850  11.620  68.163  1.00  0.00    -0.118 OA 
HETATM   24  O   UNL     1      -7.668  10.029  66.583  1.00  0.00    -0.102 OA 
ENDBRANCH  20  21
ENDBRANCH  19  20
ENDBRANCH  17  18
ENDBRANCH  16  17
ENDBRANCH  14  15
ENDBRANCH  13  14
ENDBRANCH  11  12
ENDBRANCH  10  11
ENDBRANCH   8   9
ENDBRANCH   7   8
ENDBRANCH   5   6
ENDBRANCH   4   5
ENDBRANCH   2   3
TORSDOF 13
ENDMDL
MODEL      236
REMARK 921   NORMALIZED FREE ENERGY PREDICTED BY IDOCK:   -3.82 KCAL/MOL
REMARK 922        TOTAL FREE ENERGY PREDICTED BY IDOCK:   -9.50 KCAL/MOL
REMARK 923 INTER-LIGAND FREE ENERGY PREDICTED BY IDOCK:   -6.64 KCAL/MOL
REMARK 924 INTRA-LIGAND FREE ENERGY PREDICTED BY IDOCK:   -2.87 KCAL/MOL
REMARK 927      BINDING AFFINITY PREDICTED BY RF-SCORE:    0.00 PKD
ROOT
HETATM    1  C   UNL     1     -12.052  12.648  65.416  1.00  0.00    -0.516 C  
HETATM    2  C   UNL     1     -12.183  12.975  66.895  1.00  0.00    -0.233 C  
ENDROOT
BRANCH   2   3
HETATM    3  C   UNL     1     -10.908  12.735  67.653  1.00  0.00    -0.252 C  
HETATM    4  C   UNL     1     -10.721  11.776  68.576  1.00  0.00    -0.251 C  
BRANCH   4   5
HETATM    5  C   UNL     1     -11.777  10.833  69.081  1.00  0.00    -0.368 C  
BRANCH   5   6
HETATM    6  C   UNL     1     -12.500  11.389  70.277  1.00  0.00    -0.312 C  
HETATM    7  C   UNL     1     -12.634  10.791  71.474  1.00  0.00    -0.500 C  
BRANCH   7   8
HETATM    8  C   UNL     1     -12.100   9.429  71.809  1.00  0.00    -0.454 C  
BRANCH   8   9
HETATM    9  C   UNL     1     -12.958   8.325  71.264  1.00  0.00    -0.167 C  
HETATM   10  C   UNL     1     -12.709   7.007  71.337  1.00  0.00    -0.421 C  
BRANCH  10  11
HETATM   11  C   UNL     1     -11.561   6.339  72.044  1.00  0.00    -0.372 C  
BRANCH  11  12
HETATM   12  C   UNL     1     -10.492   5.848  71.106  1.00  0.00    -0.291 C  
HETATM   13  C   UNL     1      -9.200   6.211  71.100  1.00  0.00    -0.161 C  
BRANCH  13  14
HETATM   14  C   UNL     1      -8.588   7.241  71.990  1.00  0.00    -0.117 C  
BRANCH  14  15
HETATM   15  C   UNL     1      -8.912   8.648  71.572  1.00  0.00    -0.302 C  
HETATM   16  C   UNL     1      -8.689   9.120  70.334  1.00  0.00    -0.245 C  
BRANCH  16  17
HETATM   17  C   UNL     1      -8.036   8.331  69.239  1.00  0.00    -0.114 C  
BRANCH  17  18
HETATM   18  C   UNL     1      -8.402   8.811  67.862  1.00  0.00    -0.118 C  
HETATM   19  C   UNL     1      -9.538   8.444  67.242  1.00  0.00    -0.215 C  
BRANCH  19  20
HETATM   20  C   UNL     1     -10.538   7.529  67.898  1.00  0.00    -0.250 C  
BRANCH  20  21
HETATM   21  C   UNL     1     -11.096   6.434  66.998  1.00  0.00    -0.405 C  
HETATM   22  C   UNL     1     -10.086   5.311  66.906  1.00  0.00    -0.219 C  
HETATM   23  O   UNL     1     -10.205   4.585  65.768  1.00  0.00    -0.243 OA 
HETATM   24  O   UNL     1      -9.258   5.041  67.758  1.00  0.00    -0.111 OA 
ENDBRANCH  20  21
ENDBRANCH  19  20
ENDBRANCH  17  18
ENDBRANCH  16  17
ENDBRANCH  14  15
ENDBRANCH  13  14
ENDBRANCH  11  12
ENDBRANCH  10  11
ENDBRANCH   8   9
ENDBRANCH   7   8
ENDBRANCH   5   6
ENDBRANCH   4   5
ENDBRANCH   2   3
TORSDOF 13
ENDMDL
MODEL      237
REMARK 921   NORMALIZED FREE ENERGY PREDICTED BY IDOCK:   -3.82 KCAL/MOL
REMARK 922        TOTAL FREE ENERGY PREDICTED BY IDOCK:   -9.49 KCAL/MOL
REMARK 923 INTER-LIGAND FREE ENERGY PREDICTED BY IDOCK:   -7.09 KCAL/MOL
REMARK 924 INTRA-LIGAND FREE ENERGY PREDICTED BY IDOCK:   -2.40 KCAL/MOL
REMARK 927      BINDING AFFINITY PREDICTED BY RF-SCORE:    0.00 PKD
ROOT
HETATM    1  C   UNL     1      -7.288   7.194  72.884  1.00  0.00    -0.074 C  
HETATM    2  C   UNL     1      -8.390   7.949  73.609  1.00  0.00    -0.282 C  
ENDROOT
BRANCH   2   3
HETATM    3  C   UNL     1      -9.490   7.044  74.086  1.00  0.00    -0.285 C  
HETATM    4  C   UNL     1     -10.564   6.677  73.365  1.00  0.00    -0.333 C  
BRANCH   4   5
HETATM    5  C   UNL     1     -10.903   7.179  71.989  1.00  0.00    -0.252 C  
BRANCH   5   6
HETATM    6  C   UNL     1     -11.447   8.581  72.021  1.00  0.00    -0.431 C  
HETATM    7  C   UNL     1     -11.008   9.620  71.289  1.00  0.00    -0.399 C  
BRANCH   7   8
HETATM    8  C   UNL     1      -9.860   9.558  70.326  1.00  0.00    -0.313 C  
BRANCH   8   9
HETATM    9  C   UNL     1     -10.128   8.641  69.169  1.00  0.00    -0.203 C  
HETATM   10  C   UNL     1     -10.604   8.991  67.962  1.00  0.00    -0.242 C  
BRANCH  10  11
HETATM   11  C   UNL     1     -10.902  10.383  67.475  1.00  0.00    -0.358 C  
BRANCH  11  12
HETATM   12  C   UNL     1     -10.053  10.796  66.303  1.00  0.00    -0.285 C  
HETATM   13  C   UNL     1      -8.854  11.396  66.353  1.00  0.00    -0.193 C  
BRANCH  13  14
HETATM   14  C   UNL     1      -8.160  11.841  67.597  1.00  0.00    -0.144 C  
BRANCH  14  15
HETATM   15  C   UNL     1      -7.341  13.086  67.403  1.00  0.00    -0.122 C  
HETATM   16  C   UNL     1      -7.792  14.318  67.696  1.00  0.00    -0.191 C  
BRANCH  16  17
HETATM   17  C   UNL     1      -9.177  14.611  68.189  1.00  0.00    -0.192 C  
BRANCH  17  18
HETATM   18  C   UNL     1      -9.826  15.769  67.482  1.00  0.00    -0.229 C  
HETATM   19  C   UNL     1     -10.764  15.608  66.531  1.00  0.00    -0.293 C  
BRANCH  19  20
HETATM   20  C   UNL     1     -11.244  14.243  66.116  1.00  0.00    -0.331 C  
BRANCH  20  21
HETATM   21  C   UNL     1     -11.256  13.994  64.613  1.00  0.00    -0.377 C  
HETATM   22  C   UNL     1     -12.180  12.833  64.315  1.00  0.00    -0.425 C  
HETATM   23  O   UNL     1     -11.866  12.190  63.164  1.00  0.00    -0.373 OA 
HETATM   24  O   UNL     1     -13.130  12.499  64.999  1.00  0.00    -0.765 OA 
ENDBRANCH  20  21
ENDBRANCH  19  20
ENDBRANCH  17  18
ENDBRANCH  16  17
ENDBRANCH  14  15
ENDBRANCH  13  14
ENDBRANCH  11  12
ENDBRANCH  10  11
ENDBRANCH   8   9
ENDBRANCH   7   8
ENDBRANCH   5   6
ENDBRANCH   4   5
ENDBRANCH   2   3
TORSDOF 13
ENDMDL
MODEL      238
REMARK 921   NORMALIZED FREE ENERGY PREDICTED BY IDOCK:   -3.81 KCAL/MOL
REMARK 922        TOTAL FREE ENERGY PREDICTED BY IDOCK:   -9.49 KCAL/MOL
REMARK 923 INTER-LIGAND FREE ENERGY PREDICTED BY IDOCK:   -5.75 KCAL/MOL
REMARK 924 INTRA-LIGAND FREE ENERGY PREDICTED BY IDOCK:   -3.74 KCAL/MOL
REMARK 927      BINDING AFFINITY PREDICTED BY RF-SCORE:    0.00 PKD
ROOT
HETATM    1  C   UNL     1     -12.763   8.047  71.949  1.00  0.00    -0.354 C  
HETATM    2  C   UNL     1     -12.635   9.380  71.229  1.00  0.00    -0.403 C  
ENDROOT
BRANCH   2   3
HETATM    3  C   UNL     1     -11.224   9.673  70.804  1.00  0.00    -0.403 C  
HETATM    4  C   UNL     1     -10.845  10.691  70.013  1.00  0.00    -0.280 C  
BRANCH   4   5
HETATM    5  C   UNL     1     -11.772  11.662  69.337  1.00  0.00    -0.405 C  
BRANCH   5   6
HETATM    6  C   UNL     1     -11.518  11.743  67.857  1.00  0.00    -0.387 C  
HETATM    7  C   UNL     1     -10.372  12.126  67.267  1.00  0.00    -0.230 C  
BRANCH   7   8
HETATM    8  C   UNL     1      -9.145  12.576  68.004  1.00  0.00    -0.200 C  
BRANCH   8   9
HETATM    9  C   UNL     1      -7.877  12.144  67.327  1.00  0.00    -0.176 C  
HETATM   10  C   UNL     1      -7.183  11.018  67.568  1.00  0.00    -0.096 C  
BRANCH  10  11
HETATM   11  C   UNL     1      -7.558   9.907  68.512  1.00  0.00    -0.080 C  
BRANCH  11  12
HETATM   12  C   UNL     1      -7.085  10.140  69.920  1.00  0.00    -0.144 C  
HETATM   13  C   UNL     1      -7.070   9.244  70.920  1.00  0.00    -0.110 C  
BRANCH  13  14
HETATM   14  C   UNL     1      -7.596   7.849  70.840  1.00  0.00    -0.078 C  
BRANCH  14  15
HETATM   15  C   UNL     1      -8.652   7.557  71.869  1.00  0.00    -0.122 C  
HETATM   16  C   UNL     1      -9.482   6.503  71.794  1.00  0.00    -0.155 C  
BRANCH  16  17
HETATM   17  C   UNL     1      -9.503   5.528  70.655  1.00  0.00    -0.209 C  
BRANCH  17  18
HETATM   18  C   UNL     1     -10.821   5.488  69.932  1.00  0.00    -0.298 C  
HETATM   19  C   UNL     1     -11.076   6.236  68.843  1.00  0.00    -0.434 C  
BRANCH  19  20
HETATM   20  C   UNL     1     -10.043   7.163  68.260  1.00  0.00    -0.187 C  
BRANCH  20  21
HETATM   21  C   UNL     1     -10.535   8.035  67.112  1.00  0.00    -0.408 C  
HETATM   22  C   UNL     1      -9.406   8.229  66.123  1.00  0.00    -0.188 C  
HETATM   23  O   UNL     1      -9.528   9.366  65.397  1.00  0.00    -0.261 OA 
HETATM   24  O   UNL     1      -8.483   7.452  65.952  1.00  0.00    -0.139 OA 
ENDBRANCH  20  21
ENDBRANCH  19  20
ENDBRANCH  17  18
ENDBRANCH  16  17
ENDBRANCH  14  15
ENDBRANCH  13  14
ENDBRANCH  11  12
ENDBRANCH  10  11
ENDBRANCH   8   9
ENDBRANCH   7   8
ENDBRANCH   5   6
ENDBRANCH   4   5
ENDBRANCH   2   3
TORSDOF 13
ENDMDL
MODEL      239
REMARK 921   NORMALIZED FREE ENERGY PREDICTED BY IDOCK:   -3.81 KCAL/MOL
REMARK 922        TOTAL FREE ENERGY PREDICTED BY IDOCK:   -9.49 KCAL/MOL
REMARK 923 INTER-LIGAND FREE ENERGY PREDICTED BY IDOCK:   -7.53 KCAL/MOL
REMARK 924 INTRA-LIGAND FREE ENERGY PREDICTED BY IDOCK:   -1.95 KCAL/MOL
REMARK 927      BINDING AFFINITY PREDICTED BY RF-SCORE:    0.00 PKD
ROOT
HETATM    1  C   UNL     1      -8.115  19.876  67.553  1.00  0.00    -0.341 C  
HETATM    2  C   UNL     1      -9.568  19.482  67.763  1.00  0.00    -0.443 C  
ENDROOT
BRANCH   2   3
HETATM    3  C   UNL     1     -10.284  19.210  66.470  1.00  0.00    -0.506 C  
HETATM    4  C   UNL     1     -10.555  17.991  65.972  1.00  0.00    -0.258 C  
BRANCH   4   5
HETATM    5  C   UNL     1     -10.110  16.686  66.570  1.00  0.00    -0.313 C  
BRANCH   5   6
HETATM    6  C   UNL     1     -10.075  15.583  65.547  1.00  0.00    -0.406 C  
HETATM    7  C   UNL     1     -10.575  14.344  65.698  1.00  0.00    -0.339 C  
BRANCH   7   8
HETATM    8  C   UNL     1     -11.233  13.838  66.948  1.00  0.00    -0.326 C  
BRANCH   8   9
HETATM    9  C   UNL     1     -10.242  13.353  67.964  1.00  0.00    -0.243 C  
HETATM   10  C   UNL     1      -9.575  12.186  67.940  1.00  0.00    -0.198 C  
BRANCH  10  11
HETATM   11  C   UNL     1      -9.614  11.142  66.857  1.00  0.00    -0.208 C  
BRANCH  11  12
HETATM   12  C   UNL     1     -10.724  10.143  67.035  1.00  0.00    -0.264 C  
HETATM   13  C   UNL     1     -10.593   8.849  67.367  1.00  0.00    -0.305 C  
BRANCH  13  14
HETATM   14  C   UNL     1      -9.298   8.130  67.551  1.00  0.00    -0.165 C  
BRANCH  14  15
HETATM   15  C   UNL     1      -9.427   6.639  67.417  1.00  0.00    -0.143 C  
HETATM   16  C   UNL     1      -9.815   5.839  68.426  1.00  0.00    -0.174 C  
BRANCH  16  17
HETATM   17  C   UNL     1     -10.105   6.320  69.816  1.00  0.00    -0.217 C  
BRANCH  17  18
HETATM   18  C   UNL     1     -11.575   6.384  70.127  1.00  0.00    -0.449 C  
HETATM   19  C   UNL     1     -12.097   7.271  70.994  1.00  0.00    -0.361 C  
BRANCH  19  20
HETATM   20  C   UNL     1     -11.238   8.279  71.708  1.00  0.00    -0.346 C  
BRANCH  20  21
HETATM   21  C   UNL     1     -10.997   9.575  70.945  1.00  0.00    -0.407 C  
HETATM   22  C   UNL     1     -12.181  10.495  71.152  1.00  0.00    -0.391 C  
HETATM   23  O   UNL     1     -12.342  11.386  70.144  1.00  0.00    -0.297 OA 
HETATM   24  O   UNL     1     -12.915  10.484  72.124  1.00  0.00    -0.435 OA 
ENDBRANCH  20  21
ENDBRANCH  19  20
ENDBRANCH  17  18
ENDBRANCH  16  17
ENDBRANCH  14  15
ENDBRANCH  13  14
ENDBRANCH  11  12
ENDBRANCH  10  11
ENDBRANCH   8   9
ENDBRANCH   7   8
ENDBRANCH   5   6
ENDBRANCH   4   5
ENDBRANCH   2   3
TORSDOF 13
ENDMDL
MODEL      240
REMARK 921   NORMALIZED FREE ENERGY PREDICTED BY IDOCK:   -3.81 KCAL/MOL
REMARK 922        TOTAL FREE ENERGY PREDICTED BY IDOCK:   -9.48 KCAL/MOL
REMARK 923 INTER-LIGAND FREE ENERGY PREDICTED BY IDOCK:   -6.73 KCAL/MOL
REMARK 924 INTRA-LIGAND FREE ENERGY PREDICTED BY IDOCK:   -2.76 KCAL/MOL
REMARK 927      BINDING AFFINITY PREDICTED BY RF-SCORE:    0.00 PKD
ROOT
HETATM    1  C   UNL     1      -8.724  10.262  69.281  1.00  0.00    -0.182 C  
HETATM    2  C   UNL     1      -7.636  10.840  68.392  1.00  0.00    -0.102 C  
ENDROOT
BRANCH   2   3
HETATM    3  C   UNL     1      -6.622  11.635  69.164  1.00  0.00    -0.101 C  
HETATM    4  C   UNL     1      -6.606  12.974  69.280  1.00  0.00    -0.089 C  
BRANCH   4   5
HETATM    5  C   UNL     1      -7.543  13.920  68.585  1.00  0.00    -0.130 C  
BRANCH   5   6
HETATM    6  C   UNL     1      -7.754  15.184  69.374  1.00  0.00    -0.213 C  
HETATM    7  C   UNL     1      -7.437  16.429  68.979  1.00  0.00    -0.227 C  
BRANCH   7   8
HETATM    8  C   UNL     1      -6.778  16.767  67.674  1.00  0.00    -0.163 C  
BRANCH   8   9
HETATM    9  C   UNL     1      -7.258  18.070  67.107  1.00  0.00    -0.213 C  
HETATM   10  C   UNL     1      -8.415  18.284  66.457  1.00  0.00    -0.287 C  
BRANCH  10  11
HETATM   11  C   UNL     1      -9.517  17.288  66.217  1.00  0.00    -0.256 C  
BRANCH  11  12
HETATM   12  C   UNL     1     -10.458  17.153  67.383  1.00  0.00    -0.334 C  
HETATM   13  C   UNL     1     -11.034  16.022  67.822  1.00  0.00    -0.307 C  
BRANCH  13  14
HETATM   14  C   UNL     1     -10.907  14.681  67.180  1.00  0.00    -0.303 C  
BRANCH  14  15
HETATM   15  C   UNL     1     -12.234  14.053  66.858  1.00  0.00    -0.415 C  
HETATM   16  C   UNL     1     -12.565  13.619  65.629  1.00  0.00    -0.531 C  
BRANCH  16  17
HETATM   17  C   UNL     1     -11.687  13.762  64.422  1.00  0.00    -0.436 C  
BRANCH  17  18
HETATM   18  C   UNL     1     -11.737  12.569  63.508  1.00  0.00    -0.595 C  
HETATM   19  C   UNL     1     -10.906  11.519  63.635  1.00  0.00    -0.488 C  
BRANCH  19  20
HETATM   20  C   UNL     1      -9.866  11.461  64.722  1.00  0.00    -0.302 C  
BRANCH  20  21
HETATM   21  C   UNL     1     -10.296  10.722  65.984  1.00  0.00    -0.300 C  
HETATM   22  C   UNL     1      -9.786   9.299  65.917  1.00  0.00    -0.265 C  
HETATM   23  O   UNL     1     -10.526   8.437  66.656  1.00  0.00    -0.294 OA 
HETATM   24  O   UNL     1      -8.802   8.934  65.299  1.00  0.00    -0.191 OA 
ENDBRANCH  20  21
ENDBRANCH  19  20
ENDBRANCH  17  18
ENDBRANCH  16  17
ENDBRANCH  14  15
ENDBRANCH  13  14
ENDBRANCH  11  12
ENDBRANCH  10  11
ENDBRANCH   8   9
ENDBRANCH   7   8
ENDBRANCH   5   6
ENDBRANCH   4   5
ENDBRANCH   2   3
TORSDOF 13
ENDMDL
MODEL      241
REMARK 921   NORMALIZED FREE ENERGY PREDICTED BY IDOCK:   -3.81 KCAL/MOL
REMARK 922        TOTAL FREE ENERGY PREDICTED BY IDOCK:   -9.48 KCAL/MOL
REMARK 923 INTER-LIGAND FREE ENERGY PREDICTED BY IDOCK:   -7.74 KCAL/MOL
REMARK 924 INTRA-LIGAND FREE ENERGY PREDICTED BY IDOCK:   -1.74 KCAL/MOL
REMARK 927      BINDING AFFINITY PREDICTED BY RF-SCORE:    0.00 PKD
ROOT
HETATM    1  C   UNL     1      -9.629  10.571  62.803  1.00  0.00    -0.323 C  
HETATM    2  C   UNL     1     -10.188  11.804  63.493  1.00  0.00    -0.483 C  
ENDROOT
BRANCH   2   3
HETATM    3  C   UNL     1     -11.687  11.777  63.597  1.00  0.00    -0.517 C  
HETATM    4  C   UNL     1     -12.442  12.712  64.198  1.00  0.00    -0.488 C  
BRANCH   4   5
HETATM    5  C   UNL     1     -11.920  13.902  64.953  1.00  0.00    -0.412 C  
BRANCH   5   6
HETATM    6  C   UNL     1     -12.400  13.917  66.379  1.00  0.00    -0.468 C  
HETATM    7  C   UNL     1     -11.851  13.250  67.409  1.00  0.00    -0.413 C  
BRANCH   7   8
HETATM    8  C   UNL     1     -10.663  12.340  67.297  1.00  0.00    -0.263 C  
BRANCH   8   9
HETATM    9  C   UNL     1     -11.054  10.914  67.037  1.00  0.00    -0.271 C  
HETATM   10  C   UNL     1     -10.226   9.897  66.743  1.00  0.00    -0.301 C  
BRANCH  10  11
HETATM   11  C   UNL     1      -8.723   9.940  66.684  1.00  0.00    -0.138 C  
BRANCH  11  12
HETATM   12  C   UNL     1      -8.076   9.950  68.041  1.00  0.00    -0.108 C  
HETATM   13  C   UNL     1      -7.794   8.882  68.804  1.00  0.00    -0.101 C  
BRANCH  13  14
HETATM   14  C   UNL     1      -8.143   7.469  68.475  1.00  0.00    -0.125 C  
BRANCH  14  15
HETATM   15  C   UNL     1      -9.624   7.212  68.474  1.00  0.00    -0.139 C  
HETATM   16  C   UNL     1     -10.319   6.901  69.582  1.00  0.00    -0.224 C  
BRANCH  16  17
HETATM   17  C   UNL     1      -9.702   6.712  70.936  1.00  0.00    -0.190 C  
BRANCH  17  18
HETATM   18  C   UNL     1      -9.544   7.998  71.700  1.00  0.00    -0.218 C  
HETATM   19  C   UNL     1     -10.590   8.755  72.074  1.00  0.00    -0.414 C  
BRANCH  19  20
HETATM   20  C   UNL     1     -12.008   8.356  71.762  1.00  0.00    -0.380 C  
BRANCH  20  21
HETATM   21  C   UNL     1     -13.068   9.366  72.182  1.00  0.00    -0.526 C  
HETATM   22  C   UNL     1     -12.868  10.644  71.396  1.00  0.00    -0.451 C  
HETATM   23  O   UNL     1     -13.353  11.738  72.032  1.00  0.00    -0.487 OA 
HETATM   24  O   UNL     1     -12.356  10.716  70.293  1.00  0.00    -0.304 OA 
ENDBRANCH  20  21
ENDBRANCH  19  20
ENDBRANCH  17  18
ENDBRANCH  16  17
ENDBRANCH  14  15
ENDBRANCH  13  14
ENDBRANCH  11  12
ENDBRANCH  10  11
ENDBRANCH   8   9
ENDBRANCH   7   8
ENDBRANCH   5   6
ENDBRANCH   4   5
ENDBRANCH   2   3
TORSDOF 13
ENDMDL
MODEL      242
REMARK 921   NORMALIZED FREE ENERGY PREDICTED BY IDOCK:   -3.80 KCAL/MOL
REMARK 922        TOTAL FREE ENERGY PREDICTED BY IDOCK:   -9.46 KCAL/MOL
REMARK 923 INTER-LIGAND FREE ENERGY PREDICTED BY IDOCK:   -8.02 KCAL/MOL
REMARK 924 INTRA-LIGAND FREE ENERGY PREDICTED BY IDOCK:   -1.44 KCAL/MOL
REMARK 927      BINDING AFFINITY PREDICTED BY RF-SCORE:    0.00 PKD
ROOT
HETATM    1  C   UNL     1     -10.605   7.711  70.718  1.00  0.00    -0.224 C  
HETATM    2  C   UNL     1     -11.109   8.231  72.054  1.00  0.00    -0.379 C  
ENDROOT
BRANCH   2   3
HETATM    3  C   UNL     1     -12.428   8.941  71.936  1.00  0.00    -0.445 C  
HETATM    4  C   UNL     1     -12.653  10.050  71.210  1.00  0.00    -0.495 C  
BRANCH   4   5
HETATM    5  C   UNL     1     -11.608  10.831  70.464  1.00  0.00    -0.425 C  
BRANCH   5   6
HETATM    6  C   UNL     1     -12.100  11.284  69.117  1.00  0.00    -0.348 C  
HETATM    7  C   UNL     1     -11.543  10.993  67.928  1.00  0.00    -0.306 C  
BRANCH   7   8
HETATM    8  C   UNL     1     -10.295  10.179  67.750  1.00  0.00    -0.253 C  
BRANCH   8   9
HETATM    9  C   UNL     1     -10.572   8.820  67.176  1.00  0.00    -0.303 C  
HETATM   10  C   UNL     1      -9.678   7.993  66.608  1.00  0.00    -0.313 C  
BRANCH  10  11
HETATM   11  C   UNL     1      -8.193   8.209  66.486  1.00  0.00    -0.107 C  
BRANCH  11  12
HETATM   12  C   UNL     1      -7.605   7.596  65.245  1.00  0.00    -0.089 C  
HETATM   13  C   UNL     1      -7.839   7.970  63.977  1.00  0.00    -0.145 C  
BRANCH  13  14
HETATM   14  C   UNL     1      -8.798   9.030  63.551  1.00  0.00    -0.011 C  
BRANCH  14  15
HETATM   15  C   UNL     1      -8.638  10.314  64.318  1.00  0.00    -0.198 C  
HETATM   16  C   UNL     1      -9.548  11.303  64.298  1.00  0.00    -0.257 C  
BRANCH  16  17
HETATM   17  C   UNL     1     -10.797  11.279  63.469  1.00  0.00    -0.373 C  
BRANCH  17  18
HETATM   18  C   UNL     1     -12.005  11.797  64.200  1.00  0.00    -0.331 C  
HETATM   19  C   UNL     1     -12.103  13.066  64.635  1.00  0.00    -0.463 C  
BRANCH  19  20
HETATM   20  C   UNL     1     -11.004  14.069  64.404  1.00  0.00    -0.280 C  
BRANCH  20  21
HETATM   21  C   UNL     1     -10.735  15.010  65.572  1.00  0.00    -0.372 C  
HETATM   22  C   UNL     1     -10.710  16.434  65.060  1.00  0.00    -0.259 C  
HETATM   23  O   UNL     1      -9.971  17.262  65.837  1.00  0.00    -0.490 OA 
HETATM   24  O   UNL     1     -11.301  16.835  64.073  1.00  0.00    -1.153 OA 
ENDBRANCH  20  21
ENDBRANCH  19  20
ENDBRANCH  17  18
ENDBRANCH  16  17
ENDBRANCH  14  15
ENDBRANCH  13  14
ENDBRANCH  11  12
ENDBRANCH  10  11
ENDBRANCH   8   9
ENDBRANCH   7   8
ENDBRANCH   5   6
ENDBRANCH   4   5
ENDBRANCH   2   3
TORSDOF 13
ENDMDL
MODEL      243
REMARK 921   NORMALIZED FREE ENERGY PREDICTED BY IDOCK:   -3.80 KCAL/MOL
REMARK 922        TOTAL FREE ENERGY PREDICTED BY IDOCK:   -9.46 KCAL/MOL
REMARK 923 INTER-LIGAND FREE ENERGY PREDICTED BY IDOCK:   -6.28 KCAL/MOL
REMARK 924 INTRA-LIGAND FREE ENERGY PREDICTED BY IDOCK:   -3.18 KCAL/MOL
REMARK 927      BINDING AFFINITY PREDICTED BY RF-SCORE:    0.00 PKD
ROOT
HETATM    1  C   UNL     1     -12.749  12.902  64.940  1.00  0.00    -0.474 C  
HETATM    2  C   UNL     1     -11.876  14.055  64.473  1.00  0.00    -0.452 C  
ENDROOT
BRANCH   2   3
HETATM    3  C   UNL     1     -10.460  13.943  64.965  1.00  0.00    -0.428 C  
HETATM    4  C   UNL     1     -10.036  14.272  66.197  1.00  0.00    -0.325 C  
BRANCH   4   5
HETATM    5  C   UNL     1     -10.881  14.898  67.271  1.00  0.00    -0.306 C  
BRANCH   5   6
HETATM    6  C   UNL     1     -10.663  16.383  67.363  1.00  0.00    -0.278 C  
HETATM    7  C   UNL     1      -9.621  16.999  67.948  1.00  0.00    -0.249 C  
BRANCH   7   8
HETATM    8  C   UNL     1      -8.498  16.292  68.647  1.00  0.00    -0.221 C  
BRANCH   8   9
HETATM    9  C   UNL     1      -7.285  16.138  67.777  1.00  0.00    -0.157 C  
HETATM   10  C   UNL     1      -6.606  15.003  67.541  1.00  0.00    -0.153 C  
BRANCH  10  11
HETATM   11  C   UNL     1      -6.951  13.622  68.032  1.00  0.00    -0.135 C  
BRANCH  11  12
HETATM   12  C   UNL     1      -6.029  12.558  67.504  1.00  0.00    -0.152 C  
HETATM   13  C   UNL     1      -6.379  11.472  66.796  1.00  0.00    -0.134 C  
BRANCH  13  14
HETATM   14  C   UNL     1      -7.776  11.074  66.457  1.00  0.00    -0.154 C  
BRANCH  14  15
HETATM   15  C   UNL     1      -8.291   9.947  67.309  1.00  0.00    -0.121 C  
HETATM   16  C   UNL     1      -9.240  10.107  68.248  1.00  0.00    -0.130 C  
BRANCH  16  17
HETATM   17  C   UNL     1      -9.855  11.427  68.605  1.00  0.00    -0.199 C  
BRANCH  17  18
HETATM   18  C   UNL     1     -11.306  11.527  68.225  1.00  0.00    -0.352 C  
HETATM   19  C   UNL     1     -12.261  11.908  69.093  1.00  0.00    -0.141 C  
BRANCH  19  20
HETATM   20  C   UNL     1     -11.935  12.276  70.516  1.00  0.00    -0.296 C  
BRANCH  20  21
HETATM   21  C   UNL     1     -11.791  13.771  70.777  1.00  0.00    -0.215 C  
HETATM   22  C   UNL     1     -13.139  14.331  71.179  1.00  0.00    -0.343 C  
HETATM   23  O   UNL     1     -13.264  15.653  70.907  1.00  0.00    -0.515 OA 
HETATM   24  O   UNL     1     -14.029  13.698  71.717  1.00  0.00    -0.345 OA 
ENDBRANCH  20  21
ENDBRANCH  19  20
ENDBRANCH  17  18
ENDBRANCH  16  17
ENDBRANCH  14  15
ENDBRANCH  13  14
ENDBRANCH  11  12
ENDBRANCH  10  11
ENDBRANCH   8   9
ENDBRANCH   7   8
ENDBRANCH   5   6
ENDBRANCH   4   5
ENDBRANCH   2   3
TORSDOF 13
ENDMDL
MODEL      244
REMARK 921   NORMALIZED FREE ENERGY PREDICTED BY IDOCK:   -3.78 KCAL/MOL
REMARK 922        TOTAL FREE ENERGY PREDICTED BY IDOCK:   -9.43 KCAL/MOL
REMARK 923 INTER-LIGAND FREE ENERGY PREDICTED BY IDOCK:   -6.99 KCAL/MOL
REMARK 924 INTRA-LIGAND FREE ENERGY PREDICTED BY IDOCK:   -2.44 KCAL/MOL
REMARK 927      BINDING AFFINITY PREDICTED BY RF-SCORE:    0.00 PKD
ROOT
HETATM    1  C   UNL     1      -7.477   6.382  68.844  1.00  0.00    -0.088 C  
HETATM    2  C   UNL     1      -8.151   6.817  67.553  1.00  0.00    -0.115 C  
ENDROOT
BRANCH   2   3
HETATM    3  C   UNL     1      -9.102   5.782  67.022  1.00  0.00    -0.114 C  
HETATM    4  C   UNL     1     -10.419   5.727  67.284  1.00  0.00    -0.330 C  
BRANCH   4   5
HETATM    5  C   UNL     1     -11.159   6.633  68.228  1.00  0.00    -0.283 C  
BRANCH   5   6
HETATM    6  C   UNL     1     -11.147   6.107  69.637  1.00  0.00    -0.489 C  
HETATM    7  C   UNL     1     -10.935   6.828  70.752  1.00  0.00    -0.306 C  
BRANCH   7   8
HETATM    8  C   UNL     1     -10.637   8.298  70.771  1.00  0.00    -0.236 C  
BRANCH   8   9
HETATM    9  C   UNL     1     -11.601   9.069  71.626  1.00  0.00    -0.426 C  
HETATM   10  C   UNL     1     -12.272  10.179  71.275  1.00  0.00    -0.496 C  
BRANCH  10  11
HETATM   11  C   UNL     1     -12.267  10.854  69.930  1.00  0.00    -0.408 C  
BRANCH  11  12
HETATM   12  C   UNL     1     -11.099  11.781  69.736  1.00  0.00    -0.066 C  
HETATM   13  C   UNL     1     -10.386  11.949  68.611  1.00  0.00    -0.218 C  
BRANCH  13  14
HETATM   14  C   UNL     1     -10.575  11.181  67.345  1.00  0.00    -0.272 C  
BRANCH  14  15
HETATM   15  C   UNL     1     -11.780  11.621  66.562  1.00  0.00    -0.034 C  
HETATM   16  C   UNL     1     -11.726  12.532  65.575  1.00  0.00    -0.457 C  
BRANCH  16  17
HETATM   17  C   UNL     1     -10.480  13.265  65.176  1.00  0.00    -0.346 C  
BRANCH  17  18
HETATM   18  C   UNL     1     -10.725  14.709  64.834  1.00  0.00    -0.447 C  
HETATM   19  C   UNL     1     -10.723  15.686  65.758  1.00  0.00    -0.350 C  
BRANCH  19  20
HETATM   20  C   UNL     1     -10.458  15.399  67.212  1.00  0.00    -0.282 C  
BRANCH  20  21
HETATM   21  C   UNL     1     -11.705  15.218  68.070  1.00  0.00    -0.268 C  
HETATM   22  C   UNL     1     -11.425  15.744  69.461  1.00  0.00    -0.353 C  
HETATM   23  O   UNL     1     -12.201  15.167  70.410  1.00  0.00    -0.299 OA 
HETATM   24  O   UNL     1     -10.616  16.613  69.732  1.00  0.00    -0.302 OA 
ENDBRANCH  20  21
ENDBRANCH  19  20
ENDBRANCH  17  18
ENDBRANCH  16  17
ENDBRANCH  14  15
ENDBRANCH  13  14
ENDBRANCH  11  12
ENDBRANCH  10  11
ENDBRANCH   8   9
ENDBRANCH   7   8
ENDBRANCH   5   6
ENDBRANCH   4   5
ENDBRANCH   2   3
TORSDOF 13
ENDMDL
MODEL      245
REMARK 921   NORMALIZED FREE ENERGY PREDICTED BY IDOCK:   -3.78 KCAL/MOL
REMARK 922        TOTAL FREE ENERGY PREDICTED BY IDOCK:   -9.43 KCAL/MOL
REMARK 923 INTER-LIGAND FREE ENERGY PREDICTED BY IDOCK:   -6.80 KCAL/MOL
REMARK 924 INTRA-LIGAND FREE ENERGY PREDICTED BY IDOCK:   -2.64 KCAL/MOL
REMARK 927      BINDING AFFINITY PREDICTED BY RF-SCORE:    0.00 PKD
ROOT
HETATM    1  C   UNL     1     -10.437  15.218  67.704  1.00  0.00    -0.263 C  
HETATM    2  C   UNL     1     -11.785  14.568  67.441  1.00  0.00    -0.425 C  
ENDROOT
BRANCH   2   3
HETATM    3  C   UNL     1     -11.852  13.905  66.093  1.00  0.00    -0.422 C  
HETATM    4  C   UNL     1     -11.335  12.702  65.792  1.00  0.00    -0.370 C  
BRANCH   4   5
HETATM    5  C   UNL     1     -10.519  11.845  66.719  1.00  0.00    -0.253 C  
BRANCH   5   6
HETATM    6  C   UNL     1     -11.382  11.099  67.699  1.00  0.00    -0.356 C  
HETATM    7  C   UNL     1     -11.156   9.861  68.175  1.00  0.00    -0.215 C  
BRANCH   7   8
HETATM    8  C   UNL     1     -10.000   8.994  67.774  1.00  0.00    -0.235 C  
BRANCH   8   9
HETATM    9  C   UNL     1     -10.382   7.960  66.755  1.00  0.00    -0.357 C  
HETATM   10  C   UNL     1     -10.691   6.674  66.995  1.00  0.00    -0.437 C  
BRANCH  10  11
HETATM   11  C   UNL     1     -10.795   6.002  68.337  1.00  0.00    -0.361 C  
BRANCH  11  12
HETATM   12  C   UNL     1      -9.910   4.793  68.465  1.00  0.00    -0.198 C  
HETATM   13  C   UNL     1      -8.595   4.785  68.731  1.00  0.00    -0.098 C  
BRANCH  13  14
HETATM   14  C   UNL     1      -7.735   5.997  68.879  1.00  0.00    -0.092 C  
BRANCH  14  15
HETATM   15  C   UNL     1      -7.029   6.061  70.204  1.00  0.00    -0.069 C  
HETATM   16  C   UNL     1      -7.575   6.606  71.305  1.00  0.00    -0.093 C  
BRANCH  16  17
HETATM   17  C   UNL     1      -8.920   7.269  71.335  1.00  0.00    -0.139 C  
BRANCH  17  18
HETATM   18  C   UNL     1      -9.963   6.462  72.059  1.00  0.00    -0.183 C  
HETATM   19  C   UNL     1     -11.277   6.739  71.984  1.00  0.00    -0.297 C  
BRANCH  19  20
HETATM   20  C   UNL     1     -11.800   7.878  71.151  1.00  0.00    -0.307 C  
BRANCH  20  21
HETATM   21  C   UNL     1     -11.781   9.239  71.837  1.00  0.00    -0.420 C  
HETATM   22  C   UNL     1     -13.183   9.809  71.835  1.00  0.00    -0.449 C  
HETATM   23  O   UNL     1     -13.203  11.163  71.901  1.00  0.00    -0.470 OA 
HETATM   24  O   UNL     1     -14.208   9.152  71.807  1.00  0.00    -0.289 OA 
ENDBRANCH  20  21
ENDBRANCH  19  20
ENDBRANCH  17  18
ENDBRANCH  16  17
ENDBRANCH  14  15
ENDBRANCH  13  14
ENDBRANCH  11  12
ENDBRANCH  10  11
ENDBRANCH   8   9
ENDBRANCH   7   8
ENDBRANCH   5   6
ENDBRANCH   4   5
ENDBRANCH   2   3
TORSDOF 13
ENDMDL
MODEL      246
REMARK 921   NORMALIZED FREE ENERGY PREDICTED BY IDOCK:   -3.78 KCAL/MOL
REMARK 922        TOTAL FREE ENERGY PREDICTED BY IDOCK:   -9.42 KCAL/MOL
REMARK 923 INTER-LIGAND FREE ENERGY PREDICTED BY IDOCK:   -6.81 KCAL/MOL
REMARK 924 INTRA-LIGAND FREE ENERGY PREDICTED BY IDOCK:   -2.62 KCAL/MOL
REMARK 927      BINDING AFFINITY PREDICTED BY RF-SCORE:    0.00 PKD
ROOT
HETATM    1  C   UNL     1     -12.641  12.138  63.966  1.00  0.00    -0.507 C  
HETATM    2  C   UNL     1     -12.305  12.835  65.274  1.00  0.00    -0.546 C  
ENDROOT
BRANCH   2   3
HETATM    3  C   UNL     1     -10.913  12.528  65.749  1.00  0.00    -0.327 C  
HETATM    4  C   UNL     1     -10.604  11.815  66.845  1.00  0.00    -0.270 C  
BRANCH   4   5
HETATM    5  C   UNL     1     -11.592  11.276  67.842  1.00  0.00    -0.330 C  
BRANCH   5   6
HETATM    6  C   UNL     1     -11.930  12.289  68.901  1.00  0.00    -0.300 C  
HETATM    7  C   UNL     1     -12.042  12.051  70.220  1.00  0.00    -0.395 C  
BRANCH   7   8
HETATM    8  C   UNL     1     -11.877  10.704  70.859  1.00  0.00    -0.433 C  
BRANCH   8   9
HETATM    9  C   UNL     1     -13.161  10.177  71.431  1.00  0.00    -0.512 C  
HETATM   10  C   UNL     1     -13.387   8.930  71.878  1.00  0.00    -0.455 C  
BRANCH  10  11
HETATM   11  C   UNL     1     -12.390   7.808  71.976  1.00  0.00    -0.328 C  
BRANCH  11  12
HETATM   12  C   UNL     1     -12.316   6.970  70.729  1.00  0.00    -0.307 C  
HETATM   13  C   UNL     1     -11.202   6.576  70.091  1.00  0.00    -0.437 C  
BRANCH  13  14
HETATM   14  C   UNL     1      -9.810   6.964  70.464  1.00  0.00    -0.187 C  
BRANCH  14  15
HETATM   15  C   UNL     1      -9.471   8.379  70.087  1.00  0.00    -0.165 C  
HETATM   16  C   UNL     1      -9.207   8.763  68.826  1.00  0.00    -0.141 C  
BRANCH  16  17
HETATM   17  C   UNL     1      -9.157   7.827  67.655  1.00  0.00    -0.138 C  
BRANCH  17  18
HETATM   18  C   UNL     1      -9.772   8.402  66.409  1.00  0.00    -0.312 C  
HETATM   19  C   UNL     1      -9.036   8.849  65.375  1.00  0.00    -0.222 C  
BRANCH  19  20
HETATM   20  C   UNL     1      -7.532   8.790  65.390  1.00  0.00    -0.086 C  
BRANCH  20  21
HETATM   21  C   UNL     1      -6.833  10.127  65.177  1.00  0.00    -0.134 C  
HETATM   22  C   UNL     1      -6.330  10.636  66.510  1.00  0.00    -0.102 C  
HETATM   23  O   UNL     1      -6.200  11.984  66.546  1.00  0.00    -0.117 OA 
HETATM   24  O   UNL     1      -6.036   9.936  67.463  1.00  0.00    -0.057 OA 
ENDBRANCH  20  21
ENDBRANCH  19  20
ENDBRANCH  17  18
ENDBRANCH  16  17
ENDBRANCH  14  15
ENDBRANCH  13  14
ENDBRANCH  11  12
ENDBRANCH  10  11
ENDBRANCH   8   9
ENDBRANCH   7   8
ENDBRANCH   5   6
ENDBRANCH   4   5
ENDBRANCH   2   3
TORSDOF 13
ENDMDL
MODEL      247
REMARK 921   NORMALIZED FREE ENERGY PREDICTED BY IDOCK:   -3.77 KCAL/MOL
REMARK 922        TOTAL FREE ENERGY PREDICTED BY IDOCK:   -9.41 KCAL/MOL
REMARK 923 INTER-LIGAND FREE ENERGY PREDICTED BY IDOCK:   -7.97 KCAL/MOL
REMARK 924 INTRA-LIGAND FREE ENERGY PREDICTED BY IDOCK:   -1.44 KCAL/MOL
REMARK 927      BINDING AFFINITY PREDICTED BY RF-SCORE:    0.00 PKD
ROOT
HETATM    1  C   UNL     1     -11.358   4.900  72.963  1.00  0.00    -0.354 C  
HETATM    2  C   UNL     1     -11.151   6.382  72.694  1.00  0.00    -0.294 C  
ENDROOT
BRANCH   2   3
HETATM    3  C   UNL     1     -11.985   6.882  71.548  1.00  0.00    -0.386 C  
HETATM    4  C   UNL     1     -11.699   6.712  70.246  1.00  0.00    -0.432 C  
BRANCH   4   5
HETATM    5  C   UNL     1     -10.451   6.076  69.702  1.00  0.00    -0.325 C  
BRANCH   5   6
HETATM    6  C   UNL     1     -10.693   5.407  68.377  1.00  0.00    -0.071 C  
HETATM    7  C   UNL     1     -10.725   6.011  67.176  1.00  0.00    -0.409 C  
BRANCH   7   8
HETATM    8  C   UNL     1     -10.553   7.486  66.961  1.00  0.00    -0.409 C  
BRANCH   8   9
HETATM    9  C   UNL     1      -9.153   7.850  66.564  1.00  0.00    -0.209 C  
HETATM   10  C   UNL     1      -8.786   8.851  65.746  1.00  0.00    -0.205 C  
BRANCH  10  11
HETATM   11  C   UNL     1      -9.685   9.874  65.107  1.00  0.00    -0.376 C  
BRANCH  11  12
HETATM   12  C   UNL     1      -9.490   9.989  63.620  1.00  0.00    -0.253 C  
HETATM   13  C   UNL     1      -9.766  11.056  62.854  1.00  0.00    -0.353 C  
BRANCH  13  14
HETATM   14  C   UNL     1     -10.395  12.323  63.331  1.00  0.00    -0.395 C  
BRANCH  14  15
HETATM   15  C   UNL     1     -11.894  12.239  63.422  1.00  0.00    -0.563 C  
HETATM   16  C   UNL     1     -12.572  12.400  64.571  1.00  0.00    -0.477 C  
BRANCH  16  17
HETATM   17  C   UNL     1     -11.925  12.618  65.906  1.00  0.00    -0.497 C  
BRANCH  17  18
HETATM   18  C   UNL     1     -12.270  13.946  66.522  1.00  0.00    -0.482 C  
HETATM   19  C   UNL     1     -11.731  14.373  67.678  1.00  0.00    -0.421 C  
BRANCH  19  20
HETATM   20  C   UNL     1     -10.723  13.549  68.433  1.00  0.00    -0.273 C  
BRANCH  20  21
HETATM   21  C   UNL     1      -9.269  13.806  68.057  1.00  0.00    -0.195 C  
HETATM   22  C   UNL     1      -8.829  15.120  68.666  1.00  0.00    -0.186 C  
HETATM   23  O   UNL     1      -7.810  15.702  67.989  1.00  0.00    -0.124 OA 
HETATM   24  O   UNL     1      -9.298  15.617  69.674  1.00  0.00    -0.280 OA 
ENDBRANCH  20  21
ENDBRANCH  19  20
ENDBRANCH  17  18
ENDBRANCH  16  17
ENDBRANCH  14  15
ENDBRANCH  13  14
ENDBRANCH  11  12
ENDBRANCH  10  11
ENDBRANCH   8   9
ENDBRANCH   7   8
ENDBRANCH   5   6
ENDBRANCH   4   5
ENDBRANCH   2   3
TORSDOF 13
ENDMDL
MODEL      248
REMARK 921   NORMALIZED FREE ENERGY PREDICTED BY IDOCK:   -3.76 KCAL/MOL
REMARK 922        TOTAL FREE ENERGY PREDICTED BY IDOCK:   -9.40 KCAL/MOL
REMARK 923 INTER-LIGAND FREE ENERGY PREDICTED BY IDOCK:   -7.06 KCAL/MOL
REMARK 924 INTRA-LIGAND FREE ENERGY PREDICTED BY IDOCK:   -2.34 KCAL/MOL
REMARK 927      BINDING AFFINITY PREDICTED BY RF-SCORE:    0.00 PKD
ROOT
HETATM    1  C   UNL     1     -10.775  14.794  68.482  1.00  0.00    -0.247 C  
HETATM    2  C   UNL     1     -10.777  13.738  69.574  1.00  0.00     0.073 C  
ENDROOT
BRANCH   2   3
HETATM    3  C   UNL     1     -12.044  13.746  70.382  1.00  0.00    -0.421 C  
HETATM    4  C   UNL     1     -12.610  12.669  70.953  1.00  0.00    -0.338 C  
BRANCH   4   5
HETATM    5  C   UNL     1     -12.130  11.252  70.809  1.00  0.00    -0.450 C  
BRANCH   5   6
HETATM    6  C   UNL     1     -13.008  10.284  71.554  1.00  0.00    -0.556 C  
HETATM    7  C   UNL     1     -12.746   8.984  71.778  1.00  0.00    -0.431 C  
BRANCH   7   8
HETATM    8  C   UNL     1     -11.525   8.265  71.284  1.00  0.00    -0.314 C  
BRANCH   8   9
HETATM    9  C   UNL     1     -11.480   6.834  71.731  1.00  0.00    -0.320 C  
HETATM   10  C   UNL     1     -11.305   5.755  70.949  1.00  0.00    -0.106 C  
BRANCH  10  11
HETATM   11  C   UNL     1     -11.040   5.743  69.468  1.00  0.00    -0.287 C  
BRANCH  11  12
HETATM   12  C   UNL     1      -9.603   5.465  69.124  1.00  0.00    -0.193 C  
HETATM   13  C   UNL     1      -8.604   6.359  69.068  1.00  0.00    -0.124 C  
BRANCH  13  14
HETATM   14  C   UNL     1      -8.748   7.831  69.266  1.00  0.00    -0.139 C  
BRANCH  14  15
HETATM   15  C   UNL     1      -8.022   8.641  68.229  1.00  0.00    -0.110 C  
HETATM   16  C   UNL     1      -8.633   9.206  67.173  1.00  0.00    -0.122 C  
BRANCH  16  17
HETATM   17  C   UNL     1     -10.093   9.050  66.865  1.00  0.00    -0.338 C  
BRANCH  17  18
HETATM   18  C   UNL     1     -10.968   9.989  67.649  1.00  0.00    -0.297 C  
HETATM   19  C   UNL     1     -11.301  11.214  67.205  1.00  0.00    -0.302 C  
BRANCH  19  20
HETATM   20  C   UNL     1     -10.827  11.729  65.873  1.00  0.00    -0.339 C  
BRANCH  20  21
HETATM   21  C   UNL     1     -11.917  12.314  64.984  1.00  0.00    -0.413 C  
HETATM   22  C   UNL     1     -11.366  13.527  64.265  1.00  0.00    -0.375 C  
HETATM   23  O   UNL     1     -12.328  14.411  63.906  1.00  0.00    -0.720 OA 
HETATM   24  O   UNL     1     -10.192  13.710  63.996  1.00  0.00    -0.193 OA 
ENDBRANCH  20  21
ENDBRANCH  19  20
ENDBRANCH  17  18
ENDBRANCH  16  17
ENDBRANCH  14  15
ENDBRANCH  13  14
ENDBRANCH  11  12
ENDBRANCH  10  11
ENDBRANCH   8   9
ENDBRANCH   7   8
ENDBRANCH   5   6
ENDBRANCH   4   5
ENDBRANCH   2   3
TORSDOF 13
ENDMDL
MODEL      249
REMARK 921   NORMALIZED FREE ENERGY PREDICTED BY IDOCK:   -3.75 KCAL/MOL
REMARK 922        TOTAL FREE ENERGY PREDICTED BY IDOCK:   -9.38 KCAL/MOL
REMARK 923 INTER-LIGAND FREE ENERGY PREDICTED BY IDOCK:   -6.38 KCAL/MOL
REMARK 924 INTRA-LIGAND FREE ENERGY PREDICTED BY IDOCK:   -3.00 KCAL/MOL
REMARK 927      BINDING AFFINITY PREDICTED BY RF-SCORE:    0.00 PKD
ROOT
HETATM    1  C   UNL     1      -6.872  11.107  69.144  1.00  0.00    -0.102 C  
HETATM    2  C   UNL     1      -6.642  12.271  68.195  1.00  0.00    -0.067 C  
ENDROOT
BRANCH   2   3
HETATM    3  C   UNL     1      -6.833  13.604  68.861  1.00  0.00    -0.110 C  
HETATM    4  C   UNL     1      -7.859  14.444  68.641  1.00  0.00    -0.140 C  
BRANCH   4   5
HETATM    5  C   UNL     1      -8.948  14.244  67.624  1.00  0.00    -0.194 C  
BRANCH   5   6
HETATM    6  C   UNL     1     -10.273  13.949  68.271  1.00  0.00    -0.247 C  
HETATM    7  C   UNL     1     -11.482  14.068  67.695  1.00  0.00    -0.362 C  
BRANCH   7   8
HETATM    8  C   UNL     1     -11.713  14.554  66.294  1.00  0.00    -0.364 C  
BRANCH   8   9
HETATM    9  C   UNL     1     -12.760  13.756  65.573  1.00  0.00    -0.530 C  
HETATM   10  C   UNL     1     -12.571  12.606  64.905  1.00  0.00    -0.525 C  
BRANCH  10  11
HETATM   11  C   UNL     1     -11.292  11.822  64.793  1.00  0.00    -0.313 C  
BRANCH  11  12
HETATM   12  C   UNL     1     -10.444  12.235  63.621  1.00  0.00    -0.483 C  
HETATM   13  C   UNL     1      -9.645  11.442  62.890  1.00  0.00    -0.366 C  
BRANCH  13  14
HETATM   14  C   UNL     1      -9.385   9.996  63.154  1.00  0.00    -0.297 C  
BRANCH  14  15
HETATM   15  C   UNL     1      -7.934   9.692  63.400  1.00  0.00    -0.145 C  
HETATM   16  C   UNL     1      -7.398   9.599  64.629  1.00  0.00    -0.123 C  
BRANCH  16  17
HETATM   17  C   UNL     1      -8.158   9.845  65.898  1.00  0.00    -0.121 C  
BRANCH  17  18
HETATM   18  C   UNL     1      -9.244   8.835  66.143  1.00  0.00    -0.273 C  
HETATM   19  C   UNL     1     -10.258   9.051  67.001  1.00  0.00    -0.336 C  
BRANCH  19  20
HETATM   20  C   UNL     1     -10.382  10.339  67.770  1.00  0.00    -0.246 C  
BRANCH  20  21
HETATM   21  C   UNL     1     -11.459  10.344  68.848  1.00  0.00    -0.251 C  
HETATM   22  C   UNL     1     -10.933   9.625  70.072  1.00  0.00    -0.260 C  
HETATM   23  O   UNL     1     -11.918   9.100  70.840  1.00  0.00    -0.285 OA 
HETATM   24  O   UNL     1      -9.759   9.533  70.380  1.00  0.00    -0.242 OA 
ENDBRANCH  20  21
ENDBRANCH  19  20
ENDBRANCH  17  18
ENDBRANCH  16  17
ENDBRANCH  14  15
ENDBRANCH  13  14
ENDBRANCH  11  12
ENDBRANCH  10  11
ENDBRANCH   8   9
ENDBRANCH   7   8
ENDBRANCH   5   6
ENDBRANCH   4   5
ENDBRANCH   2   3
TORSDOF 13
ENDMDL
MODEL      250
REMARK 921   NORMALIZED FREE ENERGY PREDICTED BY IDOCK:   -3.75 KCAL/MOL
REMARK 922        TOTAL FREE ENERGY PREDICTED BY IDOCK:   -9.38 KCAL/MOL
REMARK 923 INTER-LIGAND FREE ENERGY PREDICTED BY IDOCK:   -6.68 KCAL/MOL
REMARK 924 INTRA-LIGAND FREE ENERGY PREDICTED BY IDOCK:   -2.70 KCAL/MOL
REMARK 927      BINDING AFFINITY PREDICTED BY RF-SCORE:    0.00 PKD
ROOT
HETATM    1  C   UNL     1     -11.083   6.079  68.496  1.00  0.00    -0.279 C  
HETATM    2  C   UNL     1     -10.594   6.062  69.934  1.00  0.00    -0.345 C  
ENDROOT
BRANCH   2   3
HETATM    3  C   UNL     1     -11.612   6.610  70.895  1.00  0.00    -0.416 C  
HETATM    4  C   UNL     1     -11.754   7.905  71.224  1.00  0.00    -0.313 C  
BRANCH   4   5
HETATM    5  C   UNL     1     -10.863   9.025  70.762  1.00  0.00    -0.310 C  
BRANCH   5   6
HETATM    6  C   UNL     1      -9.501   8.956  71.396  1.00  0.00    -0.344 C  
HETATM    7  C   UNL     1      -8.328   9.209  70.789  1.00  0.00    -0.248 C  
BRANCH   7   8
HETATM    8  C   UNL     1      -8.182   9.579  69.342  1.00  0.00    -0.126 C  
BRANCH   8   9
HETATM    9  C   UNL     1      -7.973   8.382  68.461  1.00  0.00    -0.121 C  
HETATM   10  C   UNL     1      -8.571   8.141  67.282  1.00  0.00    -0.124 C  
BRANCH  10  11
HETATM   11  C   UNL     1      -9.523   9.046  66.546  1.00  0.00    -0.266 C  
BRANCH  11  12
HETATM   12  C   UNL     1      -8.955   9.585  65.261  1.00  0.00    -0.244 C  
HETATM   13  C   UNL     1      -9.095  10.831  64.783  1.00  0.00    -0.222 C  
BRANCH  13  14
HETATM   14  C   UNL     1      -9.913  11.911  65.408  1.00  0.00    -0.281 C  
BRANCH  14  15
HETATM   15  C   UNL     1      -9.145  12.730  66.408  1.00  0.00    -0.096 C  
HETATM   16  C   UNL     1      -9.440  12.760  67.719  1.00  0.00    -0.205 C  
BRANCH  16  17
HETATM   17  C   UNL     1     -10.600  12.038  68.335  1.00  0.00    -0.236 C  
BRANCH  17  18
HETATM   18  C   UNL     1     -11.888  12.811  68.261  1.00  0.00    -0.357 C  
HETATM   19  C   UNL     1     -12.280  13.666  69.223  1.00  0.00    -0.283 C  
BRANCH  19  20
HETATM   20  C   UNL     1     -11.441  13.918  70.447  1.00  0.00    -0.067 C  
BRANCH  20  21
HETATM   21  C   UNL     1     -12.084  14.818  71.494  1.00  0.00    -0.411 C  
HETATM   22  C   UNL     1     -13.234  14.076  72.140  1.00  0.00    -0.435 C  
HETATM   23  O   UNL     1     -14.178  14.904  72.650  1.00  0.00    -0.418 OA 
HETATM   24  O   UNL     1     -13.321  12.865  72.236  1.00  0.00    -0.534 OA 
ENDBRANCH  20  21
ENDBRANCH  19  20
ENDBRANCH  17  18
ENDBRANCH  16  17
ENDBRANCH  14  15
ENDBRANCH  13  14
ENDBRANCH  11  12
ENDBRANCH  10  11
ENDBRANCH   8   9
ENDBRANCH   7   8
ENDBRANCH   5   6
ENDBRANCH   4   5
ENDBRANCH   2   3
TORSDOF 13
ENDMDL
MODEL      251
REMARK 921   NORMALIZED FREE ENERGY PREDICTED BY IDOCK:   -3.75 KCAL/MOL
REMARK 922        TOTAL FREE ENERGY PREDICTED BY IDOCK:   -9.37 KCAL/MOL
REMARK 923 INTER-LIGAND FREE ENERGY PREDICTED BY IDOCK:   -8.21 KCAL/MOL
REMARK 924 INTRA-LIGAND FREE ENERGY PREDICTED BY IDOCK:   -1.16 KCAL/MOL
REMARK 927      BINDING AFFINITY PREDICTED BY RF-SCORE:    0.00 PKD
ROOT
HETATM    1  C   UNL     1     -14.281   7.866  71.573  1.00  0.00    -0.527 C  
HETATM    2  C   UNL     1     -13.913   9.256  72.064  1.00  0.00    -0.392 C  
ENDROOT
BRANCH   2   3
HETATM    3  C   UNL     1     -13.048  10.002  71.088  1.00  0.00    -0.472 C  
HETATM    4  C   UNL     1     -12.670  11.286  71.207  1.00  0.00    -0.510 C  
BRANCH   4   5
HETATM    5  C   UNL     1     -13.121  12.232  72.285  1.00  0.00    -0.263 C  
BRANCH   5   6
HETATM    6  C   UNL     1     -13.655  13.518  71.716  1.00  0.00    -0.431 C  
HETATM    7  C   UNL     1     -13.094  14.246  70.735  1.00  0.00    -0.321 C  
BRANCH   7   8
HETATM    8  C   UNL     1     -11.801  13.906  70.055  1.00  0.00    -0.384 C  
BRANCH   8   9
HETATM    9  C   UNL     1     -12.003  13.393  68.659  1.00  0.00    -0.362 C  
HETATM   10  C   UNL     1     -11.060  12.883  67.849  1.00  0.00    -0.283 C  
BRANCH  10  11
HETATM   11  C   UNL     1      -9.612  12.643  68.182  1.00  0.00    -0.219 C  
BRANCH  11  12
HETATM   12  C   UNL     1      -8.664  13.332  67.238  1.00  0.00    -0.214 C  
HETATM   13  C   UNL     1      -8.369  14.641  67.211  1.00  0.00    -0.234 C  
BRANCH  13  14
HETATM   14  C   UNL     1      -8.991  15.686  68.076  1.00  0.00    -0.178 C  
BRANCH  14  15
HETATM   15  C   UNL     1     -10.253  16.259  67.495  1.00  0.00    -0.270 C  
HETATM   16  C   UNL     1     -10.713  17.485  67.797  1.00  0.00    -0.333 C  
BRANCH  16  17
HETATM   17  C   UNL     1     -10.067  18.404  68.790  1.00  0.00    -0.393 C  
BRANCH  17  18
HETATM   18  C   UNL     1     -10.196  19.857  68.424  1.00  0.00    -0.557 C  
HETATM   19  C   UNL     1      -9.366  20.465  67.557  1.00  0.00    -0.500 C  
BRANCH  19  20
HETATM   20  C   UNL     1      -8.250  19.721  66.876  1.00  0.00    -0.342 C  
BRANCH  20  21
HETATM   21  C   UNL     1      -7.383  20.565  65.951  1.00  0.00    -0.104 C  
HETATM   22  C   UNL     1      -6.399  19.662  65.239  1.00  0.00    -0.263 C  
HETATM   23  O   UNL     1      -5.276  20.310  64.844  1.00  0.00    -0.157 OA 
HETATM   24  O   UNL     1      -6.576  18.480  65.003  1.00  0.00    -0.497 OA 
ENDBRANCH  20  21
ENDBRANCH  19  20
ENDBRANCH  17  18
ENDBRANCH  16  17
ENDBRANCH  14  15
ENDBRANCH  13  14
ENDBRANCH  11  12
ENDBRANCH  10  11
ENDBRANCH   8   9
ENDBRANCH   7   8
ENDBRANCH   5   6
ENDBRANCH   4   5
ENDBRANCH   2   3
TORSDOF 13
ENDMDL
MODEL      252
REMARK 921   NORMALIZED FREE ENERGY PREDICTED BY IDOCK:   -3.74 KCAL/MOL
REMARK 922        TOTAL FREE ENERGY PREDICTED BY IDOCK:   -9.35 KCAL/MOL
REMARK 923 INTER-LIGAND FREE ENERGY PREDICTED BY IDOCK:   -6.14 KCAL/MOL
REMARK 924 INTRA-LIGAND FREE ENERGY PREDICTED BY IDOCK:   -3.22 KCAL/MOL
REMARK 927      BINDING AFFINITY PREDICTED BY RF-SCORE:    0.00 PKD
ROOT
HETATM    1  C   UNL     1      -7.187  17.584  68.731  1.00  0.00    -0.257 C  
HETATM    2  C   UNL     1      -7.204  16.094  69.029  1.00  0.00    -0.195 C  
ENDROOT
BRANCH   2   3
HETATM    3  C   UNL     1      -6.949  15.259  67.807  1.00  0.00    -0.185 C  
HETATM    4  C   UNL     1      -7.382  14.000  67.620  1.00  0.00    -0.188 C  
BRANCH   4   5
HETATM    5  C   UNL     1      -8.117  13.171  68.636  1.00  0.00    -0.014 C  
BRANCH   5   6
HETATM    6  C   UNL     1      -9.445  12.692  68.117  1.00  0.00    -0.218 C  
HETATM    7  C   UNL     1      -9.797  11.414  67.895  1.00  0.00    -0.188 C  
BRANCH   7   8
HETATM    8  C   UNL     1      -8.894  10.234  68.103  1.00  0.00    -0.123 C  
BRANCH   8   9
HETATM    9  C   UNL     1      -7.835  10.126  67.045  1.00  0.00    -0.102 C  
HETATM   10  C   UNL     1      -8.018   9.777  65.760  1.00  0.00    -0.116 C  
BRANCH  10  11
HETATM   11  C   UNL     1      -9.328   9.490  65.077  1.00  0.00    -0.294 C  
BRANCH  11  12
HETATM   12  C   UNL     1      -9.412  10.066  63.691  1.00  0.00    -0.253 C  
HETATM   13  C   UNL     1      -9.906  11.267  63.350  1.00  0.00    -0.416 C  
BRANCH  13  14
HETATM   14  C   UNL     1     -10.542  12.239  64.287  1.00  0.00    -0.387 C  
BRANCH  14  15
HETATM   15  C   UNL     1     -11.546  13.135  63.617  1.00  0.00    -0.445 C  
HETATM   16  C   UNL     1     -12.064  14.229  64.202  1.00  0.00    -0.423 C  
BRANCH  16  17
HETATM   17  C   UNL     1     -11.757  14.656  65.607  1.00  0.00    -0.304 C  
BRANCH  17  18
HETATM   18  C   UNL     1     -10.492  15.462  65.719  1.00  0.00    -0.371 C  
HETATM   19  C   UNL     1     -10.259  16.311  66.736  1.00  0.00    -0.280 C  
BRANCH  19  20
HETATM   20  C   UNL     1     -11.253  16.504  67.849  1.00  0.00    -0.155 C  
BRANCH  20  21
HETATM   21  C   UNL     1     -10.794  16.008  69.215  1.00  0.00    -0.300 C  
HETATM   22  C   UNL     1     -11.745  14.932  69.692  1.00  0.00    -0.320 C  
HETATM   23  O   UNL     1     -11.778  14.815  71.041  1.00  0.00    -0.306 OA 
HETATM   24  O   UNL     1     -12.406  14.208  68.968  1.00  0.00    -0.294 OA 
ENDBRANCH  20  21
ENDBRANCH  19  20
ENDBRANCH  17  18
ENDBRANCH  16  17
ENDBRANCH  14  15
ENDBRANCH  13  14
ENDBRANCH  11  12
ENDBRANCH  10  11
ENDBRANCH   8   9
ENDBRANCH   7   8
ENDBRANCH   5   6
ENDBRANCH   4   5
ENDBRANCH   2   3
TORSDOF 13
ENDMDL
MODEL      253
REMARK 921   NORMALIZED FREE ENERGY PREDICTED BY IDOCK:   -3.73 KCAL/MOL
REMARK 922        TOTAL FREE ENERGY PREDICTED BY IDOCK:   -9.35 KCAL/MOL
REMARK 923 INTER-LIGAND FREE ENERGY PREDICTED BY IDOCK:   -7.63 KCAL/MOL
REMARK 924 INTRA-LIGAND FREE ENERGY PREDICTED BY IDOCK:   -1.72 KCAL/MOL
REMARK 927      BINDING AFFINITY PREDICTED BY RF-SCORE:    0.00 PKD
ROOT
HETATM    1  C   UNL     1     -13.289   9.471  72.030  1.00  0.00    -0.535 C  
HETATM    2  C   UNL     1     -12.042   9.987  71.333  1.00  0.00    -0.498 C  
ENDROOT
BRANCH   2   3
HETATM    3  C   UNL     1     -12.358  10.774  70.092  1.00  0.00    -0.401 C  
HETATM    4  C   UNL     1     -11.617  10.791  68.971  1.00  0.00    -0.370 C  
BRANCH   4   5
HETATM    5  C   UNL     1     -10.293  10.103  68.790  1.00  0.00    -0.211 C  
BRANCH   5   6
HETATM    6  C   UNL     1     -10.208   9.388  67.470  1.00  0.00    -0.288 C  
HETATM    7  C   UNL     1      -9.890   9.940  66.286  1.00  0.00    -0.308 C  
BRANCH   7   8
HETATM    8  C   UNL     1      -9.593  11.396  66.079  1.00  0.00    -0.247 C  
BRANCH   8   9
HETATM    9  C   UNL     1     -10.530  12.040  65.099  1.00  0.00    -0.328 C  
HETATM   10  C   UNL     1     -10.830  13.348  65.018  1.00  0.00    -0.337 C  
BRANCH  10  11
HETATM   11  C   UNL     1     -10.241  14.465  65.836  1.00  0.00    -0.341 C  
BRANCH  11  12
HETATM   12  C   UNL     1     -10.427  15.820  65.211  1.00  0.00    -0.427 C  
HETATM   13  C   UNL     1     -10.421  17.004  65.844  1.00  0.00    -0.282 C  
BRANCH  13  14
HETATM   14  C   UNL     1     -10.301  17.195  67.319  1.00  0.00    -0.320 C  
BRANCH  14  15
HETATM   15  C   UNL     1     -10.807  18.532  67.784  1.00  0.00    -0.289 C  
HETATM   16  C   UNL     1     -10.139  19.681  67.589  1.00  0.00    -0.544 C  
BRANCH  16  17
HETATM   17  C   UNL     1      -8.788  19.769  66.945  1.00  0.00    -0.401 C  
BRANCH  17  18
HETATM   18  C   UNL     1      -7.706  20.210  67.892  1.00  0.00    -0.294 C  
HETATM   19  C   UNL     1      -6.764  19.372  68.361  1.00  0.00    -0.305 C  
BRANCH  19  20
HETATM   20  C   UNL     1      -6.720  17.923  67.953  1.00  0.00    -0.193 C  
BRANCH  20  21
HETATM   21  C   UNL     1      -7.011  16.930  69.071  1.00  0.00    -0.224 C  
HETATM   22  C   UNL     1      -7.415  15.606  68.459  1.00  0.00    -0.123 C  
HETATM   23  O   UNL     1      -8.193  14.860  69.280  1.00  0.00    -0.172 OA 
HETATM   24  O   UNL     1      -7.074  15.208  67.360  1.00  0.00    -0.191 OA 
ENDBRANCH  20  21
ENDBRANCH  19  20
ENDBRANCH  17  18
ENDBRANCH  16  17
ENDBRANCH  14  15
ENDBRANCH  13  14
ENDBRANCH  11  12
ENDBRANCH  10  11
ENDBRANCH   8   9
ENDBRANCH   7   8
ENDBRANCH   5   6
ENDBRANCH   4   5
ENDBRANCH   2   3
TORSDOF 13
ENDMDL
MODEL      254
REMARK 921   NORMALIZED FREE ENERGY PREDICTED BY IDOCK:   -3.73 KCAL/MOL
REMARK 922        TOTAL FREE ENERGY PREDICTED BY IDOCK:   -9.34 KCAL/MOL
REMARK 923 INTER-LIGAND FREE ENERGY PREDICTED BY IDOCK:   -6.78 KCAL/MOL
REMARK 924 INTRA-LIGAND FREE ENERGY PREDICTED BY IDOCK:   -2.56 KCAL/MOL
REMARK 927      BINDING AFFINITY PREDICTED BY RF-SCORE:    0.00 PKD
ROOT
HETATM    1  C   UNL     1     -12.352  13.473  65.783  1.00  0.00    -0.516 C  
HETATM    2  C   UNL     1     -12.014  14.098  67.126  1.00  0.00    -0.460 C  
ENDROOT
BRANCH   2   3
HETATM    3  C   UNL     1     -10.785  13.499  67.748  1.00  0.00    -0.262 C  
HETATM    4  C   UNL     1     -10.770  12.442  68.579  1.00  0.00    -0.262 C  
BRANCH   4   5
HETATM    5  C   UNL     1     -11.984  11.732  69.109  1.00  0.00    -0.356 C  
BRANCH   5   6
HETATM    6  C   UNL     1     -12.427  12.288  70.434  1.00  0.00    -0.221 C  
HETATM    7  C   UNL     1     -12.707  11.577  71.541  1.00  0.00    -0.439 C  
BRANCH   7   8
HETATM    8  C   UNL     1     -12.653  10.080  71.627  1.00  0.00    -0.524 C  
BRANCH   8   9
HETATM    9  C   UNL     1     -13.972   9.438  71.309  1.00  0.00    -0.114 C  
HETATM   10  C   UNL     1     -14.257   8.126  71.361  1.00  0.00    -0.431 C  
BRANCH  10  11
HETATM   11  C   UNL     1     -13.347   7.018  71.818  1.00  0.00    -0.311 C  
BRANCH  11  12
HETATM   12  C   UNL     1     -12.278   6.677  70.817  1.00  0.00    -0.302 C  
HETATM   13  C   UNL     1     -11.031   6.259  71.085  1.00  0.00    -0.336 C  
BRANCH  13  14
HETATM   14  C   UNL     1     -10.439   6.125  72.448  1.00  0.00    -0.228 C  
BRANCH  14  15
HETATM   15  C   UNL     1     -10.256   7.444  73.145  1.00  0.00    -0.363 C  
HETATM   16  C   UNL     1      -9.248   8.290  72.869  1.00  0.00    -0.329 C  
BRANCH  16  17
HETATM   17  C   UNL     1      -8.154   8.001  71.885  1.00  0.00    -0.150 C  
BRANCH  17  18
HETATM   18  C   UNL     1      -7.763   9.199  71.064  1.00  0.00    -0.132 C  
HETATM   19  C   UNL     1      -8.517   9.663  70.050  1.00  0.00    -0.223 C  
BRANCH  19  20
HETATM   20  C   UNL     1      -9.823   9.016  69.675  1.00  0.00    -0.182 C  
BRANCH  20  21
HETATM   21  C   UNL     1     -10.045   8.832  68.179  1.00  0.00    -0.228 C  
HETATM   22  C   UNL     1      -9.242   7.640  67.706  1.00  0.00    -0.136 C  
HETATM   23  O   UNL     1      -8.923   7.705  66.391  1.00  0.00    -0.153 OA 
HETATM   24  O   UNL     1      -8.922   6.691  68.399  1.00  0.00    -0.124 OA 
ENDBRANCH  20  21
ENDBRANCH  19  20
ENDBRANCH  17  18
ENDBRANCH  16  17
ENDBRANCH  14  15
ENDBRANCH  13  14
ENDBRANCH  11  12
ENDBRANCH  10  11
ENDBRANCH   8   9
ENDBRANCH   7   8
ENDBRANCH   5   6
ENDBRANCH   4   5
ENDBRANCH   2   3
TORSDOF 13
ENDMDL
MODEL      255
REMARK 921   NORMALIZED FREE ENERGY PREDICTED BY IDOCK:   -3.73 KCAL/MOL
REMARK 922        TOTAL FREE ENERGY PREDICTED BY IDOCK:   -9.34 KCAL/MOL
REMARK 923 INTER-LIGAND FREE ENERGY PREDICTED BY IDOCK:   -6.95 KCAL/MOL
REMARK 924 INTRA-LIGAND FREE ENERGY PREDICTED BY IDOCK:   -2.39 KCAL/MOL
REMARK 927      BINDING AFFINITY PREDICTED BY RF-SCORE:    0.00 PKD
ROOT
HETATM    1  C   UNL     1     -10.432   5.336  66.566  1.00  0.00    -0.354 C  
HETATM    2  C   UNL     1      -9.529   6.012  67.584  1.00  0.00    -0.112 C  
ENDROOT
BRANCH   2   3
HETATM    3  C   UNL     1      -9.531   5.310  68.913  1.00  0.00    -0.173 C  
HETATM    4  C   UNL     1     -10.420   5.514  69.900  1.00  0.00    -0.386 C  
BRANCH   4   5
HETATM    5  C   UNL     1     -11.512   6.545  69.890  1.00  0.00    -0.467 C  
BRANCH   5   6
HETATM    6  C   UNL     1     -10.965   7.944  69.975  1.00  0.00    -0.208 C  
HETATM    7  C   UNL     1     -11.134   8.802  70.997  1.00  0.00    -0.328 C  
BRANCH   7   8
HETATM    8  C   UNL     1     -11.937   8.510  72.230  1.00  0.00    -0.454 C  
BRANCH   8   9
HETATM    9  C   UNL     1     -11.371   7.374  73.030  1.00  0.00    -0.283 C  
HETATM   10  C   UNL     1     -10.078   7.182  73.345  1.00  0.00    -0.345 C  
BRANCH  10  11
HETATM   11  C   UNL     1      -8.924   8.095  73.032  1.00  0.00    -0.335 C  
BRANCH  11  12
HETATM   12  C   UNL     1      -7.903   7.469  72.121  1.00  0.00    -0.103 C  
HETATM   13  C   UNL     1      -7.305   8.049  71.069  1.00  0.00    -0.059 C  
BRANCH  13  14
HETATM   14  C   UNL     1      -7.600   9.418  70.552  1.00  0.00    -0.162 C  
BRANCH  14  15
HETATM   15  C   UNL     1      -6.882   9.731  69.268  1.00  0.00    -0.055 C  
HETATM   16  C   UNL     1      -7.501  10.215  68.177  1.00  0.00    -0.083 C  
BRANCH  16  17
HETATM   17  C   UNL     1      -8.980  10.443  68.081  1.00  0.00    -0.132 C  
BRANCH  17  18
HETATM   18  C   UNL     1      -9.623   9.694  66.947  1.00  0.00    -0.217 C  
HETATM   19  C   UNL     1     -10.197  10.312  65.900  1.00  0.00    -0.293 C  
BRANCH  19  20
HETATM   20  C   UNL     1     -10.222  11.813  65.784  1.00  0.00    -0.276 C  
BRANCH  20  21
HETATM   21  C   UNL     1     -11.546  12.465  66.160  1.00  0.00    -0.452 C  
HETATM   22  C   UNL     1     -12.303  12.806  64.895  1.00  0.00    -0.490 C  
HETATM   23  O   UNL     1     -13.176  13.829  65.060  1.00  0.00    -0.733 OA 
HETATM   24  O   UNL     1     -12.187  12.225  63.830  1.00  0.00    -0.446 OA 
ENDBRANCH  20  21
ENDBRANCH  19  20
ENDBRANCH  17  18
ENDBRANCH  16  17
ENDBRANCH  14  15
ENDBRANCH  13  14
ENDBRANCH  11  12
ENDBRANCH  10  11
ENDBRANCH   8   9
ENDBRANCH   7   8
ENDBRANCH   5   6
ENDBRANCH   4   5
ENDBRANCH   2   3
TORSDOF 13
ENDMDL
MODEL      256
REMARK 921   NORMALIZED FREE ENERGY PREDICTED BY IDOCK:   -3.72 KCAL/MOL
REMARK 922        TOTAL FREE ENERGY PREDICTED BY IDOCK:   -9.32 KCAL/MOL
REMARK 923 INTER-LIGAND FREE ENERGY PREDICTED BY IDOCK:   -7.15 KCAL/MOL
REMARK 924 INTRA-LIGAND FREE ENERGY PREDICTED BY IDOCK:   -2.17 KCAL/MOL
REMARK 927      BINDING AFFINITY PREDICTED BY RF-SCORE:    0.00 PKD
ROOT
HETATM    1  C   UNL     1      -9.590  10.501  63.301  1.00  0.00    -0.373 C  
HETATM    2  C   UNL     1      -8.924  10.193  64.632  1.00  0.00    -0.241 C  
ENDROOT
BRANCH   2   3
HETATM    3  C   UNL     1      -9.898   9.701  65.664  1.00  0.00    -0.369 C  
HETATM    4  C   UNL     1     -10.109  10.264  66.866  1.00  0.00    -0.274 C  
BRANCH   4   5
HETATM    5  C   UNL     1      -9.344  11.428  67.430  1.00  0.00    -0.171 C  
BRANCH   5   6
HETATM    6  C   UNL     1      -7.954  11.035  67.850  1.00  0.00    -0.112 C  
HETATM    7  C   UNL     1      -7.623  10.336  68.950  1.00  0.00    -0.094 C  
BRANCH   7   8
HETATM    8  C   UNL     1      -8.605   9.851  69.976  1.00  0.00    -0.196 C  
BRANCH   8   9
HETATM    9  C   UNL     1      -8.053   8.739  70.820  1.00  0.00    -0.156 C  
HETATM   10  C   UNL     1      -8.012   7.435  70.500  1.00  0.00    -0.099 C  
BRANCH  10  11
HETATM   11  C   UNL     1      -8.440   6.806  69.201  1.00  0.00    -0.128 C  
BRANCH  11  12
HETATM   12  C   UNL     1      -9.305   5.590  69.387  1.00  0.00    -0.154 C  
HETATM   13  C   UNL     1     -10.600   5.572  69.739  1.00  0.00    -0.388 C  
BRANCH  13  14
HETATM   14  C   UNL     1     -11.417   6.771  70.090  1.00  0.00    -0.404 C  
BRANCH  14  15
HETATM   15  C   UNL     1     -11.531   6.994  71.572  1.00  0.00    -0.306 C  
HETATM   16  C   UNL     1     -11.754   8.200  72.121  1.00  0.00    -0.418 C  
BRANCH  16  17
HETATM   17  C   UNL     1     -11.856   9.475  71.337  1.00  0.00    -0.464 C  
BRANCH  17  18
HETATM   18  C   UNL     1     -12.947  10.386  71.826  1.00  0.00    -0.580 C  
HETATM   19  C   UNL     1     -13.032  11.679  71.462  1.00  0.00    -0.463 C  
BRANCH  19  20
HETATM   20  C   UNL     1     -12.037  12.303  70.521  1.00  0.00    -0.371 C  
BRANCH  20  21
HETATM   21  C   UNL     1     -12.453  13.650  69.944  1.00  0.00    -0.226 C  
HETATM   22  C   UNL     1     -12.482  14.674  71.059  1.00  0.00    -0.329 C  
HETATM   23  O   UNL     1     -13.323  15.706  70.807  1.00  0.00    -0.535 OA 
HETATM   24  O   UNL     1     -11.813  14.623  72.075  1.00  0.00    -0.303 OA 
ENDBRANCH  20  21
ENDBRANCH  19  20
ENDBRANCH  17  18
ENDBRANCH  16  17
ENDBRANCH  14  15
ENDBRANCH  13  14
ENDBRANCH  11  12
ENDBRANCH  10  11
ENDBRANCH   8   9
ENDBRANCH   7   8
ENDBRANCH   5   6
ENDBRANCH   4   5
ENDBRANCH   2   3
TORSDOF 13
ENDMDL
MODEL      257
REMARK 921   NORMALIZED FREE ENERGY PREDICTED BY IDOCK:   -3.70 KCAL/MOL
REMARK 922        TOTAL FREE ENERGY PREDICTED BY IDOCK:   -9.28 KCAL/MOL
REMARK 923 INTER-LIGAND FREE ENERGY PREDICTED BY IDOCK:   -7.03 KCAL/MOL
REMARK 924 INTRA-LIGAND FREE ENERGY PREDICTED BY IDOCK:   -2.25 KCAL/MOL
REMARK 927      BINDING AFFINITY PREDICTED BY RF-SCORE:    0.00 PKD
ROOT
HETATM    1  C   UNL     1     -10.506  10.572  66.810  1.00  0.00    -0.302 C  
HETATM    2  C   UNL     1      -9.157   9.970  66.452  1.00  0.00    -0.176 C  
ENDROOT
BRANCH   2   3
HETATM    3  C   UNL     1      -8.449   9.392  67.645  1.00  0.00    -0.119 C  
HETATM    4  C   UNL     1      -8.461   8.096  68.004  1.00  0.00    -0.133 C  
BRANCH   4   5
HETATM    5  C   UNL     1      -9.258   7.013  67.333  1.00  0.00    -0.134 C  
BRANCH   5   6
HETATM    6  C   UNL     1     -10.672   6.957  67.843  1.00  0.00    -0.294 C  
HETATM    7  C   UNL     1     -11.115   6.219  68.875  1.00  0.00    -0.434 C  
BRANCH   7   8
HETATM    8  C   UNL     1     -10.262   5.286  69.683  1.00  0.00    -0.348 C  
BRANCH   8   9
HETATM    9  C   UNL     1      -9.512   5.992  70.775  1.00  0.00    -0.189 C  
HETATM   10  C   UNL     1      -9.975   6.294  72.000  1.00  0.00    -0.187 C  
BRANCH  10  11
HETATM   11  C   UNL     1     -11.316   5.928  72.577  1.00  0.00    -0.352 C  
BRANCH  11  12
HETATM   12  C   UNL     1     -12.471   6.517  71.815  1.00  0.00    -0.293 C  
HETATM   13  C   UNL     1     -12.719   7.821  71.617  1.00  0.00    -0.358 C  
BRANCH  13  14
HETATM   14  C   UNL     1     -11.924   8.949  72.186  1.00  0.00    -0.419 C  
BRANCH  14  15
HETATM   15  C   UNL     1     -10.823   9.415  71.274  1.00  0.00    -0.431 C  
HETATM   16  C   UNL     1     -10.984  10.388  70.361  1.00  0.00    -0.320 C  
BRANCH  16  17
HETATM   17  C   UNL     1     -12.286  11.084  70.095  1.00  0.00    -0.424 C  
BRANCH  17  18
HETATM   18  C   UNL     1     -12.473  12.328  70.919  1.00  0.00    -0.371 C  
HETATM   19  C   UNL     1     -12.290  13.565  70.421  1.00  0.00    -0.397 C  
BRANCH  19  20
HETATM   20  C   UNL     1     -11.895  13.789  68.986  1.00  0.00    -0.397 C  
BRANCH  20  21
HETATM   21  C   UNL     1     -10.532  14.440  68.788  1.00  0.00    -0.244 C  
HETATM   22  C   UNL     1     -10.010  14.078  67.414  1.00  0.00    -0.243 C  
HETATM   23  O   UNL     1      -8.658  14.120  67.334  1.00  0.00    -0.186 OA 
HETATM   24  O   UNL     1     -10.703  13.801  66.451  1.00  0.00    -0.279 OA 
ENDBRANCH  20  21
ENDBRANCH  19  20
ENDBRANCH  17  18
ENDBRANCH  16  17
ENDBRANCH  14  15
ENDBRANCH  13  14
ENDBRANCH  11  12
ENDBRANCH  10  11
ENDBRANCH   8   9
ENDBRANCH   7   8
ENDBRANCH   5   6
ENDBRANCH   4   5
ENDBRANCH   2   3
TORSDOF 13
ENDMDL
MODEL      258
REMARK 921   NORMALIZED FREE ENERGY PREDICTED BY IDOCK:   -3.69 KCAL/MOL
REMARK 922        TOTAL FREE ENERGY PREDICTED BY IDOCK:   -9.28 KCAL/MOL
REMARK 923 INTER-LIGAND FREE ENERGY PREDICTED BY IDOCK:   -8.02 KCAL/MOL
REMARK 924 INTRA-LIGAND FREE ENERGY PREDICTED BY IDOCK:   -1.26 KCAL/MOL
REMARK 927      BINDING AFFINITY PREDICTED BY RF-SCORE:    0.00 PKD
ROOT
HETATM    1  C   UNL     1      -8.215  19.134  68.617  1.00  0.00    -0.404 C  
HETATM    2  C   UNL     1      -9.656  19.483  68.284  1.00  0.00    -0.464 C  
ENDROOT
BRANCH   2   3
HETATM    3  C   UNL     1      -9.934  19.432  66.808  1.00  0.00    -0.476 C  
HETATM    4  C   UNL     1     -10.433  18.373  66.146  1.00  0.00    -0.422 C  
BRANCH   4   5
HETATM    5  C   UNL     1     -10.714  17.024  66.745  1.00  0.00    -0.102 C  
BRANCH   5   6
HETATM    6  C   UNL     1      -9.783  15.969  66.212  1.00  0.00    -0.332 C  
HETATM    7  C   UNL     1     -10.101  14.996  65.340  1.00  0.00    -0.396 C  
BRANCH   7   8
HETATM    8  C   UNL     1     -11.471  14.779  64.769  1.00  0.00    -0.410 C  
BRANCH   8   9
HETATM    9  C   UNL     1     -12.308  13.861  65.611  1.00  0.00    -0.511 C  
HETATM   10  C   UNL     1     -11.971  12.629  66.030  1.00  0.00    -0.478 C  
BRANCH  10  11
HETATM   11  C   UNL     1     -10.659  11.925  65.814  1.00  0.00    -0.309 C  
BRANCH  11  12
HETATM   12  C   UNL     1     -10.572  11.229  64.484  1.00  0.00    -0.401 C  
HETATM   13  C   UNL     1      -9.623  10.364  64.092  1.00  0.00    -0.381 C  
BRANCH  13  14
HETATM   14  C   UNL     1      -8.418   9.983  64.886  1.00  0.00    -0.173 C  
BRANCH  14  15
HETATM   15  C   UNL     1      -8.104   8.515  64.815  1.00  0.00    -0.151 C  
HETATM   16  C   UNL     1      -8.645   7.604  65.642  1.00  0.00    -0.142 C  
BRANCH  16  17
HETATM   17  C   UNL     1      -9.573   7.940  66.771  1.00  0.00    -0.278 C  
BRANCH  17  18
HETATM   18  C   UNL     1     -10.766   7.028  66.850  1.00  0.00    -0.376 C  
HETATM   19  C   UNL     1     -11.003   6.231  67.907  1.00  0.00    -0.421 C  
BRANCH  19  20
HETATM   20  C   UNL     1     -10.088   6.208  69.102  1.00  0.00    -0.212 C  
BRANCH  20  21
HETATM   21  C   UNL     1     -10.594   5.393  70.285  1.00  0.00    -0.329 C  
HETATM   22  C   UNL     1     -11.217   6.330  71.297  1.00  0.00    -0.297 C  
HETATM   23  O   UNL     1     -11.197   5.835  72.558  1.00  0.00    -0.267 OA 
HETATM   24  O   UNL     1     -11.718   7.409  71.038  1.00  0.00    -0.284 OA 
ENDBRANCH  20  21
ENDBRANCH  19  20
ENDBRANCH  17  18
ENDBRANCH  16  17
ENDBRANCH  14  15
ENDBRANCH  13  14
ENDBRANCH  11  12
ENDBRANCH  10  11
ENDBRANCH   8   9
ENDBRANCH   7   8
ENDBRANCH   5   6
ENDBRANCH   4   5
ENDBRANCH   2   3
TORSDOF 13
ENDMDL
MODEL      259
REMARK 921   NORMALIZED FREE ENERGY PREDICTED BY IDOCK:   -3.69 KCAL/MOL
REMARK 922        TOTAL FREE ENERGY PREDICTED BY IDOCK:   -9.26 KCAL/MOL
REMARK 923 INTER-LIGAND FREE ENERGY PREDICTED BY IDOCK:   -7.22 KCAL/MOL
REMARK 924 INTRA-LIGAND FREE ENERGY PREDICTED BY IDOCK:   -2.04 KCAL/MOL
REMARK 927      BINDING AFFINITY PREDICTED BY RF-SCORE:    0.00 PKD
ROOT
HETATM    1  C   UNL     1      -9.332  17.405  66.360  1.00  0.00    -0.272 C  
HETATM    2  C   UNL     1     -10.551  16.674  65.824  1.00  0.00    -0.278 C  
ENDROOT
BRANCH   2   3
HETATM    3  C   UNL     1     -10.308  15.202  65.643  1.00  0.00    -0.379 C  
HETATM    4  C   UNL     1     -10.863  14.226  66.382  1.00  0.00    -0.307 C  
BRANCH   4   5
HETATM    5  C   UNL     1     -11.750  14.433  67.577  1.00  0.00    -0.416 C  
BRANCH   5   6
HETATM    6  C   UNL     1     -11.092  13.977  68.851  1.00  0.00    -0.296 C  
HETATM    7  C   UNL     1     -11.184  12.753  69.399  1.00  0.00    -0.198 C  
BRANCH   7   8
HETATM    8  C   UNL     1     -12.001  11.628  68.834  1.00  0.00    -0.355 C  
BRANCH   8   9
HETATM    9  C   UNL     1     -11.301  10.913  67.716  1.00  0.00    -0.366 C  
HETATM   10  C   UNL     1     -10.458   9.873  67.834  1.00  0.00    -0.282 C  
BRANCH  10  11
HETATM   11  C   UNL     1     -10.085   9.146  69.098  1.00  0.00    -0.199 C  
BRANCH  11  12
HETATM   12  C   UNL     1      -8.736   9.540  69.633  1.00  0.00    -0.189 C  
HETATM   13  C   UNL     1      -8.003   8.867  70.534  1.00  0.00    -0.133 C  
BRANCH  13  14
HETATM   14  C   UNL     1      -8.428   7.623  71.240  1.00  0.00    -0.118 C  
BRANCH  14  15
HETATM   15  C   UNL     1      -7.609   6.420  70.863  1.00  0.00    -0.093 C  
HETATM   16  C   UNL     1      -8.142   5.208  70.632  1.00  0.00    -0.106 C  
BRANCH  16  17
HETATM   17  C   UNL     1      -9.599   4.889  70.780  1.00  0.00    -0.251 C  
BRANCH  17  18
HETATM   18  C   UNL     1     -10.442   5.430  69.658  1.00  0.00    -0.361 C  
HETATM   19  C   UNL     1     -11.503   6.230  69.866  1.00  0.00    -0.459 C  
BRANCH  19  20
HETATM   20  C   UNL     1     -11.914   6.654  71.250  1.00  0.00    -0.409 C  
BRANCH  20  21
HETATM   21  C   UNL     1     -13.302   7.277  71.347  1.00  0.00    -0.399 C  
HETATM   22  C   UNL     1     -13.181   8.653  71.966  1.00  0.00    -0.386 C  
HETATM   23  O   UNL     1     -14.316   9.055  72.586  1.00  0.00    -0.603 OA 
HETATM   24  O   UNL     1     -12.193   9.363  71.908  1.00  0.00    -0.365 OA 
ENDBRANCH  20  21
ENDBRANCH  19  20
ENDBRANCH  17  18
ENDBRANCH  16  17
ENDBRANCH  14  15
ENDBRANCH  13  14
ENDBRANCH  11  12
ENDBRANCH  10  11
ENDBRANCH   8   9
ENDBRANCH   7   8
ENDBRANCH   5   6
ENDBRANCH   4   5
ENDBRANCH   2   3
TORSDOF 13
ENDMDL
MODEL      260
REMARK 921   NORMALIZED FREE ENERGY PREDICTED BY IDOCK:   -3.68 KCAL/MOL
REMARK 922        TOTAL FREE ENERGY PREDICTED BY IDOCK:   -9.25 KCAL/MOL
REMARK 923 INTER-LIGAND FREE ENERGY PREDICTED BY IDOCK:   -6.97 KCAL/MOL
REMARK 924 INTRA-LIGAND FREE ENERGY PREDICTED BY IDOCK:   -2.28 KCAL/MOL
REMARK 927      BINDING AFFINITY PREDICTED BY RF-SCORE:    0.00 PKD
ROOT
HETATM    1  C   UNL     1      -7.490  20.392  67.546  1.00  0.00    -0.357 C  
HETATM    2  C   UNL     1      -8.310  19.391  66.750  1.00  0.00    -0.315 C  
ENDROOT
BRANCH   2   3
HETATM    3  C   UNL     1      -9.788  19.556  66.966  1.00  0.00    -0.469 C  
HETATM    4  C   UNL     1     -10.641  18.572  67.300  1.00  0.00    -0.453 C  
BRANCH   4   5
HETATM    5  C   UNL     1     -10.286  17.116  67.425  1.00  0.00    -0.333 C  
BRANCH   5   6
HETATM    6  C   UNL     1     -11.221  16.389  68.353  1.00  0.00    -0.324 C  
HETATM    7  C   UNL     1     -11.584  15.098  68.263  1.00  0.00    -0.357 C  
BRANCH   7   8
HETATM    8  C   UNL     1     -11.134  14.161  67.181  1.00  0.00    -0.315 C  
BRANCH   8   9
HETATM    9  C   UNL     1     -12.102  14.095  66.037  1.00  0.00    -0.449 C  
HETATM   10  C   UNL     1     -11.814  13.793  64.759  1.00  0.00    -0.413 C  
BRANCH  10  11
HETATM   11  C   UNL     1     -10.477  13.381  64.205  1.00  0.00    -0.325 C  
BRANCH  11  12
HETATM   12  C   UNL     1     -10.539  12.125  63.379  1.00  0.00    -0.454 C  
HETATM   13  C   UNL     1      -9.928  10.959  63.645  1.00  0.00    -0.415 C  
BRANCH  13  14
HETATM   14  C   UNL     1      -9.000  10.709  64.787  1.00  0.00    -0.218 C  
BRANCH  14  15
HETATM   15  C   UNL     1      -9.421   9.550  65.647  1.00  0.00    -0.326 C  
HETATM   16  C   UNL     1      -9.849   9.689  66.914  1.00  0.00    -0.257 C  
BRANCH  16  17
HETATM   17  C   UNL     1      -9.900  10.998  67.645  1.00  0.00    -0.192 C  
BRANCH  17  18
HETATM   18  C   UNL     1      -8.919  11.080  68.782  1.00  0.00    -0.153 C  
HETATM   19  C   UNL     1      -7.769  11.774  68.702  1.00  0.00    -0.126 C  
BRANCH  19  20
HETATM   20  C   UNL     1      -7.389  12.534  67.459  1.00  0.00    -0.151 C  
BRANCH  20  21
HETATM   21  C   UNL     1      -7.670  14.030  67.508  1.00  0.00    -0.197 C  
HETATM   22  C   UNL     1      -7.023  14.612  68.747  1.00  0.00    -0.102 C  
HETATM   23  O   UNL     1      -7.630  15.743  69.179  1.00  0.00    -0.182 OA 
HETATM   24  O   UNL     1      -6.043  14.154  69.306  1.00  0.00    -0.092 OA 
ENDBRANCH  20  21
ENDBRANCH  19  20
ENDBRANCH  17  18
ENDBRANCH  16  17
ENDBRANCH  14  15
ENDBRANCH  13  14
ENDBRANCH  11  12
ENDBRANCH  10  11
ENDBRANCH   8   9
ENDBRANCH   7   8
ENDBRANCH   5   6
ENDBRANCH   4   5
ENDBRANCH   2   3
TORSDOF 13
ENDMDL
MODEL      261
REMARK 921   NORMALIZED FREE ENERGY PREDICTED BY IDOCK:   -3.68 KCAL/MOL
REMARK 922        TOTAL FREE ENERGY PREDICTED BY IDOCK:   -9.25 KCAL/MOL
REMARK 923 INTER-LIGAND FREE ENERGY PREDICTED BY IDOCK:   -6.91 KCAL/MOL
REMARK 924 INTRA-LIGAND FREE ENERGY PREDICTED BY IDOCK:   -2.34 KCAL/MOL
REMARK 927      BINDING AFFINITY PREDICTED BY RF-SCORE:    0.00 PKD
ROOT
HETATM    1  C   UNL     1      -9.760   8.964  66.019  1.00  0.00    -0.308 C  
HETATM    2  C   UNL     1     -10.558   8.362  67.163  1.00  0.00    -0.326 C  
ENDROOT
BRANCH   2   3
HETATM    3  C   UNL     1     -10.617   6.862  67.098  1.00  0.00    -0.408 C  
HETATM    4  C   UNL     1     -10.893   6.048  68.132  1.00  0.00    -0.365 C  
BRANCH   4   5
HETATM    5  C   UNL     1     -11.101   6.485  69.554  1.00  0.00    -0.425 C  
BRANCH   5   6
HETATM    6  C   UNL     1     -10.473   5.530  70.533  1.00  0.00    -0.347 C  
HETATM    7  C   UNL     1      -9.210   5.580  70.991  1.00  0.00    -0.174 C  
BRANCH   7   8
HETATM    8  C   UNL     1      -8.190   6.596  70.569  1.00  0.00    -0.118 C  
BRANCH   8   9
HETATM    9  C   UNL     1      -8.192   7.812  71.449  1.00  0.00    -0.106 C  
HETATM   10  C   UNL     1      -8.365   9.086  71.056  1.00  0.00    -0.237 C  
BRANCH  10  11
HETATM   11  C   UNL     1      -8.668   9.571  69.664  1.00  0.00    -0.189 C  
BRANCH  11  12
HETATM   12  C   UNL     1      -7.435   9.804  68.835  1.00  0.00    -0.075 C  
HETATM   13  C   UNL     1      -7.221  10.820  67.983  1.00  0.00    -0.086 C  
BRANCH  13  14
HETATM   14  C   UNL     1      -8.211  11.883  67.639  1.00  0.00    -0.148 C  
BRANCH  14  15
HETATM   15  C   UNL     1      -7.961  13.177  68.361  1.00  0.00    -0.130 C  
HETATM   16  C   UNL     1      -8.842  14.192  68.379  1.00  0.00    -0.187 C  
BRANCH  16  17
HETATM   17  C   UNL     1     -10.146  14.187  67.639  1.00  0.00    -0.236 C  
BRANCH  17  18
HETATM   18  C   UNL     1     -10.309  15.364  66.717  1.00  0.00    -0.279 C  
HETATM   19  C   UNL     1     -10.516  15.229  65.395  1.00  0.00    -0.422 C  
BRANCH  19  20
HETATM   20  C   UNL     1     -10.613  13.875  64.744  1.00  0.00    -0.444 C  
BRANCH  20  21
HETATM   21  C   UNL     1     -12.031  13.346  64.567  1.00  0.00    -0.452 C  
HETATM   22  C   UNL     1     -11.981  12.068  63.758  1.00  0.00    -0.490 C  
HETATM   23  O   UNL     1     -13.135  11.818  63.093  1.00  0.00    -0.568 OA 
HETATM   24  O   UNL     1     -11.032  11.306  63.708  1.00  0.00    -0.387 OA 
ENDBRANCH  20  21
ENDBRANCH  19  20
ENDBRANCH  17  18
ENDBRANCH  16  17
ENDBRANCH  14  15
ENDBRANCH  13  14
ENDBRANCH  11  12
ENDBRANCH  10  11
ENDBRANCH   8   9
ENDBRANCH   7   8
ENDBRANCH   5   6
ENDBRANCH   4   5
ENDBRANCH   2   3
TORSDOF 13
ENDMDL
MODEL      262
REMARK 921   NORMALIZED FREE ENERGY PREDICTED BY IDOCK:   -3.68 KCAL/MOL
REMARK 922        TOTAL FREE ENERGY PREDICTED BY IDOCK:   -9.25 KCAL/MOL
REMARK 923 INTER-LIGAND FREE ENERGY PREDICTED BY IDOCK:   -6.96 KCAL/MOL
REMARK 924 INTRA-LIGAND FREE ENERGY PREDICTED BY IDOCK:   -2.28 KCAL/MOL
REMARK 927      BINDING AFFINITY PREDICTED BY RF-SCORE:    0.00 PKD
ROOT
HETATM    1  C   UNL     1      -7.957  16.310  68.899  1.00  0.00    -0.230 C  
HETATM    2  C   UNL     1      -6.909  17.348  68.530  1.00  0.00    -0.203 C  
ENDROOT
BRANCH   2   3
HETATM    3  C   UNL     1      -7.140  18.668  69.210  1.00  0.00    -0.189 C  
HETATM    4  C   UNL     1      -7.833  19.698  68.694  1.00  0.00    -0.349 C  
BRANCH   4   5
HETATM    5  C   UNL     1      -8.419  19.749  67.311  1.00  0.00    -0.363 C  
BRANCH   5   6
HETATM    6  C   UNL     1      -9.923  19.741  67.338  1.00  0.00    -0.531 C  
HETATM    7  C   UNL     1     -10.718  18.722  66.966  1.00  0.00    -0.435 C  
BRANCH   7   8
HETATM    8  C   UNL     1     -10.226  17.413  66.422  1.00  0.00    -0.339 C  
BRANCH   8   9
HETATM    9  C   UNL     1     -10.939  17.009  65.165  1.00  0.00    -0.016 C  
HETATM   10  C   UNL     1     -11.043  15.764  64.668  1.00  0.00    -0.376 C  
BRANCH  10  11
HETATM   11  C   UNL     1     -10.537  14.493  65.294  1.00  0.00    -0.400 C  
BRANCH  11  12
HETATM   12  C   UNL     1     -11.615  13.466  65.505  1.00  0.00    -0.346 C  
HETATM   13  C   UNL     1     -11.980  12.913  66.672  1.00  0.00    -0.436 C  
BRANCH  13  14
HETATM   14  C   UNL     1     -11.325  13.164  67.990  1.00  0.00    -0.327 C  
BRANCH  14  15
HETATM   15  C   UNL     1     -11.839  12.270  69.084  1.00  0.00    -0.355 C  
HETATM   16  C   UNL     1     -11.295  11.075  69.375  1.00  0.00    -0.352 C  
BRANCH  16  17
HETATM   17  C   UNL     1     -10.158  10.461  68.614  1.00  0.00    -0.188 C  
BRANCH  17  18
HETATM   18  C   UNL     1     -10.532   9.181  67.920  1.00  0.00    -0.293 C  
HETATM   19  C   UNL     1     -10.406   9.009  66.592  1.00  0.00    -0.289 C  
BRANCH  19  20
HETATM   20  C   UNL     1      -9.863  10.096  65.703  1.00  0.00    -0.347 C  
BRANCH  20  21
HETATM   21  C   UNL     1      -8.740   9.661  64.768  1.00  0.00    -0.219 C  
HETATM   22  C   UNL     1      -7.420  10.144  65.328  1.00  0.00    -0.145 C  
HETATM   23  O   UNL     1      -6.469  10.307  64.376  1.00  0.00    -0.130 OA 
HETATM   24  O   UNL     1      -7.191  10.349  66.507  1.00  0.00    -0.105 OA 
ENDBRANCH  20  21
ENDBRANCH  19  20
ENDBRANCH  17  18
ENDBRANCH  16  17
ENDBRANCH  14  15
ENDBRANCH  13  14
ENDBRANCH  11  12
ENDBRANCH  10  11
ENDBRANCH   8   9
ENDBRANCH   7   8
ENDBRANCH   5   6
ENDBRANCH   4   5
ENDBRANCH   2   3
TORSDOF 13
ENDMDL
MODEL      263
REMARK 921   NORMALIZED FREE ENERGY PREDICTED BY IDOCK:   -3.67 KCAL/MOL
REMARK 922        TOTAL FREE ENERGY PREDICTED BY IDOCK:   -9.24 KCAL/MOL
REMARK 923 INTER-LIGAND FREE ENERGY PREDICTED BY IDOCK:   -6.15 KCAL/MOL
REMARK 924 INTRA-LIGAND FREE ENERGY PREDICTED BY IDOCK:   -3.09 KCAL/MOL
REMARK 927      BINDING AFFINITY PREDICTED BY RF-SCORE:    0.00 PKD
ROOT
HETATM    1  C   UNL     1      -9.432  13.100  67.070  1.00  0.00    -0.242 C  
HETATM    2  C   UNL     1      -9.698  11.749  67.713  1.00  0.00    -0.185 C  
ENDROOT
BRANCH   2   3
HETATM    3  C   UNL     1     -10.611  10.887  66.888  1.00  0.00    -0.312 C  
HETATM    4  C   UNL     1     -10.727   9.553  66.994  1.00  0.00    -0.220 C  
BRANCH   4   5
HETATM    5  C   UNL     1      -9.899   8.673  67.888  1.00  0.00    -0.211 C  
BRANCH   5   6
HETATM    6  C   UNL     1     -10.753   7.761  68.725  1.00  0.00    -0.093 C  
HETATM    7  C   UNL     1     -11.069   6.485  68.441  1.00  0.00    -0.340 C  
BRANCH   7   8
HETATM    8  C   UNL     1     -10.639   5.759  67.200  1.00  0.00    -0.365 C  
BRANCH   8   9
HETATM    9  C   UNL     1      -9.697   4.628  67.493  1.00  0.00    -0.213 C  
HETATM   10  C   UNL     1      -8.367   4.717  67.665  1.00  0.00    -0.104 C  
BRANCH  10  11
HETATM   11  C   UNL     1      -7.537   5.973  67.677  1.00  0.00    -0.090 C  
BRANCH  11  12
HETATM   12  C   UNL     1      -6.552   6.021  68.813  1.00  0.00    -0.055 C  
HETATM   13  C   UNL     1      -6.837   6.166  70.117  1.00  0.00    -0.057 C  
BRANCH  13  14
HETATM   14  C   UNL     1      -8.200   6.383  70.685  1.00  0.00    -0.125 C  
BRANCH  14  15
HETATM   15  C   UNL     1      -8.811   5.130  71.248  1.00  0.00    -0.149 C  
HETATM   16  C   UNL     1      -9.947   5.122  71.967  1.00  0.00    -0.240 C  
BRANCH  16  17
HETATM   17  C   UNL     1     -10.708   6.356  72.348  1.00  0.00    -0.255 C  
BRANCH  17  18
HETATM   18  C   UNL     1     -12.136   6.342  71.877  1.00  0.00    -0.362 C  
HETATM   19  C   UNL     1     -12.865   7.463  71.730  1.00  0.00    -0.365 C  
BRANCH  19  20
HETATM   20  C   UNL     1     -12.290   8.824  72.019  1.00  0.00    -0.444 C  
BRANCH  20  21
HETATM   21  C   UNL     1     -13.304   9.961  72.036  1.00  0.00    -0.532 C  
HETATM   22  C   UNL     1     -12.688  11.179  71.381  1.00  0.00    -0.418 C  
HETATM   23  O   UNL     1     -13.235  12.342  71.807  1.00  0.00    -0.440 OA 
HETATM   24  O   UNL     1     -11.812  11.152  70.535  1.00  0.00    -0.337 OA 
ENDBRANCH  20  21
ENDBRANCH  19  20
ENDBRANCH  17  18
ENDBRANCH  16  17
ENDBRANCH  14  15
ENDBRANCH  13  14
ENDBRANCH  11  12
ENDBRANCH  10  11
ENDBRANCH   8   9
ENDBRANCH   7   8
ENDBRANCH   5   6
ENDBRANCH   4   5
ENDBRANCH   2   3
TORSDOF 13
ENDMDL
MODEL      264
REMARK 921   NORMALIZED FREE ENERGY PREDICTED BY IDOCK:   -3.66 KCAL/MOL
REMARK 922        TOTAL FREE ENERGY PREDICTED BY IDOCK:   -9.22 KCAL/MOL
REMARK 923 INTER-LIGAND FREE ENERGY PREDICTED BY IDOCK:   -6.86 KCAL/MOL
REMARK 924 INTRA-LIGAND FREE ENERGY PREDICTED BY IDOCK:   -2.37 KCAL/MOL
REMARK 927      BINDING AFFINITY PREDICTED BY RF-SCORE:    0.00 PKD
ROOT
HETATM    1  C   UNL     1     -12.271  13.369  64.863  1.00  0.00    -0.450 C  
HETATM    2  C   UNL     1     -11.628  12.861  66.143  1.00  0.00    -0.423 C  
ENDROOT
BRANCH   2   3
HETATM    3  C   UNL     1     -11.884  13.766  67.315  1.00  0.00    -0.436 C  
HETATM    4  C   UNL     1     -11.744  13.424  68.607  1.00  0.00    -0.384 C  
BRANCH   4   5
HETATM    5  C   UNL     1     -11.396  12.052  69.114  1.00  0.00    -0.338 C  
BRANCH   5   6
HETATM    6  C   UNL     1     -12.164  11.702  70.360  1.00  0.00    -0.434 C  
HETATM    7  C   UNL     1     -12.101  10.539  71.031  1.00  0.00    -0.492 C  
BRANCH   7   8
HETATM    8  C   UNL     1     -11.262   9.365  70.622  1.00  0.00    -0.345 C  
BRANCH   8   9
HETATM    9  C   UNL     1     -10.945   8.455  71.772  1.00  0.00    -0.359 C  
HETATM   10  C   UNL     1     -10.414   7.223  71.696  1.00  0.00    -0.218 C  
BRANCH  10  11
HETATM   11  C   UNL     1      -9.949   6.511  70.455  1.00  0.00    -0.202 C  
BRANCH  11  12
HETATM   12  C   UNL     1     -11.076   6.113  69.542  1.00  0.00    -0.490 C  
HETATM   13  C   UNL     1     -11.146   6.318  68.217  1.00  0.00    -0.364 C  
BRANCH  13  14
HETATM   14  C   UNL     1     -10.138   7.057  67.402  1.00  0.00    -0.252 C  
BRANCH  14  15
HETATM   15  C   UNL     1     -10.444   8.523  67.271  1.00  0.00    -0.366 C  
HETATM   16  C   UNL     1      -9.884   9.313  66.339  1.00  0.00    -0.347 C  
BRANCH  16  17
HETATM   17  C   UNL     1      -8.845   8.852  65.361  1.00  0.00    -0.234 C  
BRANCH  17  18
HETATM   18  C   UNL     1      -7.991   9.970  64.830  1.00  0.00    -0.140 C  
HETATM   19  C   UNL     1      -6.831  10.335  65.405  1.00  0.00    -0.140 C  
BRANCH  19  20
HETATM   20  C   UNL     1      -6.296   9.631  66.624  1.00  0.00    -0.066 C  
BRANCH  20  21
HETATM   21  C   UNL     1      -6.564  10.340  67.946  1.00  0.00    -0.062 C  
HETATM   22  C   UNL     1      -7.334   9.407  68.856  1.00  0.00    -0.073 C  
HETATM   23  O   UNL     1      -8.077  10.064  69.780  1.00  0.00    -0.159 OA 
HETATM   24  O   UNL     1      -7.294   8.191  68.810  1.00  0.00    -0.084 OA 
ENDBRANCH  20  21
ENDBRANCH  19  20
ENDBRANCH  17  18
ENDBRANCH  16  17
ENDBRANCH  14  15
ENDBRANCH  13  14
ENDBRANCH  11  12
ENDBRANCH  10  11
ENDBRANCH   8   9
ENDBRANCH   7   8
ENDBRANCH   5   6
ENDBRANCH   4   5
ENDBRANCH   2   3
TORSDOF 13
ENDMDL
MODEL      265
REMARK 921   NORMALIZED FREE ENERGY PREDICTED BY IDOCK:   -3.66 KCAL/MOL
REMARK 922        TOTAL FREE ENERGY PREDICTED BY IDOCK:   -9.22 KCAL/MOL
REMARK 923 INTER-LIGAND FREE ENERGY PREDICTED BY IDOCK:   -6.26 KCAL/MOL
REMARK 924 INTRA-LIGAND FREE ENERGY PREDICTED BY IDOCK:   -2.96 KCAL/MOL
REMARK 927      BINDING AFFINITY PREDICTED BY RF-SCORE:    0.00 PKD
ROOT
HETATM    1  C   UNL     1      -7.167   6.413  68.596  1.00  0.00    -0.085 C  
HETATM    2  C   UNL     1      -7.598   7.117  67.320  1.00  0.00    -0.104 C  
ENDROOT
BRANCH   2   3
HETATM    3  C   UNL     1      -8.719   6.403  66.619  1.00  0.00    -0.127 C  
HETATM    4  C   UNL     1     -10.021   6.493  66.941  1.00  0.00    -0.227 C  
BRANCH   4   5
HETATM    5  C   UNL     1     -10.579   7.246  68.115  1.00  0.00    -0.228 C  
BRANCH   5   6
HETATM    6  C   UNL     1     -11.286   6.336  69.082  1.00  0.00    -0.439 C  
HETATM    7  C   UNL     1     -11.464   6.557  70.396  1.00  0.00    -0.465 C  
BRANCH   7   8
HETATM    8  C   UNL     1     -10.948   7.757  71.134  1.00  0.00    -0.259 C  
BRANCH   8   9
HETATM    9  C   UNL     1     -11.932   8.283  72.138  1.00  0.00    -0.429 C  
HETATM   10  C   UNL     1     -12.781   9.310  71.965  1.00  0.00    -0.479 C  
BRANCH  10  11
HETATM   11  C   UNL     1     -12.989  10.113  70.710  1.00  0.00    -0.380 C  
BRANCH  11  12
HETATM   12  C   UNL     1     -11.956  11.188  70.516  1.00  0.00    -0.475 C  
HETATM   13  C   UNL     1     -11.365  11.534  69.361  1.00  0.00    -0.355 C  
BRANCH  13  14
HETATM   14  C   UNL     1     -11.571  10.856  68.047  1.00  0.00    -0.295 C  
BRANCH  14  15
HETATM   15  C   UNL     1     -11.314  11.757  66.872  1.00  0.00    -0.386 C  
HETATM   16  C   UNL     1     -10.650  11.362  65.771  1.00  0.00    -0.315 C  
BRANCH  16  17
HETATM   17  C   UNL     1     -10.034  10.006  65.604  1.00  0.00    -0.355 C  
BRANCH  17  18
HETATM   18  C   UNL     1      -8.700  10.042  64.909  1.00  0.00    -0.201 C  
HETATM   19  C   UNL     1      -7.560  10.375  65.541  1.00  0.00    -0.144 C  
BRANCH  19  20
HETATM   20  C   UNL     1      -7.540  10.723  67.005  1.00  0.00    -0.114 C  
BRANCH  20  21
HETATM   21  C   UNL     1      -7.154  12.163  67.319  1.00  0.00    -0.144 C  
HETATM   22  C   UNL     1      -6.673  12.242  68.752  1.00  0.00    -0.089 C  
HETATM   23  O   UNL     1      -6.826  13.475  69.294  1.00  0.00    -0.106 OA 
HETATM   24  O   UNL     1      -6.171  11.324  69.375  1.00  0.00    -0.064 OA 
ENDBRANCH  20  21
ENDBRANCH  19  20
ENDBRANCH  17  18
ENDBRANCH  16  17
ENDBRANCH  14  15
ENDBRANCH  13  14
ENDBRANCH  11  12
ENDBRANCH  10  11
ENDBRANCH   8   9
ENDBRANCH   7   8
ENDBRANCH   5   6
ENDBRANCH   4   5
ENDBRANCH   2   3
TORSDOF 13
ENDMDL
MODEL      266
REMARK 921   NORMALIZED FREE ENERGY PREDICTED BY IDOCK:   -3.66 KCAL/MOL
REMARK 922        TOTAL FREE ENERGY PREDICTED BY IDOCK:   -9.21 KCAL/MOL
REMARK 923 INTER-LIGAND FREE ENERGY PREDICTED BY IDOCK:   -6.49 KCAL/MOL
REMARK 924 INTRA-LIGAND FREE ENERGY PREDICTED BY IDOCK:   -2.72 KCAL/MOL
REMARK 927      BINDING AFFINITY PREDICTED BY RF-SCORE:    0.00 PKD
ROOT
HETATM    1  C   UNL     1      -7.864   9.997  69.951  1.00  0.00    -0.185 C  
HETATM    2  C   UNL     1      -7.145  10.733  68.833  1.00  0.00    -0.082 C  
ENDROOT
BRANCH   2   3
HETATM    3  C   UNL     1      -6.137  11.722  69.349  1.00  0.00    -0.090 C  
HETATM    4  C   UNL     1      -6.229  13.058  69.234  1.00  0.00    -0.103 C  
BRANCH   4   5
HETATM    5  C   UNL     1      -7.305  13.798  68.490  1.00  0.00    -0.117 C  
BRANCH   5   6
HETATM    6  C   UNL     1      -7.799  14.992  69.259  1.00  0.00    -0.190 C  
HETATM    7  C   UNL     1      -7.948  16.240  68.780  1.00  0.00    -0.221 C  
BRANCH   7   8
HETATM    8  C   UNL     1      -7.607  16.660  67.380  1.00  0.00    -0.191 C  
BRANCH   8   9
HETATM    9  C   UNL     1      -8.607  17.623  66.809  1.00  0.00    -0.276 C  
HETATM   10  C   UNL     1      -9.734  17.310  66.147  1.00  0.00    -0.243 C  
BRANCH  10  11
HETATM   11  C   UNL     1     -10.284  15.932  65.896  1.00  0.00    -0.373 C  
BRANCH  11  12
HETATM   12  C   UNL     1     -11.181  15.862  64.691  1.00  0.00    -0.361 C  
HETATM   13  C   UNL     1     -12.099  14.919  64.428  1.00  0.00    -0.417 C  
BRANCH  13  14
HETATM   14  C   UNL     1     -12.354  13.704  65.257  1.00  0.00    -0.498 C  
BRANCH  14  15
HETATM   15  C   UNL     1     -12.348  12.431  64.457  1.00  0.00    -0.519 C  
HETATM   16  C   UNL     1     -11.423  11.468  64.611  1.00  0.00    -0.168 C  
BRANCH  16  17
HETATM   17  C   UNL     1     -10.256  11.566  65.547  1.00  0.00    -0.303 C  
BRANCH  17  18
HETATM   18  C   UNL     1     -10.188  10.431  66.531  1.00  0.00    -0.289 C  
HETATM   19  C   UNL     1     -10.795  10.470  67.731  1.00  0.00    -0.347 C  
BRANCH  19  20
HETATM   20  C   UNL     1     -11.605  11.662  68.168  1.00  0.00    -0.389 C  
BRANCH  20  21
HETATM   21  C   UNL     1     -10.792  12.908  68.494  1.00  0.00    -0.283 C  
HETATM   22  C   UNL     1     -11.631  13.831  69.352  1.00  0.00    -0.310 C  
HETATM   23  O   UNL     1     -11.262  15.130  69.248  1.00  0.00    -0.247 OA 
HETATM   24  O   UNL     1     -12.531  13.475  70.092  1.00  0.00    -0.290 OA 
ENDBRANCH  20  21
ENDBRANCH  19  20
ENDBRANCH  17  18
ENDBRANCH  16  17
ENDBRANCH  14  15
ENDBRANCH  13  14
ENDBRANCH  11  12
ENDBRANCH  10  11
ENDBRANCH   8   9
ENDBRANCH   7   8
ENDBRANCH   5   6
ENDBRANCH   4   5
ENDBRANCH   2   3
TORSDOF 13
ENDMDL
MODEL      267
REMARK 921   NORMALIZED FREE ENERGY PREDICTED BY IDOCK:   -3.66 KCAL/MOL
REMARK 922        TOTAL FREE ENERGY PREDICTED BY IDOCK:   -9.21 KCAL/MOL
REMARK 923 INTER-LIGAND FREE ENERGY PREDICTED BY IDOCK:   -5.49 KCAL/MOL
REMARK 924 INTRA-LIGAND FREE ENERGY PREDICTED BY IDOCK:   -3.72 KCAL/MOL
REMARK 927      BINDING AFFINITY PREDICTED BY RF-SCORE:    0.00 PKD
ROOT
HETATM    1  C   UNL     1      -7.975  16.861  66.651  1.00  0.00    -0.300 C  
HETATM    2  C   UNL     1      -8.755  15.557  66.647  1.00  0.00    -0.326 C  
ENDROOT
BRANCH   2   3
HETATM    3  C   UNL     1      -8.867  14.949  68.017  1.00  0.00    -0.167 C  
HETATM    4  C   UNL     1      -8.113  13.939  68.485  1.00  0.00    -0.133 C  
BRANCH   4   5
HETATM    5  C   UNL     1      -7.089  13.176  67.693  1.00  0.00    -0.162 C  
BRANCH   5   6
HETATM    6  C   UNL     1      -7.726  12.171  66.772  1.00  0.00     0.027 C  
HETATM    7  C   UNL     1      -7.511  10.844  66.775  1.00  0.00    -0.134 C  
BRANCH   7   8
HETATM    8  C   UNL     1      -6.557  10.138  67.693  1.00  0.00    -0.067 C  
BRANCH   8   9
HETATM    9  C   UNL     1      -6.019   8.869  67.099  1.00  0.00    -0.057 C  
HETATM   10  C   UNL     1      -6.604   7.660  67.128  1.00  0.00    -0.063 C  
BRANCH  10  11
HETATM   11  C   UNL     1      -7.957   7.321  67.692  1.00  0.00    -0.114 C  
BRANCH  11  12
HETATM   12  C   UNL     1      -9.093   7.742  66.801  1.00  0.00    -0.185 C  
HETATM   13  C   UNL     1     -10.240   8.325  67.185  1.00  0.00    -0.365 C  
BRANCH  13  14
HETATM   14  C   UNL     1     -10.640   8.600  68.597  1.00  0.00    -0.165 C  
BRANCH  14  15
HETATM   15  C   UNL     1      -9.980   9.824  69.169  1.00  0.00    -0.195 C  
HETATM   16  C   UNL     1     -10.509  11.056  69.079  1.00  0.00    -0.242 C  
BRANCH  16  17
HETATM   17  C   UNL     1     -11.780  11.375  68.351  1.00  0.00    -0.373 C  
BRANCH  17  18
HETATM   18  C   UNL     1     -11.751  12.711  67.662  1.00  0.00    -0.420 C  
HETATM   19  C   UNL     1     -11.388  12.858  66.375  1.00  0.00    -0.361 C  
BRANCH  19  20
HETATM   20  C   UNL     1     -10.997  11.680  65.524  1.00  0.00    -0.327 C  
BRANCH  20  21
HETATM   21  C   UNL     1     -10.723  12.006  64.061  1.00  0.00    -0.426 C  
HETATM   22  C   UNL     1      -9.703  11.026  63.522  1.00  0.00    -0.337 C  
HETATM   23  O   UNL     1      -8.999  11.518  62.475  1.00  0.00    -0.328 OA 
HETATM   24  O   UNL     1      -9.526   9.896  63.942  1.00  0.00    -0.273 OA 
ENDBRANCH  20  21
ENDBRANCH  19  20
ENDBRANCH  17  18
ENDBRANCH  16  17
ENDBRANCH  14  15
ENDBRANCH  13  14
ENDBRANCH  11  12
ENDBRANCH  10  11
ENDBRANCH   8   9
ENDBRANCH   7   8
ENDBRANCH   5   6
ENDBRANCH   4   5
ENDBRANCH   2   3
TORSDOF 13
ENDMDL
MODEL      268
REMARK 921   NORMALIZED FREE ENERGY PREDICTED BY IDOCK:   -3.65 KCAL/MOL
REMARK 922        TOTAL FREE ENERGY PREDICTED BY IDOCK:   -9.20 KCAL/MOL
REMARK 923 INTER-LIGAND FREE ENERGY PREDICTED BY IDOCK:   -6.50 KCAL/MOL
REMARK 924 INTRA-LIGAND FREE ENERGY PREDICTED BY IDOCK:   -2.69 KCAL/MOL
REMARK 927      BINDING AFFINITY PREDICTED BY RF-SCORE:    0.00 PKD
ROOT
HETATM    1  C   UNL     1     -11.371  16.171  68.675  1.00  0.00    -0.365 C  
HETATM    2  C   UNL     1     -11.005  15.274  69.846  1.00  0.00    -0.303 C  
ENDROOT
BRANCH   2   3
HETATM    3  C   UNL     1     -12.098  15.194  70.874  1.00  0.00    -0.388 C  
HETATM    4  C   UNL     1     -12.724  14.068  71.259  1.00  0.00    -0.439 C  
BRANCH   4   5
HETATM    5  C   UNL     1     -12.509  12.705  70.665  1.00  0.00    -0.323 C  
BRANCH   5   6
HETATM    6  C   UNL     1     -12.931  11.609  71.605  1.00  0.00    -0.483 C  
HETATM    7  C   UNL     1     -12.605  10.309  71.508  1.00  0.00    -0.544 C  
BRANCH   7   8
HETATM    8  C   UNL     1     -11.776   9.720  70.404  1.00  0.00    -0.301 C  
BRANCH   8   9
HETATM    9  C   UNL     1     -11.443   8.276  70.643  1.00  0.00    -0.236 C  
HETATM   10  C   UNL     1     -10.870   7.431  69.769  1.00  0.00    -0.246 C  
BRANCH  10  11
HETATM   11  C   UNL     1     -10.368   7.758  68.389  1.00  0.00    -0.231 C  
BRANCH  11  12
HETATM   12  C   UNL     1      -8.867   7.770  68.292  1.00  0.00    -0.129 C  
HETATM   13  C   UNL     1      -8.039   8.706  68.781  1.00  0.00    -0.116 C  
BRANCH  13  14
HETATM   14  C   UNL     1      -8.462   9.967  69.457  1.00  0.00    -0.186 C  
BRANCH  14  15
HETATM   15  C   UNL     1      -7.983  11.205  68.752  1.00  0.00    -0.144 C  
HETATM   16  C   UNL     1      -8.801  12.037  68.085  1.00  0.00    -0.182 C  
BRANCH  16  17
HETATM   17  C   UNL     1     -10.273  11.807  67.909  1.00  0.00    -0.203 C  
BRANCH  17  18
HETATM   18  C   UNL     1     -10.772  12.182  66.541  1.00  0.00    -0.290 C  
HETATM   19  C   UNL     1     -10.645  11.375  65.473  1.00  0.00    -0.328 C  
BRANCH  19  20
HETATM   20  C   UNL     1      -9.998  10.019  65.579  1.00  0.00    -0.367 C  
BRANCH  20  21
HETATM   21  C   UNL     1      -9.160   9.610  64.374  1.00  0.00    -0.279 C  
HETATM   22  C   UNL     1      -7.733  10.065  64.591  1.00  0.00    -0.146 C  
HETATM   23  O   UNL     1      -7.056  10.254  63.432  1.00  0.00    -0.137 OA 
HETATM   24  O   UNL     1      -7.206  10.228  65.677  1.00  0.00    -0.136 OA 
ENDBRANCH  20  21
ENDBRANCH  19  20
ENDBRANCH  17  18
ENDBRANCH  16  17
ENDBRANCH  14  15
ENDBRANCH  13  14
ENDBRANCH  11  12
ENDBRANCH  10  11
ENDBRANCH   8   9
ENDBRANCH   7   8
ENDBRANCH   5   6
ENDBRANCH   4   5
ENDBRANCH   2   3
TORSDOF 13
ENDMDL
MODEL      269
REMARK 921   NORMALIZED FREE ENERGY PREDICTED BY IDOCK:   -3.65 KCAL/MOL
REMARK 922        TOTAL FREE ENERGY PREDICTED BY IDOCK:   -9.19 KCAL/MOL
REMARK 923 INTER-LIGAND FREE ENERGY PREDICTED BY IDOCK:   -6.18 KCAL/MOL
REMARK 924 INTRA-LIGAND FREE ENERGY PREDICTED BY IDOCK:   -3.02 KCAL/MOL
REMARK 927      BINDING AFFINITY PREDICTED BY RF-SCORE:    0.00 PKD
ROOT
HETATM    1  C   UNL     1      -6.571  14.518  69.213  1.00  0.00    -0.125 C  
HETATM    2  C   UNL     1      -6.943  14.540  67.740  1.00  0.00    -0.194 C  
ENDROOT
BRANCH   2   3
HETATM    3  C   UNL     1      -8.058  13.587  67.412  1.00  0.00    -0.184 C  
HETATM    4  C   UNL     1      -7.944  12.250  67.343  1.00  0.00    -0.171 C  
BRANCH   4   5
HETATM    5  C   UNL     1      -6.664  11.475  67.487  1.00  0.00    -0.087 C  
BRANCH   5   6
HETATM    6  C   UNL     1      -6.013  11.212  66.156  1.00  0.00    -0.103 C  
HETATM    7  C   UNL     1      -6.466  10.380  65.202  1.00  0.00    -0.096 C  
BRANCH   7   8
HETATM    8  C   UNL     1      -7.701   9.537  65.323  1.00  0.00    -0.111 C  
BRANCH   8   9
HETATM    9  C   UNL     1      -8.455   9.432  64.030  1.00  0.00    -0.203 C  
HETATM   10  C   UNL     1      -9.539  10.143  63.675  1.00  0.00    -0.268 C  
BRANCH  10  11
HETATM   11  C   UNL     1     -10.193  11.250  64.457  1.00  0.00    -0.370 C  
BRANCH  11  12
HETATM   12  C   UNL     1     -10.623  12.408  63.598  1.00  0.00    -0.481 C  
HETATM   13  C   UNL     1     -11.667  13.223  63.815  1.00  0.00    -0.475 C  
BRANCH  13  14
HETATM   14  C   UNL     1     -12.657  13.084  64.924  1.00  0.00    -0.490 C  
BRANCH  14  15
HETATM   15  C   UNL     1     -12.348  13.964  66.103  1.00  0.00    -0.504 C  
HETATM   16  C   UNL     1     -11.911  13.490  67.282  1.00  0.00    -0.427 C  
BRANCH  16  17
HETATM   17  C   UNL     1     -11.736  12.032  67.589  1.00  0.00    -0.365 C  
BRANCH  17  18
HETATM   18  C   UNL     1     -11.171  11.778  68.959  1.00  0.00    -0.324 C  
HETATM   19  C   UNL     1     -10.603  10.609  69.306  1.00  0.00    -0.263 C  
BRANCH  19  20
HETATM   20  C   UNL     1     -10.482   9.468  68.332  1.00  0.00    -0.261 C  
BRANCH  20  21
HETATM   21  C   UNL     1      -9.267   8.572  68.537  1.00  0.00    -0.135 C  
HETATM   22  C   UNL     1      -9.707   7.297  69.224  1.00  0.00    -0.161 C  
HETATM   23  O   UNL     1      -8.711   6.704  69.925  1.00  0.00    -0.138 OA 
HETATM   24  O   UNL     1     -10.822   6.811  69.153  1.00  0.00    -0.238 OA 
ENDBRANCH  20  21
ENDBRANCH  19  20
ENDBRANCH  17  18
ENDBRANCH  16  17
ENDBRANCH  14  15
ENDBRANCH  13  14
ENDBRANCH  11  12
ENDBRANCH  10  11
ENDBRANCH   8   9
ENDBRANCH   7   8
ENDBRANCH   5   6
ENDBRANCH   4   5
ENDBRANCH   2   3
TORSDOF 13
ENDMDL
MODEL      270
REMARK 921   NORMALIZED FREE ENERGY PREDICTED BY IDOCK:   -3.64 KCAL/MOL
REMARK 922        TOTAL FREE ENERGY PREDICTED BY IDOCK:   -9.19 KCAL/MOL
REMARK 923 INTER-LIGAND FREE ENERGY PREDICTED BY IDOCK:   -6.74 KCAL/MOL
REMARK 924 INTRA-LIGAND FREE ENERGY PREDICTED BY IDOCK:   -2.44 KCAL/MOL
REMARK 927      BINDING AFFINITY PREDICTED BY RF-SCORE:    0.00 PKD
ROOT
HETATM    1  C   UNL     1     -10.670   4.825  72.553  1.00  0.00    -0.240 C  
HETATM    2  C   UNL     1     -10.918   6.321  72.444  1.00  0.00    -0.291 C  
ENDROOT
BRANCH   2   3
HETATM    3  C   UNL     1     -11.985   6.658  71.442  1.00  0.00    -0.405 C  
HETATM    4  C   UNL     1     -11.786   6.838  70.125  1.00  0.00    -0.321 C  
BRANCH   4   5
HETATM    5  C   UNL     1     -10.451   6.829  69.435  1.00  0.00    -0.244 C  
BRANCH   5   6
HETATM    6  C   UNL     1     -10.594   6.799  67.937  1.00  0.00    -0.296 C  
HETATM    7  C   UNL     1     -10.525   7.858  67.112  1.00  0.00    -0.414 C  
BRANCH   7   8
HETATM    8  C   UNL     1     -10.324   9.276  67.561  1.00  0.00    -0.323 C  
BRANCH   8   9
HETATM    9  C   UNL     1      -8.888   9.583  67.870  1.00  0.00    -0.119 C  
HETATM   10  C   UNL     1      -8.282  10.777  67.757  1.00  0.00    -0.112 C  
BRANCH  10  11
HETATM   11  C   UNL     1      -8.919  12.084  67.370  1.00  0.00    -0.176 C  
BRANCH  11  12
HETATM   12  C   UNL     1      -9.601  12.775  68.519  1.00  0.00    -0.113 C  
HETATM   13  C   UNL     1     -10.920  12.975  68.666  1.00  0.00    -0.297 C  
BRANCH  13  14
HETATM   14  C   UNL     1     -11.967  12.609  67.668  1.00  0.00    -0.309 C  
BRANCH  14  15
HETATM   15  C   UNL     1     -12.406  13.772  66.821  1.00  0.00    -0.365 C  
HETATM   16  C   UNL     1     -12.597  13.686  65.493  1.00  0.00    -0.541 C  
BRANCH  16  17
HETATM   17  C   UNL     1     -12.339  12.450  64.685  1.00  0.00    -0.518 C  
BRANCH  17  18
HETATM   18  C   UNL     1     -11.441  12.690  63.503  1.00  0.00    -0.557 C  
HETATM   19  C   UNL     1     -10.244  12.091  63.365  1.00  0.00    -0.457 C  
BRANCH  19  20
HETATM   20  C   UNL     1      -9.724  11.117  64.388  1.00  0.00    -0.312 C  
BRANCH  20  21
HETATM   21  C   UNL     1      -9.450   9.714  63.861  1.00  0.00     0.040 C  
HETATM   22  C   UNL     1      -7.958   9.546  63.666  1.00  0.00    -0.141 C  
HETATM   23  O   UNL     1      -7.649   8.613  62.733  1.00  0.00    -0.104 OA 
HETATM   24  O   UNL     1      -7.098  10.148  64.283  1.00  0.00    -0.130 OA 
ENDBRANCH  20  21
ENDBRANCH  19  20
ENDBRANCH  17  18
ENDBRANCH  16  17
ENDBRANCH  14  15
ENDBRANCH  13  14
ENDBRANCH  11  12
ENDBRANCH  10  11
ENDBRANCH   8   9
ENDBRANCH   7   8
ENDBRANCH   5   6
ENDBRANCH   4   5
ENDBRANCH   2   3
TORSDOF 13
ENDMDL
MODEL      271
REMARK 921   NORMALIZED FREE ENERGY PREDICTED BY IDOCK:   -3.64 KCAL/MOL
REMARK 922        TOTAL FREE ENERGY PREDICTED BY IDOCK:   -9.18 KCAL/MOL
REMARK 923 INTER-LIGAND FREE ENERGY PREDICTED BY IDOCK:   -6.98 KCAL/MOL
REMARK 924 INTRA-LIGAND FREE ENERGY PREDICTED BY IDOCK:   -2.20 KCAL/MOL
REMARK 927      BINDING AFFINITY PREDICTED BY RF-SCORE:    0.00 PKD
ROOT
HETATM    1  C   UNL     1     -13.147  14.756  72.853  1.00  0.00    -0.596 C  
HETATM    2  C   UNL     1     -13.002  14.312  71.406  1.00  0.00    -0.411 C  
ENDROOT
BRANCH   2   3
HETATM    3  C   UNL     1     -12.476  15.404  70.518  1.00  0.00    -0.468 C  
HETATM    4  C   UNL     1     -12.132  15.259  69.227  1.00  0.00    -0.280 C  
BRANCH   4   5
HETATM    5  C   UNL     1     -12.123  13.963  68.467  1.00  0.00    -0.331 C  
BRANCH   5   6
HETATM    6  C   UNL     1     -10.814  13.237  68.610  1.00  0.00    -0.285 C  
HETATM    7  C   UNL     1     -10.656  11.919  68.826  1.00  0.00    -0.234 C  
BRANCH   7   8
HETATM    8  C   UNL     1     -11.783  10.943  68.995  1.00  0.00    -0.391 C  
BRANCH   8   9
HETATM    9  C   UNL     1     -12.560  11.175  70.258  1.00  0.00    -0.288 C  
HETATM   10  C   UNL     1     -12.499  10.441  71.382  1.00  0.00    -0.521 C  
BRANCH  10  11
HETATM   11  C   UNL     1     -11.590   9.273  71.654  1.00  0.00    -0.463 C  
BRANCH  11  12
HETATM   12  C   UNL     1     -12.332   7.995  71.933  1.00  0.00    -0.360 C  
HETATM   13  C   UNL     1     -12.163   6.817  71.312  1.00  0.00    -0.415 C  
BRANCH  13  14
HETATM   14  C   UNL     1     -11.246   6.570  70.161  1.00  0.00    -0.437 C  
BRANCH  14  15
HETATM   15  C   UNL     1      -9.814   6.380  70.578  1.00  0.00    -0.207 C  
HETATM   16  C   UNL     1      -8.839   7.259  70.287  1.00  0.00    -0.147 C  
BRANCH  16  17
HETATM   17  C   UNL     1      -9.041   8.497  69.465  1.00  0.00    -0.150 C  
BRANCH  17  18
HETATM   18  C   UNL     1      -7.950   8.722  68.455  1.00  0.00    -0.112 C  
HETATM   19  C   UNL     1      -8.067   8.362  67.164  1.00  0.00    -0.104 C  
BRANCH  19  20
HETATM   20  C   UNL     1      -9.318   7.714  66.635  1.00  0.00    -0.239 C  
BRANCH  20  21
HETATM   21  C   UNL     1      -9.299   6.191  66.623  1.00  0.00    -0.161 C  
HETATM   22  C   UNL     1      -8.631   5.718  65.349  1.00  0.00    -0.143 C  
HETATM   23  O   UNL     1      -9.028   4.478  64.974  1.00  0.00    -0.139 OA 
HETATM   24  O   UNL     1      -7.800   6.346  64.718  1.00  0.00    -0.099 OA 
ENDBRANCH  20  21
ENDBRANCH  19  20
ENDBRANCH  17  18
ENDBRANCH  16  17
ENDBRANCH  14  15
ENDBRANCH  13  14
ENDBRANCH  11  12
ENDBRANCH  10  11
ENDBRANCH   8   9
ENDBRANCH   7   8
ENDBRANCH   5   6
ENDBRANCH   4   5
ENDBRANCH   2   3
TORSDOF 13
ENDMDL
MODEL      272
REMARK 921   NORMALIZED FREE ENERGY PREDICTED BY IDOCK:   -3.63 KCAL/MOL
REMARK 922        TOTAL FREE ENERGY PREDICTED BY IDOCK:   -9.17 KCAL/MOL
REMARK 923 INTER-LIGAND FREE ENERGY PREDICTED BY IDOCK:   -7.08 KCAL/MOL
REMARK 924 INTRA-LIGAND FREE ENERGY PREDICTED BY IDOCK:   -2.09 KCAL/MOL
REMARK 927      BINDING AFFINITY PREDICTED BY RF-SCORE:    0.00 PKD
ROOT
HETATM    1  C   UNL     1      -8.628   4.886  68.575  1.00  0.00    -0.099 C  
HETATM    2  C   UNL     1      -7.669   4.636  69.727  1.00  0.00    -0.058 C  
ENDROOT
BRANCH   2   3
HETATM    3  C   UNL     1      -7.712   5.726  70.760  1.00  0.00    -0.093 C  
HETATM    4  C   UNL     1      -8.588   5.801  71.776  1.00  0.00    -0.131 C  
BRANCH   4   5
HETATM    5  C   UNL     1      -9.739   4.862  72.007  1.00  0.00    -0.219 C  
BRANCH   5   6
HETATM    6  C   UNL     1     -10.990   5.595  72.408  1.00  0.00    -0.311 C  
HETATM    7  C   UNL     1     -11.758   6.353  71.607  1.00  0.00    -0.367 C  
BRANCH   7   8
HETATM    8  C   UNL     1     -11.470   6.623  70.159  1.00  0.00    -0.444 C  
BRANCH   8   9
HETATM    9  C   UNL     1     -10.908   7.995  69.931  1.00  0.00    -0.217 C  
HETATM   10  C   UNL     1     -10.513   8.514  68.756  1.00  0.00    -0.208 C  
BRANCH  10  11
HETATM   11  C   UNL     1     -10.614   7.869  67.400  1.00  0.00    -0.342 C  
BRANCH  11  12
HETATM   12  C   UNL     1      -9.385   8.064  66.557  1.00  0.00    -0.261 C  
HETATM   13  C   UNL     1      -9.113   9.114  65.765  1.00  0.00    -0.265 C  
BRANCH  13  14
HETATM   14  C   UNL     1     -10.028  10.265  65.511  1.00  0.00    -0.364 C  
BRANCH  14  15
HETATM   15  C   UNL     1     -10.016  10.725  64.080  1.00  0.00    -0.403 C  
HETATM   16  C   UNL     1     -10.853  11.659  63.598  1.00  0.00    -0.503 C  
BRANCH  16  17
HETATM   17  C   UNL     1     -11.938  12.311  64.403  1.00  0.00    -0.473 C  
BRANCH  17  18
HETATM   18  C   UNL     1     -12.151  13.757  64.050  1.00  0.00    -0.448 C  
HETATM   19  C   UNL     1     -11.623  14.766  64.767  1.00  0.00    -0.418 C  
BRANCH  19  20
HETATM   20  C   UNL     1     -10.763  14.512  65.976  1.00  0.00    -0.306 C  
BRANCH  20  21
HETATM   21  C   UNL     1     -11.505  14.523  67.307  1.00  0.00    -0.381 C  
HETATM   22  C   UNL     1     -11.091  13.309  68.111  1.00  0.00    -0.259 C  
HETATM   23  O   UNL     1     -12.030  12.922  69.007  1.00  0.00    -0.295 OA 
HETATM   24  O   UNL     1     -10.023  12.732  68.009  1.00  0.00    -0.212 OA 
ENDBRANCH  20  21
ENDBRANCH  19  20
ENDBRANCH  17  18
ENDBRANCH  16  17
ENDBRANCH  14  15
ENDBRANCH  13  14
ENDBRANCH  11  12
ENDBRANCH  10  11
ENDBRANCH   8   9
ENDBRANCH   7   8
ENDBRANCH   5   6
ENDBRANCH   4   5
ENDBRANCH   2   3
TORSDOF 13
ENDMDL
MODEL      273
REMARK 921   NORMALIZED FREE ENERGY PREDICTED BY IDOCK:   -3.63 KCAL/MOL
REMARK 922        TOTAL FREE ENERGY PREDICTED BY IDOCK:   -9.16 KCAL/MOL
REMARK 923 INTER-LIGAND FREE ENERGY PREDICTED BY IDOCK:   -6.83 KCAL/MOL
REMARK 924 INTRA-LIGAND FREE ENERGY PREDICTED BY IDOCK:   -2.33 KCAL/MOL
REMARK 927      BINDING AFFINITY PREDICTED BY RF-SCORE:    0.00 PKD
ROOT
HETATM    1  C   UNL     1      -8.367   6.896  71.708  1.00  0.00    -0.108 C  
HETATM    2  C   UNL     1      -8.883   8.119  72.447  1.00  0.00    -0.260 C  
ENDROOT
BRANCH   2   3
HETATM    3  C   UNL     1     -10.110   7.824  73.263  1.00  0.00    -0.374 C  
HETATM    4  C   UNL     1     -11.365   7.760  72.786  1.00  0.00    -0.446 C  
BRANCH   4   5
HETATM    5  C   UNL     1     -11.778   8.062  71.373  1.00  0.00    -0.320 C  
BRANCH   5   6
HETATM    6  C   UNL     1     -12.080   9.522  71.176  1.00  0.00    -0.429 C  
HETATM    7  C   UNL     1     -11.345  10.397  70.467  1.00  0.00    -0.424 C  
BRANCH   7   8
HETATM    8  C   UNL     1     -10.061  10.060  69.769  1.00  0.00    -0.284 C  
BRANCH   8   9
HETATM    9  C   UNL     1     -10.247   9.046  68.678  1.00  0.00    -0.226 C  
HETATM   10  C   UNL     1     -10.562   9.297  67.396  1.00  0.00    -0.324 C  
BRANCH  10  11
HETATM   11  C   UNL     1     -10.724  10.646  66.750  1.00  0.00    -0.272 C  
BRANCH  11  12
HETATM   12  C   UNL     1     -10.229  10.686  65.330  1.00  0.00    -0.351 C  
HETATM   13  C   UNL     1      -9.030  10.277  64.886  1.00  0.00    -0.231 C  
BRANCH  13  14
HETATM   14  C   UNL     1      -7.919   9.767  65.742  1.00  0.00    -0.116 C  
BRANCH  14  15
HETATM   15  C   UNL     1      -6.754  10.713  65.823  1.00  0.00    -0.097 C  
HETATM   16  C   UNL     1      -6.622  11.640  66.788  1.00  0.00    -0.094 C  
BRANCH  16  17
HETATM   17  C   UNL     1      -7.641  11.887  67.860  1.00  0.00    -0.128 C  
BRANCH  17  18
HETATM   18  C   UNL     1      -7.587  13.282  68.420  1.00  0.00    -0.137 C  
HETATM   19  C   UNL     1      -8.559  14.188  68.211  1.00  0.00    -0.175 C  
BRANCH  19  20
HETATM   20  C   UNL     1      -9.787  13.859  67.406  1.00  0.00    -0.237 C  
BRANCH  20  21
HETATM   21  C   UNL     1     -10.586  15.065  66.927  1.00  0.00    -0.297 C  
HETATM   22  C   UNL     1     -10.492  15.149  65.419  1.00  0.00    -0.393 C  
HETATM   23  O   UNL     1     -10.671  16.406  64.947  1.00  0.00    -0.675 OA 
HETATM   24  O   UNL     1     -10.304  14.204  64.674  1.00  0.00    -0.432 OA 
ENDBRANCH  20  21
ENDBRANCH  19  20
ENDBRANCH  17  18
ENDBRANCH  16  17
ENDBRANCH  14  15
ENDBRANCH  13  14
ENDBRANCH  11  12
ENDBRANCH  10  11
ENDBRANCH   8   9
ENDBRANCH   7   8
ENDBRANCH   5   6
ENDBRANCH   4   5
ENDBRANCH   2   3
TORSDOF 13
ENDMDL
MODEL      274
REMARK 921   NORMALIZED FREE ENERGY PREDICTED BY IDOCK:   -3.62 KCAL/MOL
REMARK 922        TOTAL FREE ENERGY PREDICTED BY IDOCK:   -9.14 KCAL/MOL
REMARK 923 INTER-LIGAND FREE ENERGY PREDICTED BY IDOCK:   -7.22 KCAL/MOL
REMARK 924 INTRA-LIGAND FREE ENERGY PREDICTED BY IDOCK:   -1.93 KCAL/MOL
REMARK 927      BINDING AFFINITY PREDICTED BY RF-SCORE:    0.00 PKD
ROOT
HETATM    1  C   UNL     1     -10.016  18.092  68.429  1.00  0.00    -0.392 C  
HETATM    2  C   UNL     1     -10.369  17.758  66.989  1.00  0.00    -0.344 C  
ENDROOT
BRANCH   2   3
HETATM    3  C   UNL     1      -9.448  16.731  66.393  1.00  0.00    -0.307 C  
HETATM    4  C   UNL     1      -9.834  15.578  65.821  1.00  0.00    -0.392 C  
BRANCH   4   5
HETATM    5  C   UNL     1     -11.245  15.066  65.758  1.00  0.00    -0.318 C  
BRANCH   5   6
HETATM    6  C   UNL     1     -11.719  14.557  67.092  1.00  0.00    -0.420 C  
HETATM    7  C   UNL     1     -11.866  13.268  67.445  1.00  0.00    -0.413 C  
BRANCH   7   8
HETATM    8  C   UNL     1     -11.607  12.103  66.536  1.00  0.00    -0.425 C  
BRANCH   8   9
HETATM    9  C   UNL     1     -10.255  11.489  66.757  1.00  0.00    -0.254 C  
HETATM   10  C   UNL     1      -9.926  10.599  67.708  1.00  0.00    -0.192 C  
BRANCH  10  11
HETATM   11  C   UNL     1     -10.848   9.962  68.713  1.00  0.00    -0.240 C  
BRANCH  11  12
HETATM   12  C   UNL     1     -11.117  10.835  69.907  1.00  0.00    -0.339 C  
HETATM   13  C   UNL     1     -11.933  10.558  70.936  1.00  0.00    -0.481 C  
BRANCH  13  14
HETATM   14  C   UNL     1     -12.796   9.345  71.053  1.00  0.00    -0.247 C  
BRANCH  14  15
HETATM   15  C   UNL     1     -12.457   8.493  72.244  1.00  0.00    -0.448 C  
HETATM   16  C   UNL     1     -11.764   7.344  72.154  1.00  0.00    -0.328 C  
BRANCH  16  17
HETATM   17  C   UNL     1     -11.300   6.741  70.862  1.00  0.00    -0.363 C  
BRANCH  17  18
HETATM   18  C   UNL     1      -9.810   6.815  70.675  1.00  0.00    -0.191 C  
HETATM   19  C   UNL     1      -9.181   6.260  69.623  1.00  0.00    -0.144 C  
BRANCH  19  20
HETATM   20  C   UNL     1      -9.936   5.532  68.543  1.00  0.00    -0.211 C  
BRANCH  20  21
HETATM   21  C   UNL     1      -9.071   4.720  67.588  1.00  0.00    -0.128 C  
HETATM   22  C   UNL     1      -9.914   4.288  66.408  1.00  0.00    -0.203 C  
HETATM   23  O   UNL     1      -9.451   3.164  65.810  1.00  0.00    -0.138 OA 
HETATM   24  O   UNL     1     -10.895   4.879  65.993  1.00  0.00    -0.301 OA 
ENDBRANCH  20  21
ENDBRANCH  19  20
ENDBRANCH  17  18
ENDBRANCH  16  17
ENDBRANCH  14  15
ENDBRANCH  13  14
ENDBRANCH  11  12
ENDBRANCH  10  11
ENDBRANCH   8   9
ENDBRANCH   7   8
ENDBRANCH   5   6
ENDBRANCH   4   5
ENDBRANCH   2   3
TORSDOF 13
ENDMDL
MODEL      275
REMARK 921   NORMALIZED FREE ENERGY PREDICTED BY IDOCK:   -3.59 KCAL/MOL
REMARK 922        TOTAL FREE ENERGY PREDICTED BY IDOCK:   -9.09 KCAL/MOL
REMARK 923 INTER-LIGAND FREE ENERGY PREDICTED BY IDOCK:   -7.14 KCAL/MOL
REMARK 924 INTRA-LIGAND FREE ENERGY PREDICTED BY IDOCK:   -1.96 KCAL/MOL
REMARK 927      BINDING AFFINITY PREDICTED BY RF-SCORE:    0.00 PKD
ROOT
HETATM    1  C   UNL     1      -7.204   6.036  65.858  1.00  0.00    -0.075 C  
HETATM    2  C   UNL     1      -8.215   7.157  65.691  1.00  0.00    -0.138 C  
ENDROOT
BRANCH   2   3
HETATM    3  C   UNL     1      -7.954   7.992  64.469  1.00  0.00    -0.151 C  
HETATM    4  C   UNL     1      -8.509   9.189  64.211  1.00  0.00    -0.200 C  
BRANCH   4   5
HETATM    5  C   UNL     1      -9.558   9.863  65.050  1.00  0.00    -0.364 C  
BRANCH   5   6
HETATM    6  C   UNL     1      -9.171  11.273  65.406  1.00  0.00    -0.202 C  
HETATM    7  C   UNL     1      -9.706  12.396  64.896  1.00  0.00    -0.019 C  
BRANCH   7   8
HETATM    8  C   UNL     1     -10.774  12.428  63.843  1.00  0.00    -0.465 C  
BRANCH   8   9
HETATM    9  C   UNL     1     -12.129  12.737  64.408  1.00  0.00    -0.484 C  
HETATM   10  C   UNL     1     -12.416  13.657  65.344  1.00  0.00    -0.537 C  
BRANCH  10  11
HETATM   11  C   UNL     1     -11.462  14.631  65.980  1.00  0.00    -0.332 C  
BRANCH  11  12
HETATM   12  C   UNL     1     -11.850  15.014  67.382  1.00  0.00    -0.167 C  
HETATM   13  C   UNL     1     -11.488  14.390  68.513  1.00  0.00    -0.326 C  
BRANCH  13  14
HETATM   14  C   UNL     1     -10.681  13.137  68.590  1.00  0.00    -0.274 C  
BRANCH  14  15
HETATM   15  C   UNL     1     -11.465  11.907  68.226  1.00  0.00    -0.372 C  
HETATM   16  C   UNL     1     -12.052  11.111  69.136  1.00  0.00    -0.352 C  
BRANCH  16  17
HETATM   17  C   UNL     1     -11.949  11.311  70.619  1.00  0.00    -0.435 C  
BRANCH  17  18
HETATM   18  C   UNL     1     -12.908  10.457  71.401  1.00  0.00    -0.556 C  
HETATM   19  C   UNL     1     -12.546   9.294  71.973  1.00  0.00    -0.465 C  
BRANCH  19  20
HETATM   20  C   UNL     1     -11.138   8.771  71.879  1.00  0.00    -0.434 C  
BRANCH  20  21
HETATM   21  C   UNL     1     -10.968   7.532  71.009  1.00  0.00    -0.266 C  
HETATM   22  C   UNL     1     -10.084   7.877  69.830  1.00  0.00    -0.197 C  
HETATM   23  O   UNL     1     -10.300   7.080  68.756  1.00  0.00    -0.174 OA 
HETATM   24  O   UNL     1      -9.238   8.753  69.821  1.00  0.00    -0.149 OA 
ENDBRANCH  20  21
ENDBRANCH  19  20
ENDBRANCH  17  18
ENDBRANCH  16  17
ENDBRANCH  14  15
ENDBRANCH  13  14
ENDBRANCH  11  12
ENDBRANCH  10  11
ENDBRANCH   8   9
ENDBRANCH   7   8
ENDBRANCH   5   6
ENDBRANCH   4   5
ENDBRANCH   2   3
TORSDOF 13
ENDMDL
MODEL      276
REMARK 921   NORMALIZED FREE ENERGY PREDICTED BY IDOCK:   -3.58 KCAL/MOL
REMARK 922        TOTAL FREE ENERGY PREDICTED BY IDOCK:   -9.07 KCAL/MOL
REMARK 923 INTER-LIGAND FREE ENERGY PREDICTED BY IDOCK:   -7.53 KCAL/MOL
REMARK 924 INTRA-LIGAND FREE ENERGY PREDICTED BY IDOCK:   -1.54 KCAL/MOL
REMARK 927      BINDING AFFINITY PREDICTED BY RF-SCORE:    0.00 PKD
ROOT
HETATM    1  C   UNL     1     -14.406   7.448  71.244  1.00  0.00    -0.408 C  
HETATM    2  C   UNL     1     -13.440   8.024  72.264  1.00  0.00    -0.125 C  
ENDROOT
BRANCH   2   3
HETATM    3  C   UNL     1     -13.187   9.491  72.055  1.00  0.00    -0.539 C  
HETATM    4  C   UNL     1     -12.031  10.028  71.629  1.00  0.00    -0.369 C  
BRANCH   4   5
HETATM    5  C   UNL     1     -10.758   9.271  71.376  1.00  0.00    -0.432 C  
BRANCH   5   6
HETATM    6  C   UNL     1     -10.037   9.778  70.157  1.00  0.00    -0.317 C  
HETATM    7  C   UNL     1     -10.490  10.703  69.293  1.00  0.00    -0.252 C  
BRANCH   7   8
HETATM    8  C   UNL     1     -11.830  11.371  69.387  1.00  0.00    -0.419 C  
BRANCH   8   9
HETATM    9  C   UNL     1     -12.011  12.445  68.355  1.00  0.00    -0.269 C  
HETATM   10  C   UNL     1     -12.040  13.771  68.574  1.00  0.00    -0.327 C  
BRANCH  10  11
HETATM   11  C   UNL     1     -11.824  14.477  69.885  1.00  0.00    -0.373 C  
BRANCH  11  12
HETATM   12  C   UNL     1     -11.388  15.908  69.723  1.00  0.00    -0.347 C  
HETATM   13  C   UNL     1     -10.173  16.338  69.349  1.00  0.00    -0.265 C  
BRANCH  13  14
HETATM   14  C   UNL     1      -8.988  15.468  69.092  1.00  0.00    -0.256 C  
BRANCH  14  15
HETATM   15  C   UNL     1      -8.571  15.450  67.648  1.00  0.00    -0.176 C  
HETATM   16  C   UNL     1      -8.439  14.320  66.933  1.00  0.00    -0.133 C  
BRANCH  16  17
HETATM   17  C   UNL     1      -8.628  12.942  67.495  1.00  0.00    -0.188 C  
BRANCH  17  18
HETATM   18  C   UNL     1      -8.094  11.858  66.601  1.00  0.00    -0.063 C  
HETATM   19  C   UNL     1      -8.857  11.219  65.696  1.00  0.00    -0.124 C  
BRANCH  19  20
HETATM   20  C   UNL     1     -10.311  11.561  65.506  1.00  0.00    -0.322 C  
BRANCH  20  21
HETATM   21  C   UNL     1     -10.681  12.050  64.111  1.00  0.00    -0.405 C  
HETATM   22  C   UNL     1     -11.469  13.336  64.234  1.00  0.00    -0.396 C  
HETATM   23  O   UNL     1     -12.286  13.559  63.176  1.00  0.00    -0.712 OA 
HETATM   24  O   UNL     1     -11.382  14.126  65.157  1.00  0.00    -0.313 OA 
ENDBRANCH  20  21
ENDBRANCH  19  20
ENDBRANCH  17  18
ENDBRANCH  16  17
ENDBRANCH  14  15
ENDBRANCH  13  14
ENDBRANCH  11  12
ENDBRANCH  10  11
ENDBRANCH   8   9
ENDBRANCH   7   8
ENDBRANCH   5   6
ENDBRANCH   4   5
ENDBRANCH   2   3
TORSDOF 13
ENDMDL
MODEL      277
REMARK 921   NORMALIZED FREE ENERGY PREDICTED BY IDOCK:   -3.57 KCAL/MOL
REMARK 922        TOTAL FREE ENERGY PREDICTED BY IDOCK:   -9.07 KCAL/MOL
REMARK 923 INTER-LIGAND FREE ENERGY PREDICTED BY IDOCK:   -6.86 KCAL/MOL
REMARK 924 INTRA-LIGAND FREE ENERGY PREDICTED BY IDOCK:   -2.21 KCAL/MOL
REMARK 927      BINDING AFFINITY PREDICTED BY RF-SCORE:    0.00 PKD
ROOT
HETATM    1  C   UNL     1     -10.451   9.649  67.456  1.00  0.00    -0.321 C  
HETATM    2  C   UNL     1     -10.500  10.793  66.456  1.00  0.00    -0.299 C  
ENDROOT
BRANCH   2   3
HETATM    3  C   UNL     1     -10.273  10.334  65.044  1.00  0.00    -0.277 C  
HETATM    4  C   UNL     1     -10.153  11.139  63.974  1.00  0.00    -0.392 C  
BRANCH   4   5
HETATM    5  C   UNL     1     -10.316  12.633  63.983  1.00  0.00    -0.414 C  
BRANCH   5   6
HETATM    6  C   UNL     1     -11.765  13.039  63.994  1.00  0.00    -0.497 C  
HETATM    7  C   UNL     1     -12.307  14.025  64.730  1.00  0.00    -0.437 C  
BRANCH   7   8
HETATM    8  C   UNL     1     -11.548  14.878  65.703  1.00  0.00    -0.245 C  
BRANCH   8   9
HETATM    9  C   UNL     1     -10.817  16.004  65.033  1.00  0.00    -0.421 C  
HETATM   10  C   UNL     1     -10.360  17.124  65.619  1.00  0.00    -0.198 C  
BRANCH  10  11
HETATM   11  C   UNL     1     -10.412  17.466  67.083  1.00  0.00    -0.305 C  
BRANCH  11  12
HETATM   12  C   UNL     1     -11.022  18.814  67.357  1.00  0.00    -0.281 C  
HETATM   13  C   UNL     1     -10.428  20.008  67.210  1.00  0.00    -0.505 C  
BRANCH  13  14
HETATM   14  C   UNL     1      -9.005  20.224  66.812  1.00  0.00    -0.394 C  
BRANCH  14  15
HETATM   15  C   UNL     1      -8.059  20.215  67.980  1.00  0.00    -0.213 C  
HETATM   16  C   UNL     1      -6.767  19.858  67.879  1.00  0.00    -0.285 C  
BRANCH  16  17
HETATM   17  C   UNL     1      -6.126  19.369  66.614  1.00  0.00    -0.165 C  
BRANCH  17  18
HETATM   18  C   UNL     1      -5.133  18.263  66.842  1.00  0.00    -0.142 C  
HETATM   19  C   UNL     1      -5.480  16.964  66.855  1.00  0.00    -0.182 C  
BRANCH  19  20
HETATM   20  C   UNL     1      -6.901  16.523  66.626  1.00  0.00    -0.161 C  
BRANCH  20  21
HETATM   21  C   UNL     1      -7.345  15.325  67.456  1.00  0.00    -0.223 C  
HETATM   22  C   UNL     1      -7.565  15.771  68.885  1.00  0.00    -0.181 C  
HETATM   23  O   UNL     1      -7.422  14.765  69.782  1.00  0.00    -0.140 OA 
HETATM   24  O   UNL     1      -7.868  16.900  69.228  1.00  0.00    -0.178 OA 
ENDBRANCH  20  21
ENDBRANCH  19  20
ENDBRANCH  17  18
ENDBRANCH  16  17
ENDBRANCH  14  15
ENDBRANCH  13  14
ENDBRANCH  11  12
ENDBRANCH  10  11
ENDBRANCH   8   9
ENDBRANCH   7   8
ENDBRANCH   5   6
ENDBRANCH   4   5
ENDBRANCH   2   3
TORSDOF 13
ENDMDL
MODEL      278
REMARK 921   NORMALIZED FREE ENERGY PREDICTED BY IDOCK:   -3.57 KCAL/MOL
REMARK 922        TOTAL FREE ENERGY PREDICTED BY IDOCK:   -9.07 KCAL/MOL
REMARK 923 INTER-LIGAND FREE ENERGY PREDICTED BY IDOCK:   -6.58 KCAL/MOL
REMARK 924 INTRA-LIGAND FREE ENERGY PREDICTED BY IDOCK:   -2.48 KCAL/MOL
REMARK 927      BINDING AFFINITY PREDICTED BY RF-SCORE:    0.00 PKD
ROOT
HETATM    1  C   UNL     1     -10.357   8.302  66.954  1.00  0.00    -0.391 C  
HETATM    2  C   UNL     1      -9.079   9.024  67.345  1.00  0.00    -0.146 C  
ENDROOT
BRANCH   2   3
HETATM    3  C   UNL     1      -8.782   8.915  68.814  1.00  0.00    -0.137 C  
HETATM    4  C   UNL     1      -7.818   8.154  69.360  1.00  0.00    -0.105 C  
BRANCH   4   5
HETATM    5  C   UNL     1      -6.926   7.206  68.608  1.00  0.00    -0.082 C  
BRANCH   5   6
HETATM    6  C   UNL     1      -7.680   6.007  68.102  1.00  0.00    -0.102 C  
HETATM    7  C   UNL     1      -7.794   4.820  68.723  1.00  0.00    -0.076 C  
BRANCH   7   8
HETATM    8  C   UNL     1      -7.148   4.480  70.034  1.00  0.00    -0.049 C  
BRANCH   8   9
HETATM    9  C   UNL     1      -7.635   5.347  71.158  1.00  0.00    -0.097 C  
HETATM   10  C   UNL     1      -8.912   5.532  71.531  1.00  0.00    -0.146 C  
BRANCH  10  11
HETATM   11  C   UNL     1     -10.130   4.858  70.960  1.00  0.00    -0.288 C  
BRANCH  11  12
HETATM   12  C   UNL     1     -10.771   5.637  69.844  1.00  0.00    -0.399 C  
HETATM   13  C   UNL     1     -11.641   6.650  69.970  1.00  0.00    -0.423 C  
BRANCH  13  14
HETATM   14  C   UNL     1     -12.203   7.153  71.258  1.00  0.00    -0.403 C  
BRANCH  14  15
HETATM   15  C   UNL     1     -11.299   8.131  71.954  1.00  0.00    -0.356 C  
HETATM   16  C   UNL     1     -11.172   9.415  71.577  1.00  0.00    -0.457 C  
BRANCH  16  17
HETATM   17  C   UNL     1     -11.862  10.014  70.388  1.00  0.00    -0.343 C  
BRANCH  17  18
HETATM   18  C   UNL     1     -12.198  11.469  70.567  1.00  0.00    -0.469 C  
HETATM   19  C   UNL     1     -11.739  12.428  69.744  1.00  0.00    -0.361 C  
BRANCH  19  20
HETATM   20  C   UNL     1     -10.859  12.106  68.566  1.00  0.00    -0.267 C  
BRANCH  20  21
HETATM   21  C   UNL     1     -11.572  12.068  67.221  1.00  0.00    -0.383 C  
HETATM   22  C   UNL     1     -11.527  13.448  66.602  1.00  0.00    -0.344 C  
HETATM   23  O   UNL     1     -12.542  13.671  65.732  1.00  0.00    -0.476 OA 
HETATM   24  O   UNL     1     -10.669  14.286  66.817  1.00  0.00    -0.282 OA 
ENDBRANCH  20  21
ENDBRANCH  19  20
ENDBRANCH  17  18
ENDBRANCH  16  17
ENDBRANCH  14  15
ENDBRANCH  13  14
ENDBRANCH  11  12
ENDBRANCH  10  11
ENDBRANCH   8   9
ENDBRANCH   7   8
ENDBRANCH   5   6
ENDBRANCH   4   5
ENDBRANCH   2   3
TORSDOF 13
ENDMDL
MODEL      279
REMARK 921   NORMALIZED FREE ENERGY PREDICTED BY IDOCK:   -3.57 KCAL/MOL
REMARK 922        TOTAL FREE ENERGY PREDICTED BY IDOCK:   -9.06 KCAL/MOL
REMARK 923 INTER-LIGAND FREE ENERGY PREDICTED BY IDOCK:   -6.83 KCAL/MOL
REMARK 924 INTRA-LIGAND FREE ENERGY PREDICTED BY IDOCK:   -2.23 KCAL/MOL
REMARK 927      BINDING AFFINITY PREDICTED BY RF-SCORE:    0.00 PKD
ROOT
HETATM    1  C   UNL     1      -9.241  17.341  66.417  1.00  0.00    -0.278 C  
HETATM    2  C   UNL     1     -10.518  16.788  65.807  1.00  0.00    -0.305 C  
ENDROOT
BRANCH   2   3
HETATM    3  C   UNL     1     -10.288  15.519  65.037  1.00  0.00    -0.327 C  
HETATM    4  C   UNL     1     -10.416  14.275  65.530  1.00  0.00    -0.361 C  
BRANCH   4   5
HETATM    5  C   UNL     1     -10.720  13.932  66.962  1.00  0.00    -0.283 C  
BRANCH   5   6
HETATM    6  C   UNL     1     -11.734  12.826  67.070  1.00  0.00    -0.440 C  
HETATM    7  C   UNL     1     -11.479  11.507  67.016  1.00  0.00    -0.290 C  
BRANCH   7   8
HETATM    8  C   UNL     1     -10.119  10.911  66.802  1.00  0.00    -0.259 C  
BRANCH   8   9
HETATM    9  C   UNL     1     -10.181   9.537  66.200  1.00  0.00    -0.272 C  
HETATM   10  C   UNL     1      -9.495   8.454  66.602  1.00  0.00    -0.267 C  
BRANCH  10  11
HETATM   11  C   UNL     1      -8.573   8.354  67.787  1.00  0.00    -0.130 C  
BRANCH  11  12
HETATM   12  C   UNL     1      -9.097   7.454  68.872  1.00  0.00    -0.136 C  
HETATM   13  C   UNL     1      -9.551   7.831  70.078  1.00  0.00    -0.161 C  
BRANCH  13  14
HETATM   14  C   UNL     1      -9.552   9.228  70.604  1.00  0.00    -0.334 C  
BRANCH  14  15
HETATM   15  C   UNL     1     -10.796   9.992  70.247  1.00  0.00    -0.370 C  
HETATM   16  C   UNL     1     -11.950   9.881  70.927  1.00  0.00    -0.434 C  
BRANCH  16  17
HETATM   17  C   UNL     1     -12.160   8.944  72.079  1.00  0.00    -0.442 C  
BRANCH  17  18
HETATM   18  C   UNL     1     -12.846   7.665  71.686  1.00  0.00    -0.378 C  
HETATM   19  C   UNL     1     -12.407   6.455  72.076  1.00  0.00    -0.268 C  
BRANCH  19  20
HETATM   20  C   UNL     1     -11.194   6.298  72.952  1.00  0.00    -0.233 C  
BRANCH  20  21
HETATM   21  C   UNL     1     -10.944   4.883  73.459  1.00  0.00    -0.397 C  
HETATM   22  C   UNL     1     -10.112   4.136  72.440  1.00  0.00    -0.177 C  
HETATM   23  O   UNL     1     -10.285   2.793  72.497  1.00  0.00    -0.157 OA 
HETATM   24  O   UNL     1      -9.336   4.651  71.655  1.00  0.00    -0.134 OA 
ENDBRANCH  20  21
ENDBRANCH  19  20
ENDBRANCH  17  18
ENDBRANCH  16  17
ENDBRANCH  14  15
ENDBRANCH  13  14
ENDBRANCH  11  12
ENDBRANCH  10  11
ENDBRANCH   8   9
ENDBRANCH   7   8
ENDBRANCH   5   6
ENDBRANCH   4   5
ENDBRANCH   2   3
TORSDOF 13
ENDMDL
MODEL      280
REMARK 921   NORMALIZED FREE ENERGY PREDICTED BY IDOCK:   -3.57 KCAL/MOL
REMARK 922        TOTAL FREE ENERGY PREDICTED BY IDOCK:   -9.05 KCAL/MOL
REMARK 923 INTER-LIGAND FREE ENERGY PREDICTED BY IDOCK:   -6.03 KCAL/MOL
REMARK 924 INTRA-LIGAND FREE ENERGY PREDICTED BY IDOCK:   -3.03 KCAL/MOL
REMARK 927      BINDING AFFINITY PREDICTED BY RF-SCORE:    0.00 PKD
ROOT
HETATM    1  C   UNL     1     -12.319  13.219  65.508  1.00  0.00    -0.533 C  
HETATM    2  C   UNL     1     -11.984  13.361  66.983  1.00  0.00    -0.429 C  
ENDROOT
BRANCH   2   3
HETATM    3  C   UNL     1     -10.633  12.799  67.324  1.00  0.00    -0.245 C  
HETATM    4  C   UNL     1     -10.412  11.674  68.025  1.00  0.00    -0.217 C  
BRANCH   4   5
HETATM    5  C   UNL     1     -11.473  10.829  68.673  1.00  0.00    -0.365 C  
BRANCH   5   6
HETATM    6  C   UNL     1     -12.130  11.538  69.826  1.00  0.00    -0.374 C  
HETATM    7  C   UNL     1     -12.287  11.055  71.070  1.00  0.00    -0.490 C  
BRANCH   7   8
HETATM    8  C   UNL     1     -11.852   9.689  71.514  1.00  0.00    -0.483 C  
BRANCH   8   9
HETATM    9  C   UNL     1     -12.995   8.721  71.604  1.00  0.00    -0.390 C  
HETATM   10  C   UNL     1     -12.970   7.419  71.276  1.00  0.00    -0.358 C  
BRANCH  10  11
HETATM   11  C   UNL     1     -11.778   6.622  70.818  1.00  0.00    -0.445 C  
BRANCH  11  12
HETATM   12  C   UNL     1     -11.385   6.907  69.395  1.00  0.00    -0.172 C  
HETATM   13  C   UNL     1     -10.163   7.240  68.951  1.00  0.00    -0.196 C  
BRANCH  13  14
HETATM   14  C   UNL     1      -8.963   7.466  69.810  1.00  0.00    -0.141 C  
BRANCH  14  15
HETATM   15  C   UNL     1      -8.851   8.880  70.307  1.00  0.00    -0.191 C  
HETATM   16  C   UNL     1      -8.007   9.783  69.777  1.00  0.00    -0.169 C  
BRANCH  16  17
HETATM   17  C   UNL     1      -7.035   9.480  68.677  1.00  0.00    -0.064 C  
BRANCH  17  18
HETATM   18  C   UNL     1      -6.874  10.612  67.700  1.00  0.00    -0.074 C  
HETATM   19  C   UNL     1      -7.438  10.604  66.478  1.00  0.00    -0.134 C  
BRANCH  19  20
HETATM   20  C   UNL     1      -8.289   9.456  66.007  1.00  0.00    -0.123 C  
BRANCH  20  21
HETATM   21  C   UNL     1      -7.731   8.687  64.817  1.00  0.00    -0.108 C  
HETATM   22  C   UNL     1      -7.879   7.203  65.077  1.00  0.00    -0.125 C  
HETATM   23  O   UNL     1      -6.974   6.455  64.401  1.00  0.00    -0.044 OA 
HETATM   24  O   UNL     1      -8.727   6.697  65.790  1.00  0.00    -0.153 OA 
ENDBRANCH  20  21
ENDBRANCH  19  20
ENDBRANCH  17  18
ENDBRANCH  16  17
ENDBRANCH  14  15
ENDBRANCH  13  14
ENDBRANCH  11  12
ENDBRANCH  10  11
ENDBRANCH   8   9
ENDBRANCH   7   8
ENDBRANCH   5   6
ENDBRANCH   4   5
ENDBRANCH   2   3
TORSDOF 13
ENDMDL
MODEL      281
REMARK 921   NORMALIZED FREE ENERGY PREDICTED BY IDOCK:   -3.56 KCAL/MOL
REMARK 922        TOTAL FREE ENERGY PREDICTED BY IDOCK:   -9.05 KCAL/MOL
REMARK 923 INTER-LIGAND FREE ENERGY PREDICTED BY IDOCK:   -7.08 KCAL/MOL
REMARK 924 INTRA-LIGAND FREE ENERGY PREDICTED BY IDOCK:   -1.97 KCAL/MOL
REMARK 927      BINDING AFFINITY PREDICTED BY RF-SCORE:    0.00 PKD
ROOT
HETATM    1  C   UNL     1      -7.873   5.487  71.221  1.00  0.00    -0.110 C  
HETATM    2  C   UNL     1      -9.081   5.194  70.347  1.00  0.00    -0.173 C  
ENDROOT
BRANCH   2   3
HETATM    3  C   UNL     1     -10.280   6.016  70.726  1.00  0.00    -0.258 C  
HETATM    4  C   UNL     1     -10.727   7.094  70.060  1.00  0.00    -0.268 C  
BRANCH   4   5
HETATM    5  C   UNL     1     -10.055   7.725  68.872  1.00  0.00    -0.201 C  
BRANCH   5   6
HETATM    6  C   UNL     1      -9.122   8.834  69.278  1.00  0.00    -0.145 C  
HETATM    7  C   UNL     1      -9.477  10.014  69.816  1.00  0.00    -0.239 C  
BRANCH   7   8
HETATM    8  C   UNL     1     -10.892  10.440  70.075  1.00  0.00    -0.348 C  
BRANCH   8   9
HETATM    9  C   UNL     1     -11.396  11.414  69.051  1.00  0.00    -0.345 C  
HETATM   10  C   UNL     1     -12.087  12.542  69.290  1.00  0.00    -0.214 C  
BRANCH  10  11
HETATM   11  C   UNL     1     -12.444  13.119  70.633  1.00  0.00    -0.363 C  
BRANCH  11  12
HETATM   12  C   UNL     1     -13.090  14.474  70.544  1.00  0.00    -0.226 C  
HETATM   13  C   UNL     1     -12.471  15.646  70.333  1.00  0.00    -0.409 C  
BRANCH  13  14
HETATM   14  C   UNL     1     -10.996  15.836  70.219  1.00  0.00    -0.368 C  
BRANCH  14  15
HETATM   15  C   UNL     1     -10.616  16.977  69.316  1.00  0.00    -0.276 C  
HETATM   16  C   UNL     1     -10.599  16.882  67.976  1.00  0.00    -0.367 C  
BRANCH  16  17
HETATM   17  C   UNL     1     -10.894  15.622  67.219  1.00  0.00    -0.298 C  
BRANCH  17  18
HETATM   18  C   UNL     1      -9.668  14.793  66.947  1.00  0.00    -0.247 C  
HETATM   19  C   UNL     1      -9.724  13.583  66.361  1.00  0.00    -0.296 C  
BRANCH  19  20
HETATM   20  C   UNL     1     -11.029  12.977  65.921  1.00  0.00    -0.292 C  
BRANCH  20  21
HETATM   21  C   UNL     1     -11.145  12.714  64.425  1.00  0.00    -0.385 C  
HETATM   22  C   UNL     1     -12.183  13.648  63.841  1.00  0.00    -0.374 C  
HETATM   23  O   UNL     1     -12.751  13.166  62.709  1.00  0.00    -0.218 OA 
HETATM   24  O   UNL     1     -12.482  14.737  64.297  1.00  0.00    -0.661 OA 
ENDBRANCH  20  21
ENDBRANCH  19  20
ENDBRANCH  17  18
ENDBRANCH  16  17
ENDBRANCH  14  15
ENDBRANCH  13  14
ENDBRANCH  11  12
ENDBRANCH  10  11
ENDBRANCH   8   9
ENDBRANCH   7   8
ENDBRANCH   5   6
ENDBRANCH   4   5
ENDBRANCH   2   3
TORSDOF 13
ENDMDL
MODEL      282
REMARK 921   NORMALIZED FREE ENERGY PREDICTED BY IDOCK:   -3.56 KCAL/MOL
REMARK 922        TOTAL FREE ENERGY PREDICTED BY IDOCK:   -9.05 KCAL/MOL
REMARK 923 INTER-LIGAND FREE ENERGY PREDICTED BY IDOCK:   -6.57 KCAL/MOL
REMARK 924 INTRA-LIGAND FREE ENERGY PREDICTED BY IDOCK:   -2.48 KCAL/MOL
REMARK 927      BINDING AFFINITY PREDICTED BY RF-SCORE:    0.00 PKD
ROOT
HETATM    1  C   UNL     1     -10.755   3.949  73.061  1.00  0.00    -0.241 C  
HETATM    2  C   UNL     1     -10.914   5.454  73.198  1.00  0.00    -0.353 C  
ENDROOT
BRANCH   2   3
HETATM    3  C   UNL     1     -11.957   6.010  72.271  1.00  0.00    -0.259 C  
HETATM    4  C   UNL     1     -11.733   6.444  71.018  1.00  0.00    -0.358 C  
BRANCH   4   5
HETATM    5  C   UNL     1     -10.388   6.537  70.355  1.00  0.00    -0.237 C  
BRANCH   5   6
HETATM    6  C   UNL     1     -10.462   6.209  68.888  1.00  0.00    -0.293 C  
HETATM    7  C   UNL     1     -10.302   7.075  67.872  1.00  0.00    -0.247 C  
BRANCH   7   8
HETATM    8  C   UNL     1     -10.052   8.545  68.038  1.00  0.00    -0.245 C  
BRANCH   8   9
HETATM    9  C   UNL     1      -8.683   8.838  68.579  1.00  0.00    -0.135 C  
HETATM   10  C   UNL     1      -7.906   9.890  68.267  1.00  0.00    -0.085 C  
BRANCH  10  11
HETATM   11  C   UNL     1      -8.261  11.044  67.369  1.00  0.00    -0.122 C  
BRANCH  11  12
HETATM   12  C   UNL     1      -7.171  12.075  67.270  1.00  0.00    -0.150 C  
HETATM   13  C   UNL     1      -7.287  13.391  67.511  1.00  0.00    -0.165 C  
BRANCH  13  14
HETATM   14  C   UNL     1      -8.555  14.098  67.855  1.00  0.00    -0.178 C  
BRANCH  14  15
HETATM   15  C   UNL     1      -9.213  14.741  66.666  1.00  0.00    -0.300 C  
HETATM   16  C   UNL     1     -10.546  14.779  66.492  1.00  0.00    -0.299 C  
BRANCH  16  17
HETATM   17  C   UNL     1     -11.533  14.138  67.420  1.00  0.00    -0.369 C  
BRANCH  17  18
HETATM   18  C   UNL     1     -11.823  12.703  67.077  1.00  0.00    -0.415 C  
HETATM   19  C   UNL     1     -11.682  11.700  67.963  1.00  0.00    -0.351 C  
BRANCH  19  20
HETATM   20  C   UNL     1     -11.232  11.952  69.377  1.00  0.00    -0.278 C  
BRANCH  20  21
HETATM   21  C   UNL     1     -12.271  11.642  70.448  1.00  0.00    -0.434 C  
HETATM   22  C   UNL     1     -11.937  10.311  71.086  1.00  0.00    -0.376 C  
HETATM   23  O   UNL     1     -13.019   9.694  71.619  1.00  0.00    -0.349 OA 
HETATM   24  O   UNL     1     -10.822   9.827  71.156  1.00  0.00    -0.334 OA 
ENDBRANCH  20  21
ENDBRANCH  19  20
ENDBRANCH  17  18
ENDBRANCH  16  17
ENDBRANCH  14  15
ENDBRANCH  13  14
ENDBRANCH  11  12
ENDBRANCH  10  11
ENDBRANCH   8   9
ENDBRANCH   7   8
ENDBRANCH   5   6
ENDBRANCH   4   5
ENDBRANCH   2   3
TORSDOF 13
ENDMDL
MODEL      283
REMARK 921   NORMALIZED FREE ENERGY PREDICTED BY IDOCK:   -3.55 KCAL/MOL
REMARK 922        TOTAL FREE ENERGY PREDICTED BY IDOCK:   -9.03 KCAL/MOL
REMARK 923 INTER-LIGAND FREE ENERGY PREDICTED BY IDOCK:   -6.22 KCAL/MOL
REMARK 924 INTRA-LIGAND FREE ENERGY PREDICTED BY IDOCK:   -2.80 KCAL/MOL
REMARK 927      BINDING AFFINITY PREDICTED BY RF-SCORE:    0.00 PKD
ROOT
HETATM    1  C   UNL     1      -6.899  16.920  69.437  1.00  0.00    -0.195 C  
HETATM    2  C   UNL     1      -6.142  16.300  68.275  1.00  0.00    -0.116 C  
ENDROOT
BRANCH   2   3
HETATM    3  C   UNL     1      -7.027  15.474  67.386  1.00  0.00    -0.232 C  
HETATM    4  C   UNL     1      -7.370  14.192  67.602  1.00  0.00    -0.191 C  
BRANCH   4   5
HETATM    5  C   UNL     1      -6.856  13.329  68.720  1.00  0.00    -0.102 C  
BRANCH   5   6
HETATM    6  C   UNL     1      -6.387  11.989  68.224  1.00  0.00    -0.052 C  
HETATM    7  C   UNL     1      -7.126  10.869  68.140  1.00  0.00    -0.077 C  
BRANCH   7   8
HETATM    8  C   UNL     1      -8.561  10.763  68.565  1.00  0.00    -0.148 C  
BRANCH   8   9
HETATM    9  C   UNL     1      -9.344   9.806  67.716  1.00  0.00    -0.148 C  
HETATM   10  C   UNL     1      -9.790  10.023  66.466  1.00  0.00    -0.267 C  
BRANCH  10  11
HETATM   11  C   UNL     1      -9.542  11.239  65.614  1.00  0.00    -0.260 C  
BRANCH  11  12
HETATM   12  C   UNL     1     -10.240  11.182  64.283  1.00  0.00    -0.399 C  
HETATM   13  C   UNL     1     -11.169  12.038  63.828  1.00  0.00    -0.516 C  
BRANCH  13  14
HETATM   14  C   UNL     1     -11.746  13.178  64.598  1.00  0.00    -0.404 C  
BRANCH  14  15
HETATM   15  C   UNL     1     -10.911  14.426  64.520  1.00  0.00    -0.290 C  
HETATM   16  C   UNL     1     -10.783  15.292  65.539  1.00  0.00    -0.385 C  
BRANCH  16  17
HETATM   17  C   UNL     1     -11.498  15.159  66.850  1.00  0.00    -0.215 C  
BRANCH  17  18
HETATM   18  C   UNL     1     -10.652  15.550  68.030  1.00  0.00    -0.270 C  
HETATM   19  C   UNL     1     -10.919  15.141  69.284  1.00  0.00    -0.260 C  
BRANCH  19  20
HETATM   20  C   UNL     1     -12.088  14.244  69.592  1.00  0.00    -0.396 C  
BRANCH  20  21
HETATM   21  C   UNL     1     -11.721  12.885  70.174  1.00  0.00    -0.234 C  
HETATM   22  C   UNL     1     -12.075  11.809  69.170  1.00  0.00    -0.228 C  
HETATM   23  O   UNL     1     -12.309  10.605  69.746  1.00  0.00    -0.299 OA 
HETATM   24  O   UNL     1     -12.126  11.965  67.963  1.00  0.00    -0.541 OA 
ENDBRANCH  20  21
ENDBRANCH  19  20
ENDBRANCH  17  18
ENDBRANCH  16  17
ENDBRANCH  14  15
ENDBRANCH  13  14
ENDBRANCH  11  12
ENDBRANCH  10  11
ENDBRANCH   8   9
ENDBRANCH   7   8
ENDBRANCH   5   6
ENDBRANCH   4   5
ENDBRANCH   2   3
TORSDOF 13
ENDMDL
MODEL      284
REMARK 921   NORMALIZED FREE ENERGY PREDICTED BY IDOCK:   -3.55 KCAL/MOL
REMARK 922        TOTAL FREE ENERGY PREDICTED BY IDOCK:   -9.02 KCAL/MOL
REMARK 923 INTER-LIGAND FREE ENERGY PREDICTED BY IDOCK:   -6.34 KCAL/MOL
REMARK 924 INTRA-LIGAND FREE ENERGY PREDICTED BY IDOCK:   -2.69 KCAL/MOL
REMARK 927      BINDING AFFINITY PREDICTED BY RF-SCORE:    0.00 PKD
ROOT
HETATM    1  C   UNL     1      -8.946   5.494  71.575  1.00  0.00    -0.146 C  
HETATM    2  C   UNL     1     -10.147   5.215  70.688  1.00  0.00    -0.309 C  
ENDROOT
BRANCH   2   3
HETATM    3  C   UNL     1      -9.963   3.989  69.837  1.00  0.00    -0.046 C  
HETATM    4  C   UNL     1      -9.557   3.985  68.556  1.00  0.00    -0.184 C  
BRANCH   4   5
HETATM    5  C   UNL     1      -9.304   5.207  67.717  1.00  0.00    -0.138 C  
BRANCH   5   6
HETATM    6  C   UNL     1     -10.556   5.688  67.035  1.00  0.00    -0.358 C  
HETATM    7  C   UNL     1     -10.936   6.968  66.885  1.00  0.00    -0.271 C  
BRANCH   7   8
HETATM    8  C   UNL     1     -10.176   8.150  67.411  1.00  0.00    -0.327 C  
BRANCH   8   9
HETATM    9  C   UNL     1     -10.346   8.330  68.891  1.00  0.00    -0.230 C  
HETATM   10  C   UNL     1     -10.385   9.496  69.557  1.00  0.00    -0.229 C  
BRANCH  10  11
HETATM   11  C   UNL     1     -10.344  10.879  68.966  1.00  0.00    -0.230 C  
BRANCH  11  12
HETATM   12  C   UNL     1     -11.696  11.384  68.542  1.00  0.00    -0.386 C  
HETATM   13  C   UNL     1     -11.961  12.542  67.917  1.00  0.00    -0.283 C  
BRANCH  13  14
HETATM   14  C   UNL     1     -10.957  13.596  67.586  1.00  0.00    -0.283 C  
BRANCH  14  15
HETATM   15  C   UNL     1     -11.514  14.691  66.721  1.00  0.00    -0.371 C  
HETATM   16  C   UNL     1     -11.305  14.762  65.395  1.00  0.00    -0.356 C  
BRANCH  16  17
HETATM   17  C   UNL     1     -10.445  13.803  64.628  1.00  0.00    -0.433 C  
BRANCH  17  18
HETATM   18  C   UNL     1     -11.224  12.682  63.997  1.00  0.00    -0.459 C  
HETATM   19  C   UNL     1     -10.958  11.386  64.238  1.00  0.00    -0.390 C  
BRANCH  19  20
HETATM   20  C   UNL     1      -9.859  10.965  65.177  1.00  0.00    -0.329 C  
BRANCH  20  21
HETATM   21  C   UNL     1      -8.865   9.967  64.597  1.00  0.00    -0.234 C  
HETATM   22  C   UNL     1      -7.544  10.113  65.322  1.00  0.00    -0.144 C  
HETATM   23  O   UNL     1      -6.485   9.710  64.577  1.00  0.00    -0.089 OA 
HETATM   24  O   UNL     1      -7.410  10.518  66.462  1.00  0.00    -0.111 OA 
ENDBRANCH  20  21
ENDBRANCH  19  20
ENDBRANCH  17  18
ENDBRANCH  16  17
ENDBRANCH  14  15
ENDBRANCH  13  14
ENDBRANCH  11  12
ENDBRANCH  10  11
ENDBRANCH   8   9
ENDBRANCH   7   8
ENDBRANCH   5   6
ENDBRANCH   4   5
ENDBRANCH   2   3
TORSDOF 13
ENDMDL
MODEL      285
REMARK 921   NORMALIZED FREE ENERGY PREDICTED BY IDOCK:   -3.55 KCAL/MOL
REMARK 922        TOTAL FREE ENERGY PREDICTED BY IDOCK:   -9.02 KCAL/MOL
REMARK 923 INTER-LIGAND FREE ENERGY PREDICTED BY IDOCK:   -6.70 KCAL/MOL
REMARK 924 INTRA-LIGAND FREE ENERGY PREDICTED BY IDOCK:   -2.32 KCAL/MOL
REMARK 927      BINDING AFFINITY PREDICTED BY RF-SCORE:    0.00 PKD
ROOT
HETATM    1  C   UNL     1      -9.431  15.349  66.131  1.00  0.00    -0.371 C  
HETATM    2  C   UNL     1     -10.557  16.311  66.471  1.00  0.00    -0.256 C  
ENDROOT
BRANCH   2   3
HETATM    3  C   UNL     1     -10.223  17.201  67.636  1.00  0.00    -0.329 C  
HETATM    4  C   UNL     1      -9.912  16.778  68.873  1.00  0.00    -0.271 C  
BRANCH   4   5
HETATM    5  C   UNL     1      -9.932  15.349  69.338  1.00  0.00    -0.272 C  
BRANCH   5   6
HETATM    6  C   UNL     1     -11.240  14.988  69.986  1.00  0.00    -0.301 C  
HETATM    7  C   UNL     1     -12.156  14.130  69.502  1.00  0.00    -0.388 C  
BRANCH   7   8
HETATM    8  C   UNL     1     -12.034  13.403  68.195  1.00  0.00    -0.356 C  
BRANCH   8   9
HETATM    9  C   UNL     1     -12.003  11.913  68.367  1.00  0.00    -0.246 C  
HETATM   10  C   UNL     1     -11.228  11.045  67.695  1.00  0.00    -0.373 C  
BRANCH  10  11
HETATM   11  C   UNL     1     -10.169  11.375  66.678  1.00  0.00    -0.258 C  
BRANCH  11  12
HETATM   12  C   UNL     1     -10.136  10.413  65.522  1.00  0.00    -0.352 C  
HETATM   13  C   UNL     1      -9.093   9.664  65.131  1.00  0.00    -0.279 C  
BRANCH  13  14
HETATM   14  C   UNL     1      -7.728   9.701  65.733  1.00  0.00    -0.106 C  
BRANCH  14  15
HETATM   15  C   UNL     1      -7.235   8.347  66.161  1.00  0.00    -0.077 C  
HETATM   16  C   UNL     1      -7.771   7.657  67.183  1.00  0.00    -0.112 C  
BRANCH  16  17
HETATM   17  C   UNL     1      -8.876   8.172  68.057  1.00  0.00    -0.131 C  
BRANCH  17  18
HETATM   18  C   UNL     1      -8.380   8.949  69.245  1.00  0.00    -0.119 C  
HETATM   19  C   UNL     1      -9.161   9.241  70.301  1.00  0.00    -0.273 C  
BRANCH  19  20
HETATM   20  C   UNL     1     -10.597   8.792  70.370  1.00  0.00    -0.251 C  
BRANCH  20  21
HETATM   21  C   UNL     1     -11.505   9.671  71.222  1.00  0.00    -0.463 C  
HETATM   22  C   UNL     1     -12.388   8.784  72.074  1.00  0.00    -0.377 C  
HETATM   23  O   UNL     1     -13.549   9.383  72.433  1.00  0.00    -0.457 OA 
HETATM   24  O   UNL     1     -12.104   7.658  72.441  1.00  0.00    -0.284 OA 
ENDBRANCH  20  21
ENDBRANCH  19  20
ENDBRANCH  17  18
ENDBRANCH  16  17
ENDBRANCH  14  15
ENDBRANCH  13  14
ENDBRANCH  11  12
ENDBRANCH  10  11
ENDBRANCH   8   9
ENDBRANCH   7   8
ENDBRANCH   5   6
ENDBRANCH   4   5
ENDBRANCH   2   3
TORSDOF 13
ENDMDL
MODEL      286
REMARK 921   NORMALIZED FREE ENERGY PREDICTED BY IDOCK:   -3.54 KCAL/MOL
REMARK 922        TOTAL FREE ENERGY PREDICTED BY IDOCK:   -9.01 KCAL/MOL
REMARK 923 INTER-LIGAND FREE ENERGY PREDICTED BY IDOCK:   -7.14 KCAL/MOL
REMARK 924 INTRA-LIGAND FREE ENERGY PREDICTED BY IDOCK:   -1.87 KCAL/MOL
REMARK 927      BINDING AFFINITY PREDICTED BY RF-SCORE:    0.00 PKD
ROOT
HETATM    1  C   UNL     1      -6.763  17.794  66.552  1.00  0.00    -0.259 C  
HETATM    2  C   UNL     1      -7.185  18.695  67.701  1.00  0.00    -0.225 C  
ENDROOT
BRANCH   2   3
HETATM    3  C   UNL     1      -7.303  20.136  67.291  1.00  0.00    -0.312 C  
HETATM    4  C   UNL     1      -8.454  20.819  67.170  1.00  0.00    -0.212 C  
BRANCH   4   5
HETATM    5  C   UNL     1      -9.832  20.242  67.333  1.00  0.00    -0.586 C  
BRANCH   5   6
HETATM    6  C   UNL     1     -10.161  19.259  66.243  1.00  0.00    -0.519 C  
HETATM    7  C   UNL     1     -10.517  17.973  66.413  1.00  0.00    -0.345 C  
BRANCH   7   8
HETATM    8  C   UNL     1     -10.616  17.287  67.744  1.00  0.00    -0.367 C  
BRANCH   8   9
HETATM    9  C   UNL     1      -9.874  15.984  67.776  1.00  0.00    -0.231 C  
HETATM   10  C   UNL     1     -10.365  14.773  67.461  1.00  0.00    -0.238 C  
BRANCH  10  11
HETATM   11  C   UNL     1     -11.741  14.463  66.937  1.00  0.00    -0.422 C  
BRANCH  11  12
HETATM   12  C   UNL     1     -12.035  12.989  66.880  1.00  0.00    -0.415 C  
HETATM   13  C   UNL     1     -11.755  12.153  65.869  1.00  0.00    -0.393 C  
BRANCH  13  14
HETATM   14  C   UNL     1     -11.156  12.549  64.560  1.00  0.00    -0.357 C  
BRANCH  14  15
HETATM   15  C   UNL     1     -10.592  11.385  63.793  1.00  0.00    -0.464 C  
HETATM   16  C   UNL     1      -9.487  10.719  64.171  1.00  0.00    -0.309 C  
BRANCH  16  17
HETATM   17  C   UNL     1      -8.649  11.087  65.358  1.00  0.00    -0.070 C  
BRANCH  17  18
HETATM   18  C   UNL     1      -7.673  10.013  65.751  1.00  0.00    -0.122 C  
HETATM   19  C   UNL     1      -7.921   9.130  66.735  1.00  0.00    -0.104 C  
BRANCH  19  20
HETATM   20  C   UNL     1      -9.213   9.149  67.509  1.00  0.00    -0.144 C  
BRANCH  20  21
HETATM   21  C   UNL     1     -10.322   8.280  66.930  1.00  0.00    -0.391 C  
HETATM   22  C   UNL     1     -10.342   6.956  67.663  1.00  0.00    -0.205 C  
HETATM   23  O   UNL     1     -10.868   5.950  66.924  1.00  0.00    -0.306 OA 
HETATM   24  O   UNL     1      -9.960   6.782  68.807  1.00  0.00    -0.141 OA 
ENDBRANCH  20  21
ENDBRANCH  19  20
ENDBRANCH  17  18
ENDBRANCH  16  17
ENDBRANCH  14  15
ENDBRANCH  13  14
ENDBRANCH  11  12
ENDBRANCH  10  11
ENDBRANCH   8   9
ENDBRANCH   7   8
ENDBRANCH   5   6
ENDBRANCH   4   5
ENDBRANCH   2   3
TORSDOF 13
ENDMDL
MODEL      287
REMARK 921   NORMALIZED FREE ENERGY PREDICTED BY IDOCK:   -3.53 KCAL/MOL
REMARK 922        TOTAL FREE ENERGY PREDICTED BY IDOCK:   -8.99 KCAL/MOL
REMARK 923 INTER-LIGAND FREE ENERGY PREDICTED BY IDOCK:   -5.93 KCAL/MOL
REMARK 924 INTRA-LIGAND FREE ENERGY PREDICTED BY IDOCK:   -3.06 KCAL/MOL
REMARK 927      BINDING AFFINITY PREDICTED BY RF-SCORE:    0.00 PKD
ROOT
HETATM    1  C   UNL     1      -9.836   9.156  66.246  1.00  0.00    -0.359 C  
HETATM    2  C   UNL     1     -10.492   8.258  67.281  1.00  0.00    -0.373 C  
ENDROOT
BRANCH   2   3
HETATM    3  C   UNL     1     -10.518   6.816  66.860  1.00  0.00    -0.350 C  
HETATM    4  C   UNL     1     -10.774   5.773  67.668  1.00  0.00    -0.313 C  
BRANCH   4   5
HETATM    5  C   UNL     1     -10.988   5.853  69.154  1.00  0.00    -0.382 C  
BRANCH   5   6
HETATM    6  C   UNL     1      -9.922   5.114  69.915  1.00  0.00    -0.316 C  
HETATM    7  C   UNL     1      -8.715   5.595  70.262  1.00  0.00    -0.134 C  
BRANCH   7   8
HETATM    8  C   UNL     1      -8.212   6.964  69.912  1.00  0.00    -0.127 C  
BRANCH   8   9
HETATM    9  C   UNL     1      -6.897   7.278  70.563  1.00  0.00    -0.053 C  
HETATM   10  C   UNL     1      -6.343   8.494  70.705  1.00  0.00    -0.037 C  
BRANCH  10  11
HETATM   11  C   UNL     1      -6.946   9.816  70.313  1.00  0.00    -0.135 C  
BRANCH  11  12
HETATM   12  C   UNL     1      -6.263  10.454  69.135  1.00  0.00    -0.041 C  
HETATM   13  C   UNL     1      -6.800  11.333  68.275  1.00  0.00    -0.064 C  
BRANCH  13  14
HETATM   14  C   UNL     1      -8.220  11.792  68.282  1.00  0.00    -0.157 C  
BRANCH  14  15
HETATM   15  C   UNL     1      -8.490  12.891  67.292  1.00  0.00    -0.197 C  
HETATM   16  C   UNL     1      -9.605  13.641  67.309  1.00  0.00    -0.238 C  
BRANCH  16  17
HETATM   17  C   UNL     1     -10.739  13.439  68.269  1.00  0.00    -0.273 C  
BRANCH  17  18
HETATM   18  C   UNL     1     -11.695  12.359  67.840  1.00  0.00    -0.421 C  
HETATM   19  C   UNL     1     -12.078  11.361  68.656  1.00  0.00    -0.214 C  
BRANCH  19  20
HETATM   20  C   UNL     1     -11.583  11.264  70.074  1.00  0.00    -0.404 C  
BRANCH  20  21
HETATM   21  C   UNL     1     -10.678  10.071  70.359  1.00  0.00    -0.369 C  
HETATM   22  C   UNL     1     -11.076   9.459  71.685  1.00  0.00    -0.339 C  
HETATM   23  O   UNL     1     -10.061   8.791  72.285  1.00  0.00    -0.311 OA 
HETATM   24  O   UNL     1     -12.188   9.516  72.178  1.00  0.00    -0.328 OA 
ENDBRANCH  20  21
ENDBRANCH  19  20
ENDBRANCH  17  18
ENDBRANCH  16  17
ENDBRANCH  14  15
ENDBRANCH  13  14
ENDBRANCH  11  12
ENDBRANCH  10  11
ENDBRANCH   8   9
ENDBRANCH   7   8
ENDBRANCH   5   6
ENDBRANCH   4   5
ENDBRANCH   2   3
TORSDOF 13
ENDMDL
MODEL      288
REMARK 921   NORMALIZED FREE ENERGY PREDICTED BY IDOCK:   -3.52 KCAL/MOL
REMARK 922        TOTAL FREE ENERGY PREDICTED BY IDOCK:   -8.98 KCAL/MOL
REMARK 923 INTER-LIGAND FREE ENERGY PREDICTED BY IDOCK:   -6.23 KCAL/MOL
REMARK 924 INTRA-LIGAND FREE ENERGY PREDICTED BY IDOCK:   -2.75 KCAL/MOL
REMARK 927      BINDING AFFINITY PREDICTED BY RF-SCORE:    0.00 PKD
ROOT
HETATM    1  C   UNL     1     -11.427   7.218  71.046  1.00  0.00    -0.316 C  
HETATM    2  C   UNL     1     -11.754   8.118  72.227  1.00  0.00    -0.439 C  
ENDROOT
BRANCH   2   3
HETATM    3  C   UNL     1     -13.096   8.779  72.093  1.00  0.00    -0.451 C  
HETATM    4  C   UNL     1     -13.317   9.987  71.547  1.00  0.00    -0.451 C  
BRANCH   4   5
HETATM    5  C   UNL     1     -12.255  10.931  71.058  1.00  0.00    -0.464 C  
BRANCH   5   6
HETATM    6  C   UNL     1     -12.063  10.838  69.569  1.00  0.00    -0.344 C  
HETATM    7  C   UNL     1     -10.926  10.505  68.934  1.00  0.00    -0.291 C  
BRANCH   7   8
HETATM    8  C   UNL     1      -9.628  10.196  69.619  1.00  0.00    -0.237 C  
BRANCH   8   9
HETATM    9  C   UNL     1      -8.650   9.505  68.715  1.00  0.00    -0.123 C  
HETATM   10  C   UNL     1      -7.312   9.638  68.730  1.00  0.00    -0.074 C  
BRANCH  10  11
HETATM   11  C   UNL     1      -6.493  10.446  69.699  1.00  0.00    -0.076 C  
BRANCH  11  12
HETATM   12  C   UNL     1      -5.297  11.100  69.064  1.00  0.00    -0.040 C  
HETATM   13  C   UNL     1      -5.311  12.075  68.141  1.00  0.00    -0.048 C  
BRANCH  13  14
HETATM   14  C   UNL     1      -6.535  12.649  67.508  1.00  0.00    -0.158 C  
BRANCH  14  15
HETATM   15  C   UNL     1      -7.433  13.349  68.489  1.00  0.00    -0.118 C  
HETATM   16  C   UNL     1      -8.578  13.957  68.136  1.00  0.00    -0.180 C  
BRANCH  16  17
HETATM   17  C   UNL     1      -9.070  14.069  66.723  1.00  0.00    -0.250 C  
BRANCH  17  18
HETATM   18  C   UNL     1      -9.989  12.947  66.325  1.00  0.00    -0.271 C  
HETATM   19  C   UNL     1     -11.328  13.033  66.426  1.00  0.00    -0.355 C  
BRANCH  19  20
HETATM   20  C   UNL     1     -12.004  14.277  66.937  1.00  0.00    -0.467 C  
BRANCH  20  21
HETATM   21  C   UNL     1     -12.171  14.343  68.450  1.00  0.00    -0.178 C  
HETATM   22  C   UNL     1     -11.550  15.627  68.957  1.00  0.00    -0.386 C  
HETATM   23  O   UNL     1     -11.154  15.549  70.251  1.00  0.00    -0.274 OA 
HETATM   24  O   UNL     1     -11.428  16.651  68.309  1.00  0.00    -0.236 OA 
ENDBRANCH  20  21
ENDBRANCH  19  20
ENDBRANCH  17  18
ENDBRANCH  16  17
ENDBRANCH  14  15
ENDBRANCH  13  14
ENDBRANCH  11  12
ENDBRANCH  10  11
ENDBRANCH   8   9
ENDBRANCH   7   8
ENDBRANCH   5   6
ENDBRANCH   4   5
ENDBRANCH   2   3
TORSDOF 13
ENDMDL
MODEL      289
REMARK 921   NORMALIZED FREE ENERGY PREDICTED BY IDOCK:   -3.51 KCAL/MOL
REMARK 922        TOTAL FREE ENERGY PREDICTED BY IDOCK:   -8.95 KCAL/MOL
REMARK 923 INTER-LIGAND FREE ENERGY PREDICTED BY IDOCK:   -6.38 KCAL/MOL
REMARK 924 INTRA-LIGAND FREE ENERGY PREDICTED BY IDOCK:   -2.57 KCAL/MOL
REMARK 927      BINDING AFFINITY PREDICTED BY RF-SCORE:    0.00 PKD
ROOT
HETATM    1  C   UNL     1     -12.422  10.644  70.468  1.00  0.00    -0.445 C  
HETATM    2  C   UNL     1     -11.095   9.931  70.275  1.00  0.00    -0.368 C  
ENDROOT
BRANCH   2   3
HETATM    3  C   UNL     1     -10.386  10.361  69.021  1.00  0.00    -0.232 C  
HETATM    4  C   UNL     1     -10.117   9.569  67.969  1.00  0.00    -0.226 C  
BRANCH   4   5
HETATM    5  C   UNL     1     -10.390   8.093  67.896  1.00  0.00    -0.280 C  
BRANCH   5   6
HETATM    6  C   UNL     1      -9.134   7.280  68.050  1.00  0.00    -0.133 C  
HETATM    7  C   UNL     1      -8.359   6.818  67.052  1.00  0.00    -0.114 C  
BRANCH   7   8
HETATM    8  C   UNL     1      -8.645   7.013  65.592  1.00  0.00    -0.121 C  
BRANCH   8   9
HETATM    9  C   UNL     1      -7.506   7.664  64.865  1.00  0.00    -0.092 C  
HETATM   10  C   UNL     1      -7.392   8.966  64.555  1.00  0.00    -0.102 C  
BRANCH  10  11
HETATM   11  C   UNL     1      -8.340  10.073  64.931  1.00  0.00    -0.160 C  
BRANCH  11  12
HETATM   12  C   UNL     1      -9.395  10.330  63.890  1.00  0.00    -0.337 C  
HETATM   13  C   UNL     1     -10.505  11.069  64.038  1.00  0.00    -0.433 C  
BRANCH  13  14
HETATM   14  C   UNL     1     -10.945  11.724  65.305  1.00  0.00    -0.350 C  
BRANCH  14  15
HETATM   15  C   UNL     1     -12.094  12.675  65.110  1.00  0.00    -0.508 C  
HETATM   16  C   UNL     1     -12.441  13.606  66.015  1.00  0.00    -0.477 C  
BRANCH  16  17
HETATM   17  C   UNL     1     -11.775  13.773  67.348  1.00  0.00    -0.417 C  
BRANCH  17  18
HETATM   18  C   UNL     1     -11.649  15.211  67.772  1.00  0.00    -0.303 C  
HETATM   19  C   UNL     1     -10.605  15.984  67.421  1.00  0.00    -0.316 C  
BRANCH  19  20
HETATM   20  C   UNL     1      -9.487  15.460  66.559  1.00  0.00    -0.298 C  
BRANCH  20  21
HETATM   21  C   UNL     1      -8.132  15.368  67.248  1.00  0.00    -0.228 C  
HETATM   22  C   UNL     1      -7.868  13.926  67.624  1.00  0.00    -0.179 C  
HETATM   23  O   UNL     1      -7.018  13.800  68.671  1.00  0.00    -0.089 OA 
HETATM   24  O   UNL     1      -8.330  12.956  67.050  1.00  0.00    -0.174 OA 
ENDBRANCH  20  21
ENDBRANCH  19  20
ENDBRANCH  17  18
ENDBRANCH  16  17
ENDBRANCH  14  15
ENDBRANCH  13  14
ENDBRANCH  11  12
ENDBRANCH  10  11
ENDBRANCH   8   9
ENDBRANCH   7   8
ENDBRANCH   5   6
ENDBRANCH   4   5
ENDBRANCH   2   3
TORSDOF 13
ENDMDL
MODEL      290
REMARK 921   NORMALIZED FREE ENERGY PREDICTED BY IDOCK:   -3.50 KCAL/MOL
REMARK 922        TOTAL FREE ENERGY PREDICTED BY IDOCK:   -8.94 KCAL/MOL
REMARK 923 INTER-LIGAND FREE ENERGY PREDICTED BY IDOCK:   -7.11 KCAL/MOL
REMARK 924 INTRA-LIGAND FREE ENERGY PREDICTED BY IDOCK:   -1.83 KCAL/MOL
REMARK 927      BINDING AFFINITY PREDICTED BY RF-SCORE:    0.00 PKD
ROOT
HETATM    1  C   UNL     1     -12.437  12.053  63.651  1.00  0.00    -0.637 C  
HETATM    2  C   UNL     1     -12.054  12.702  64.971  1.00  0.00    -0.497 C  
ENDROOT
BRANCH   2   3
HETATM    3  C   UNL     1     -10.638  12.398  65.373  1.00  0.00    -0.316 C  
HETATM    4  C   UNL     1     -10.271  11.699  66.460  1.00  0.00    -0.249 C  
BRANCH   4   5
HETATM    5  C   UNL     1     -11.203  11.175  67.516  1.00  0.00    -0.369 C  
BRANCH   5   6
HETATM    6  C   UNL     1     -11.631  12.255  68.472  1.00  0.00    -0.359 C  
HETATM    7  C   UNL     1     -11.895  12.098  69.781  1.00  0.00    -0.397 C  
BRANCH   7   8
HETATM    8  C   UNL     1     -11.836  10.788  70.510  1.00  0.00    -0.453 C  
BRANCH   8   9
HETATM    9  C   UNL     1     -13.178  10.353  71.021  1.00  0.00    -0.361 C  
HETATM   10  C   UNL     1     -13.444   9.243  71.731  1.00  0.00    -0.483 C  
BRANCH  10  11
HETATM   11  C   UNL     1     -12.452   8.231  72.237  1.00  0.00    -0.384 C  
BRANCH  11  12
HETATM   12  C   UNL     1     -12.516   6.920  71.503  1.00  0.00    -0.420 C  
HETATM   13  C   UNL     1     -11.582   6.413  70.683  1.00  0.00    -0.412 C  
BRANCH  13  14
HETATM   14  C   UNL     1     -10.319   7.100  70.281  1.00  0.00    -0.214 C  
BRANCH  14  15
HETATM   15  C   UNL     1     -10.465   7.920  69.030  1.00  0.00    -0.210 C  
HETATM   16  C   UNL     1      -9.984   7.534  67.835  1.00  0.00    -0.203 C  
BRANCH  16  17
HETATM   17  C   UNL     1      -9.194   6.279  67.613  1.00  0.00    -0.111 C  
BRANCH  17  18
HETATM   18  C   UNL     1      -8.445   6.273  66.309  1.00  0.00    -0.133 C  
HETATM   19  C   UNL     1      -8.760   5.449  65.293  1.00  0.00    -0.145 C  
BRANCH  19  20
HETATM   20  C   UNL     1      -9.905   4.477  65.389  1.00  0.00    -0.204 C  
BRANCH  20  21
HETATM   21  C   UNL     1      -9.585   3.058  64.936  1.00  0.00    -0.099 C  
HETATM   22  C   UNL     1     -10.160   2.842  63.553  1.00  0.00    -0.159 C  
HETATM   23  O   UNL     1     -10.420   1.539  63.286  1.00  0.00    -0.121 OA 
HETATM   24  O   UNL     1     -10.355   3.719  62.730  1.00  0.00    -0.172 OA 
ENDBRANCH  20  21
ENDBRANCH  19  20
ENDBRANCH  17  18
ENDBRANCH  16  17
ENDBRANCH  14  15
ENDBRANCH  13  14
ENDBRANCH  11  12
ENDBRANCH  10  11
ENDBRANCH   8   9
ENDBRANCH   7   8
ENDBRANCH   5   6
ENDBRANCH   4   5
ENDBRANCH   2   3
TORSDOF 13
ENDMDL
MODEL      291
REMARK 921   NORMALIZED FREE ENERGY PREDICTED BY IDOCK:   -3.50 KCAL/MOL
REMARK 922        TOTAL FREE ENERGY PREDICTED BY IDOCK:   -8.94 KCAL/MOL
REMARK 923 INTER-LIGAND FREE ENERGY PREDICTED BY IDOCK:   -7.38 KCAL/MOL
REMARK 924 INTRA-LIGAND FREE ENERGY PREDICTED BY IDOCK:   -1.55 KCAL/MOL
REMARK 927      BINDING AFFINITY PREDICTED BY RF-SCORE:    0.00 PKD
ROOT
HETATM    1  C   UNL     1      -7.949   3.786  74.252  1.00  0.00    -0.078 C  
HETATM    2  C   UNL     1      -9.435   3.669  74.550  1.00  0.00    -0.133 C  
ENDROOT
BRANCH   2   3
HETATM    3  C   UNL     1     -10.138   4.996  74.504  1.00  0.00    -0.278 C  
HETATM    4  C   UNL     1     -10.720   5.531  73.417  1.00  0.00    -0.317 C  
BRANCH   4   5
HETATM    5  C   UNL     1     -10.692   4.943  72.034  1.00  0.00    -0.161 C  
BRANCH   5   6
HETATM    6  C   UNL     1      -9.642   5.587  71.171  1.00  0.00    -0.207 C  
HETATM    7  C   UNL     1      -9.845   6.180  69.982  1.00  0.00    -0.207 C  
BRANCH   7   8
HETATM    8  C   UNL     1     -11.174   6.270  69.292  1.00  0.00    -0.458 C  
BRANCH   8   9
HETATM    9  C   UNL     1     -11.057   6.160  67.800  1.00  0.00    -0.306 C  
HETATM   10  C   UNL     1     -10.777   7.156  66.942  1.00  0.00    -0.363 C  
BRANCH  10  11
HETATM   11  C   UNL     1     -10.446   8.583  67.287  1.00  0.00    -0.366 C  
BRANCH  11  12
HETATM   12  C   UNL     1      -8.993   8.918  67.095  1.00  0.00    -0.141 C  
HETATM   13  C   UNL     1      -8.493   9.958  66.409  1.00  0.00    -0.128 C  
BRANCH  13  14
HETATM   14  C   UNL     1      -9.296  10.949  65.634  1.00  0.00    -0.236 C  
BRANCH  14  15
HETATM   15  C   UNL     1      -9.937  10.360  64.409  1.00  0.00    -0.388 C  
HETATM   16  C   UNL     1     -10.592  11.096  63.493  1.00  0.00    -0.393 C  
BRANCH  16  17
HETATM   17  C   UNL     1     -10.817  12.574  63.608  1.00  0.00    -0.486 C  
BRANCH  17  18
HETATM   18  C   UNL     1     -12.271  12.946  63.711  1.00  0.00    -0.555 C  
HETATM   19  C   UNL     1     -12.893  13.131  64.890  1.00  0.00    -0.349 C  
BRANCH  19  20
HETATM   20  C   UNL     1     -12.164  12.990  66.199  1.00  0.00    -0.428 C  
BRANCH  20  21
HETATM   21  C   UNL     1     -11.493  14.262  66.703  1.00  0.00    -0.374 C  
HETATM   22  C   UNL     1     -11.787  14.421  68.179  1.00  0.00    -0.327 C  
HETATM   23  O   UNL     1     -11.731  15.710  68.594  1.00  0.00    -0.366 OA 
HETATM   24  O   UNL     1     -12.025  13.508  68.949  1.00  0.00    -0.336 OA 
ENDBRANCH  20  21
ENDBRANCH  19  20
ENDBRANCH  17  18
ENDBRANCH  16  17
ENDBRANCH  14  15
ENDBRANCH  13  14
ENDBRANCH  11  12
ENDBRANCH  10  11
ENDBRANCH   8   9
ENDBRANCH   7   8
ENDBRANCH   5   6
ENDBRANCH   4   5
ENDBRANCH   2   3
TORSDOF 13
ENDMDL
MODEL      292
REMARK 921   NORMALIZED FREE ENERGY PREDICTED BY IDOCK:   -3.50 KCAL/MOL
REMARK 922        TOTAL FREE ENERGY PREDICTED BY IDOCK:   -8.93 KCAL/MOL
REMARK 923 INTER-LIGAND FREE ENERGY PREDICTED BY IDOCK:   -5.95 KCAL/MOL
REMARK 924 INTRA-LIGAND FREE ENERGY PREDICTED BY IDOCK:   -2.99 KCAL/MOL
REMARK 927      BINDING AFFINITY PREDICTED BY RF-SCORE:    0.00 PKD
ROOT
HETATM    1  C   UNL     1      -9.706  10.598  64.343  1.00  0.00    -0.368 C  
HETATM    2  C   UNL     1     -10.284  10.428  65.738  1.00  0.00    -0.305 C  
ENDROOT
BRANCH   2   3
HETATM    3  C   UNL     1      -9.911   9.112  66.360  1.00  0.00    -0.358 C  
HETATM    4  C   UNL     1     -10.013   8.812  67.667  1.00  0.00    -0.247 C  
BRANCH   4   5
HETATM    5  C   UNL     1     -10.427   9.766  68.751  1.00  0.00    -0.240 C  
BRANCH   5   6
HETATM    6  C   UNL     1      -9.855   9.381  70.087  1.00  0.00    -0.272 C  
HETATM    7  C   UNL     1      -8.551   9.365  70.418  1.00  0.00    -0.266 C  
BRANCH   7   8
HETATM    8  C   UNL     1      -7.431   9.705  69.480  1.00  0.00    -0.096 C  
BRANCH   8   9
HETATM    9  C   UNL     1      -6.854  11.065  69.742  1.00  0.00    -0.116 C  
HETATM   10  C   UNL     1      -7.040  12.170  69.000  1.00  0.00    -0.062 C  
BRANCH  10  11
HETATM   11  C   UNL     1      -7.924  12.312  67.790  1.00  0.00    -0.154 C  
BRANCH  11  12
HETATM   12  C   UNL     1      -9.248  12.955  68.095  1.00  0.00    -0.212 C  
HETATM   13  C   UNL     1      -9.977  13.722  67.269  1.00  0.00    -0.239 C  
BRANCH  13  14
HETATM   14  C   UNL     1      -9.567  14.148  65.898  1.00  0.00    -0.208 C  
BRANCH  14  15
HETATM   15  C   UNL     1     -10.654  14.875  65.156  1.00  0.00    -0.450 C  
HETATM   16  C   UNL     1     -10.837  16.204  65.232  1.00  0.00    -0.349 C  
BRANCH  16  17
HETATM   17  C   UNL     1     -10.027  17.115  66.105  1.00  0.00    -0.296 C  
BRANCH  17  18
HETATM   18  C   UNL     1     -10.642  17.342  67.459  1.00  0.00    -0.329 C  
HETATM   19  C   UNL     1      -9.907  17.551  68.566  1.00  0.00    -0.330 C  
BRANCH  19  20
HETATM   20  C   UNL     1      -8.403  17.588  68.522  1.00  0.00    -0.274 C  
BRANCH  20  21
HETATM   21  C   UNL     1      -7.714  16.315  68.999  1.00  0.00    -0.224 C  
HETATM   22  C   UNL     1      -6.300  16.651  69.422  1.00  0.00    -0.215 C  
HETATM   23  O   UNL     1      -5.458  15.593  69.337  1.00  0.00    -0.105 OA 
HETATM   24  O   UNL     1      -5.929  17.738  69.827  1.00  0.00    -0.236 OA 
ENDBRANCH  20  21
ENDBRANCH  19  20
ENDBRANCH  17  18
ENDBRANCH  16  17
ENDBRANCH  14  15
ENDBRANCH  13  14
ENDBRANCH  11  12
ENDBRANCH  10  11
ENDBRANCH   8   9
ENDBRANCH   7   8
ENDBRANCH   5   6
ENDBRANCH   4   5
ENDBRANCH   2   3
TORSDOF 13
ENDMDL
MODEL      293
REMARK 921   NORMALIZED FREE ENERGY PREDICTED BY IDOCK:   -3.49 KCAL/MOL
REMARK 922        TOTAL FREE ENERGY PREDICTED BY IDOCK:   -8.93 KCAL/MOL
REMARK 923 INTER-LIGAND FREE ENERGY PREDICTED BY IDOCK:   -7.60 KCAL/MOL
REMARK 924 INTRA-LIGAND FREE ENERGY PREDICTED BY IDOCK:   -1.33 KCAL/MOL
REMARK 927      BINDING AFFINITY PREDICTED BY RF-SCORE:    0.00 PKD
ROOT
HETATM    1  C   UNL     1     -11.097  15.312  70.473  1.00  0.00    -0.335 C  
HETATM    2  C   UNL     1     -12.452  14.687  70.184  1.00  0.00    -0.369 C  
ENDROOT
BRANCH   2   3
HETATM    3  C   UNL     1     -13.217  14.363  71.436  1.00  0.00    -0.418 C  
HETATM    4  C   UNL     1     -13.306  13.147  72.002  1.00  0.00    -0.587 C  
BRANCH   4   5
HETATM    5  C   UNL     1     -12.735  11.878  71.434  1.00  0.00    -0.395 C  
BRANCH   5   6
HETATM    6  C   UNL     1     -13.399  10.657  72.011  1.00  0.00    -0.409 C  
HETATM    7  C   UNL     1     -12.883   9.416  72.051  1.00  0.00    -0.496 C  
BRANCH   7   8
HETATM    8  C   UNL     1     -11.546   9.032  71.488  1.00  0.00    -0.413 C  
BRANCH   8   9
HETATM    9  C   UNL     1     -10.722   8.234  72.455  1.00  0.00    -0.411 C  
HETATM   10  C   UNL     1      -9.392   8.048  72.412  1.00  0.00    -0.272 C  
BRANCH  10  11
HETATM   11  C   UNL     1      -8.423   8.657  71.435  1.00  0.00    -0.240 C  
BRANCH  11  12
HETATM   12  C   UNL     1      -8.980   8.775  70.043  1.00  0.00    -0.162 C  
HETATM   13  C   UNL     1      -8.609   9.657  69.102  1.00  0.00    -0.146 C  
BRANCH  13  14
HETATM   14  C   UNL     1      -7.611  10.751  69.288  1.00  0.00    -0.129 C  
BRANCH  14  15
HETATM   15  C   UNL     1      -6.829  11.055  68.041  1.00  0.00    -0.067 C  
HETATM   16  C   UNL     1      -7.223  11.955  67.124  1.00  0.00    -0.144 C  
BRANCH  16  17
HETATM   17  C   UNL     1      -8.512  12.719  67.197  1.00  0.00    -0.181 C  
BRANCH  17  18
HETATM   18  C   UNL     1      -8.389  14.020  67.941  1.00  0.00    -0.168 C  
HETATM   19  C   UNL     1      -9.027  15.141  67.558  1.00  0.00    -0.187 C  
BRANCH  19  20
HETATM   20  C   UNL     1      -9.928  15.164  66.352  1.00  0.00    -0.288 C  
BRANCH  20  21
HETATM   21  C   UNL     1     -11.329  14.612  66.585  1.00  0.00    -0.358 C  
HETATM   22  C   UNL     1     -11.743  13.799  65.377  1.00  0.00    -0.335 C  
HETATM   23  O   UNL     1     -13.087  13.729  65.223  1.00  0.00    -0.756 OA 
HETATM   24  O   UNL     1     -10.978  13.230  64.619  1.00  0.00    -0.331 OA 
ENDBRANCH  20  21
ENDBRANCH  19  20
ENDBRANCH  17  18
ENDBRANCH  16  17
ENDBRANCH  14  15
ENDBRANCH  13  14
ENDBRANCH  11  12
ENDBRANCH  10  11
ENDBRANCH   8   9
ENDBRANCH   7   8
ENDBRANCH   5   6
ENDBRANCH   4   5
ENDBRANCH   2   3
TORSDOF 13
ENDMDL
MODEL      294
REMARK 921   NORMALIZED FREE ENERGY PREDICTED BY IDOCK:   -3.49 KCAL/MOL
REMARK 922        TOTAL FREE ENERGY PREDICTED BY IDOCK:   -8.92 KCAL/MOL
REMARK 923 INTER-LIGAND FREE ENERGY PREDICTED BY IDOCK:   -5.96 KCAL/MOL
REMARK 924 INTRA-LIGAND FREE ENERGY PREDICTED BY IDOCK:   -2.96 KCAL/MOL
REMARK 927      BINDING AFFINITY PREDICTED BY RF-SCORE:    0.00 PKD
ROOT
HETATM    1  C   UNL     1     -12.510  13.089  65.310  1.00  0.00    -0.555 C  
HETATM    2  C   UNL     1     -11.148  12.430  65.455  1.00  0.00    -0.344 C  
ENDROOT
BRANCH   2   3
HETATM    3  C   UNL     1     -11.149  11.322  66.470  1.00  0.00    -0.280 C  
HETATM    4  C   UNL     1     -11.071  11.486  67.801  1.00  0.00    -0.319 C  
BRANCH   4   5
HETATM    5  C   UNL     1     -10.878  12.798  68.509  1.00  0.00    -0.279 C  
BRANCH   5   6
HETATM    6  C   UNL     1     -11.698  12.884  69.767  1.00  0.00    -0.351 C  
HETATM    7  C   UNL     1     -12.285  13.990  70.258  1.00  0.00    -0.430 C  
BRANCH   7   8
HETATM    8  C   UNL     1     -12.188  15.352  69.637  1.00  0.00    -0.312 C  
BRANCH   8   9
HETATM    9  C   UNL     1     -10.961  16.098  70.073  1.00  0.00    -0.364 C  
HETATM   10  C   UNL     1     -10.203  16.906  69.314  1.00  0.00    -0.262 C  
BRANCH  10  11
HETATM   11  C   UNL     1     -10.452  17.304  67.884  1.00  0.00    -0.382 C  
BRANCH  11  12
HETATM   12  C   UNL     1     -10.507  16.132  66.943  1.00  0.00    -0.300 C  
HETATM   13  C   UNL     1      -9.469  15.389  66.527  1.00  0.00    -0.298 C  
BRANCH  13  14
HETATM   14  C   UNL     1      -8.037  15.636  66.865  1.00  0.00    -0.290 C  
BRANCH  14  15
HETATM   15  C   UNL     1      -7.627  15.029  68.178  1.00  0.00    -0.113 C  
HETATM   16  C   UNL     1      -7.337  13.725  68.328  1.00  0.00    -0.118 C  
BRANCH  16  17
HETATM   17  C   UNL     1      -7.443  12.709  67.231  1.00  0.00    -0.111 C  
BRANCH  17  18
HETATM   18  C   UNL     1      -6.325  11.703  67.243  1.00  0.00    -0.118 C  
HETATM   19  C   UNL     1      -6.444  10.490  67.811  1.00  0.00    -0.060 C  
BRANCH  19  20
HETATM   20  C   UNL     1      -7.723  10.046  68.468  1.00  0.00    -0.089 C  
BRANCH  20  21
HETATM   21  C   UNL     1      -8.477   8.945  67.732  1.00  0.00    -0.125 C  
HETATM   22  C   UNL     1      -9.407   8.252  68.704  1.00  0.00    -0.143 C  
HETATM   23  O   UNL     1      -9.696   6.978  68.342  1.00  0.00    -0.138 OA 
HETATM   24  O   UNL     1      -9.886   8.761  69.701  1.00  0.00    -0.177 OA 
ENDBRANCH  20  21
ENDBRANCH  19  20
ENDBRANCH  17  18
ENDBRANCH  16  17
ENDBRANCH  14  15
ENDBRANCH  13  14
ENDBRANCH  11  12
ENDBRANCH  10  11
ENDBRANCH   8   9
ENDBRANCH   7   8
ENDBRANCH   5   6
ENDBRANCH   4   5
ENDBRANCH   2   3
TORSDOF 13
ENDMDL
MODEL      295
REMARK 921   NORMALIZED FREE ENERGY PREDICTED BY IDOCK:   -3.49 KCAL/MOL
REMARK 922        TOTAL FREE ENERGY PREDICTED BY IDOCK:   -8.92 KCAL/MOL
REMARK 923 INTER-LIGAND FREE ENERGY PREDICTED BY IDOCK:   -6.73 KCAL/MOL
REMARK 924 INTRA-LIGAND FREE ENERGY PREDICTED BY IDOCK:   -2.19 KCAL/MOL
REMARK 927      BINDING AFFINITY PREDICTED BY RF-SCORE:    0.00 PKD
ROOT
HETATM    1  C   UNL     1     -11.370   7.390  71.132  1.00  0.00    -0.291 C  
HETATM    2  C   UNL     1     -11.784   8.198  72.350  1.00  0.00    -0.461 C  
ENDROOT
BRANCH   2   3
HETATM    3  C   UNL     1     -12.993   9.053  72.092  1.00  0.00    -0.490 C  
HETATM    4  C   UNL     1     -13.009  10.173  71.350  1.00  0.00    -0.528 C  
BRANCH   4   5
HETATM    5  C   UNL     1     -11.807  10.822  70.724  1.00  0.00    -0.443 C  
BRANCH   5   6
HETATM    6  C   UNL     1     -12.111  11.368  69.355  1.00  0.00    -0.358 C  
HETATM    7  C   UNL     1     -11.547  10.974  68.200  1.00  0.00    -0.345 C  
BRANCH   7   8
HETATM    8  C   UNL     1     -10.477   9.929  68.088  1.00  0.00    -0.256 C  
BRANCH   8   9
HETATM    9  C   UNL     1     -10.272   9.463  66.676  1.00  0.00    -0.319 C  
HETATM   10  C   UNL     1      -9.208   8.796  66.199  1.00  0.00    -0.273 C  
BRANCH  10  11
HETATM   11  C   UNL     1      -8.023   8.301  66.982  1.00  0.00    -0.100 C  
BRANCH  11  12
HETATM   12  C   UNL     1      -6.706   8.623  66.331  1.00  0.00    -0.070 C  
HETATM   13  C   UNL     1      -6.144   9.836  66.213  1.00  0.00    -0.064 C  
BRANCH  13  14
HETATM   14  C   UNL     1      -6.766  11.123  66.646  1.00  0.00    -0.137 C  
BRANCH  14  15
HETATM   15  C   UNL     1      -6.949  11.218  68.135  1.00  0.00    -0.069 C  
HETATM   16  C   UNL     1      -7.484  12.290  68.745  1.00  0.00    -0.065 C  
BRANCH  16  17
HETATM   17  C   UNL     1      -7.904  13.540  68.031  1.00  0.00    -0.147 C  
BRANCH  17  18
HETATM   18  C   UNL     1      -9.215  13.398  67.309  1.00  0.00    -0.222 C  
HETATM   19  C   UNL     1     -10.312  14.099  67.649  1.00  0.00    -0.241 C  
BRANCH  19  20
HETATM   20  C   UNL     1     -10.297  15.093  68.779  1.00  0.00    -0.236 C  
BRANCH  20  21
HETATM   21  C   UNL     1     -11.647  15.720  69.103  1.00  0.00    -0.399 C  
HETATM   22  C   UNL     1     -11.959  15.488  70.566  1.00  0.00    -0.371 C  
HETATM   23  O   UNL     1     -13.287  15.498  70.832  1.00  0.00    -0.492 OA 
HETATM   24  O   UNL     1     -11.128  15.334  71.444  1.00  0.00    -0.348 OA 
ENDBRANCH  20  21
ENDBRANCH  19  20
ENDBRANCH  17  18
ENDBRANCH  16  17
ENDBRANCH  14  15
ENDBRANCH  13  14
ENDBRANCH  11  12
ENDBRANCH  10  11
ENDBRANCH   8   9
ENDBRANCH   7   8
ENDBRANCH   5   6
ENDBRANCH   4   5
ENDBRANCH   2   3
TORSDOF 13
ENDMDL
MODEL      296
REMARK 921   NORMALIZED FREE ENERGY PREDICTED BY IDOCK:   -3.47 KCAL/MOL
REMARK 922        TOTAL FREE ENERGY PREDICTED BY IDOCK:   -8.89 KCAL/MOL
REMARK 923 INTER-LIGAND FREE ENERGY PREDICTED BY IDOCK:   -6.36 KCAL/MOL
REMARK 924 INTRA-LIGAND FREE ENERGY PREDICTED BY IDOCK:   -2.52 KCAL/MOL
REMARK 927      BINDING AFFINITY PREDICTED BY RF-SCORE:    0.00 PKD
ROOT
HETATM    1  C   UNL     1     -11.105  15.205  66.120  1.00  0.00    -0.311 C  
HETATM    2  C   UNL     1     -12.044  14.043  66.399  1.00  0.00    -0.483 C  
ENDROOT
BRANCH   2   3
HETATM    3  C   UNL     1     -12.286  13.193  65.184  1.00  0.00    -0.497 C  
HETATM    4  C   UNL     1     -11.597  12.085  64.860  1.00  0.00    -0.332 C  
BRANCH   4   5
HETATM    5  C   UNL     1     -10.404  11.551  65.602  1.00  0.00    -0.308 C  
BRANCH   5   6
HETATM    6  C   UNL     1     -10.157  10.099  65.297  1.00  0.00    -0.344 C  
HETATM    7  C   UNL     1      -9.055   9.585  64.723  1.00  0.00    -0.271 C  
BRANCH   7   8
HETATM    8  C   UNL     1      -7.882  10.395  64.255  1.00  0.00    -0.058 C  
BRANCH   8   9
HETATM    9  C   UNL     1      -6.621  10.064  64.997  1.00  0.00    -0.124 C  
HETATM   10  C   UNL     1      -6.248  10.539  66.197  1.00  0.00    -0.111 C  
BRANCH  10  11
HETATM   11  C   UNL     1      -7.041  11.447  67.098  1.00  0.00    -0.134 C  
BRANCH  11  12
HETATM   12  C   UNL     1      -6.948  11.070  68.551  1.00  0.00    -0.070 C  
HETATM   13  C   UNL     1      -7.796  10.282  69.231  1.00  0.00    -0.142 C  
BRANCH  13  14
HETATM   14  C   UNL     1      -9.049   9.684  68.684  1.00  0.00    -0.132 C  
BRANCH  14  15
HETATM   15  C   UNL     1      -8.837   8.329  68.069  1.00  0.00    -0.135 C  
HETATM   16  C   UNL     1      -9.087   7.178  68.717  1.00  0.00    -0.134 C  
BRANCH  16  17
HETATM   17  C   UNL     1      -9.545   7.099  70.143  1.00  0.00    -0.168 C  
BRANCH  17  18
HETATM   18  C   UNL     1     -10.964   6.620  70.284  1.00  0.00    -0.355 C  
HETATM   19  C   UNL     1     -11.810   7.114  71.206  1.00  0.00    -0.355 C  
BRANCH  19  20
HETATM   20  C   UNL     1     -11.393   8.201  72.160  1.00  0.00    -0.399 C  
BRANCH  20  21
HETATM   21  C   UNL     1     -11.328   9.598  71.555  1.00  0.00    -0.420 C  
HETATM   22  C   UNL     1     -12.730  10.163  71.471  1.00  0.00    -0.436 C  
HETATM   23  O   UNL     1     -12.866  11.099  70.501  1.00  0.00    -0.235 OA 
HETATM   24  O   UNL     1     -13.655   9.853  72.200  1.00  0.00    -0.409 OA 
ENDBRANCH  20  21
ENDBRANCH  19  20
ENDBRANCH  17  18
ENDBRANCH  16  17
ENDBRANCH  14  15
ENDBRANCH  13  14
ENDBRANCH  11  12
ENDBRANCH  10  11
ENDBRANCH   8   9
ENDBRANCH   7   8
ENDBRANCH   5   6
ENDBRANCH   4   5
ENDBRANCH   2   3
TORSDOF 13
ENDMDL
MODEL      297
REMARK 921   NORMALIZED FREE ENERGY PREDICTED BY IDOCK:   -3.47 KCAL/MOL
REMARK 922        TOTAL FREE ENERGY PREDICTED BY IDOCK:   -8.88 KCAL/MOL
REMARK 923 INTER-LIGAND FREE ENERGY PREDICTED BY IDOCK:   -6.46 KCAL/MOL
REMARK 924 INTRA-LIGAND FREE ENERGY PREDICTED BY IDOCK:   -2.42 KCAL/MOL
REMARK 927      BINDING AFFINITY PREDICTED BY RF-SCORE:    0.00 PKD
ROOT
HETATM    1  C   UNL     1     -11.501   6.346  69.665  1.00  0.00    -0.446 C  
HETATM    2  C   UNL     1     -10.688   6.316  70.948  1.00  0.00    -0.314 C  
ENDROOT
BRANCH   2   3
HETATM    3  C   UNL     1     -10.889   7.546  71.787  1.00  0.00    -0.261 C  
HETATM    4  C   UNL     1     -10.344   8.751  71.544  1.00  0.00    -0.374 C  
BRANCH   4   5
HETATM    5  C   UNL     1      -9.364   9.060  70.447  1.00  0.00    -0.244 C  
BRANCH   5   6
HETATM    6  C   UNL     1      -7.940   8.897  70.904  1.00  0.00    -0.173 C  
HETATM    7  C   UNL     1      -6.843   8.984  70.131  1.00  0.00    -0.045 C  
BRANCH   7   8
HETATM    8  C   UNL     1      -6.862   9.229  68.651  1.00  0.00    -0.061 C  
BRANCH   8   9
HETATM    9  C   UNL     1      -6.795   7.958  67.856  1.00  0.00    -0.072 C  
HETATM   10  C   UNL     1      -7.816   7.347  67.233  1.00  0.00    -0.114 C  
BRANCH  10  11
HETATM   11  C   UNL     1      -9.236   7.835  67.128  1.00  0.00    -0.174 C  
BRANCH  11  12
HETATM   12  C   UNL     1      -9.453   8.786  65.983  1.00  0.00    -0.302 C  
HETATM   13  C   UNL     1      -9.787  10.083  66.069  1.00  0.00    -0.321 C  
BRANCH  13  14
HETATM   14  C   UNL     1     -10.085  10.817  67.334  1.00  0.00    -0.227 C  
BRANCH  14  15
HETATM   15  C   UNL     1     -11.354  10.360  67.998  1.00  0.00    -0.277 C  
HETATM   16  C   UNL     1     -12.048  11.119  68.863  1.00  0.00    -0.276 C  
BRANCH  16  17
HETATM   17  C   UNL     1     -11.617  12.480  69.320  1.00  0.00    -0.378 C  
BRANCH  17  18
HETATM   18  C   UNL     1     -12.253  12.900  70.617  1.00  0.00    -0.386 C  
HETATM   19  C   UNL     1     -12.541  14.182  70.904  1.00  0.00    -0.433 C  
BRANCH  19  20
HETATM   20  C   UNL     1     -12.255  15.294  69.931  1.00  0.00    -0.357 C  
BRANCH  20  21
HETATM   21  C   UNL     1     -10.994  16.098  70.224  1.00  0.00    -0.345 C  
HETATM   22  C   UNL     1     -10.417  16.599  68.918  1.00  0.00    -0.322 C  
HETATM   23  O   UNL     1      -9.083  16.829  68.983  1.00  0.00    -0.256 OA 
HETATM   24  O   UNL     1     -11.057  16.812  67.904  1.00  0.00    -0.302 OA 
ENDBRANCH  20  21
ENDBRANCH  19  20
ENDBRANCH  17  18
ENDBRANCH  16  17
ENDBRANCH  14  15
ENDBRANCH  13  14
ENDBRANCH  11  12
ENDBRANCH  10  11
ENDBRANCH   8   9
ENDBRANCH   7   8
ENDBRANCH   5   6
ENDBRANCH   4   5
ENDBRANCH   2   3
TORSDOF 13
ENDMDL
MODEL      298
REMARK 921   NORMALIZED FREE ENERGY PREDICTED BY IDOCK:   -3.46 KCAL/MOL
REMARK 922        TOTAL FREE ENERGY PREDICTED BY IDOCK:   -8.87 KCAL/MOL
REMARK 923 INTER-LIGAND FREE ENERGY PREDICTED BY IDOCK:   -6.77 KCAL/MOL
REMARK 924 INTRA-LIGAND FREE ENERGY PREDICTED BY IDOCK:   -2.10 KCAL/MOL
REMARK 927      BINDING AFFINITY PREDICTED BY RF-SCORE:    0.00 PKD
ROOT
HETATM    1  C   UNL     1      -9.210   3.463  66.982  1.00  0.00    -0.208 C  
HETATM    2  C   UNL     1      -9.933   4.644  66.356  1.00  0.00    -0.267 C  
ENDROOT
BRANCH   2   3
HETATM    3  C   UNL     1      -9.210   5.943  66.570  1.00  0.00    -0.154 C  
HETATM    4  C   UNL     1      -9.664   6.975  67.302  1.00  0.00    -0.189 C  
BRANCH   4   5
HETATM    5  C   UNL     1     -11.014   7.051  67.958  1.00  0.00    -0.185 C  
BRANCH   5   6
HETATM    6  C   UNL     1     -11.020   6.387  69.308  1.00  0.00    -0.418 C  
HETATM    7  C   UNL     1     -11.416   6.945  70.466  1.00  0.00    -0.390 C  
BRANCH   7   8
HETATM    8  C   UNL     1     -11.895   8.359  70.609  1.00  0.00    -0.100 C  
BRANCH   8   9
HETATM    9  C   UNL     1     -10.767   9.334  70.780  1.00  0.00    -0.350 C  
HETATM   10  C   UNL     1     -10.607  10.498  70.126  1.00  0.00    -0.163 C  
BRANCH  10  11
HETATM   11  C   UNL     1     -11.555  11.119  69.136  1.00  0.00    -0.393 C  
BRANCH  11  12
HETATM   12  C   UNL     1     -11.282  10.709  67.715  1.00  0.00    -0.383 C  
HETATM   13  C   UNL     1     -10.443  11.307  66.855  1.00  0.00    -0.286 C  
BRANCH  13  14
HETATM   14  C   UNL     1      -9.669  12.554  67.127  1.00  0.00    -0.205 C  
BRANCH  14  15
HETATM   15  C   UNL     1      -8.347  12.294  67.793  1.00  0.00    -0.162 C  
HETATM   16  C   UNL     1      -7.564  13.270  68.283  1.00  0.00    -0.139 C  
BRANCH  16  17
HETATM   17  C   UNL     1      -7.876  14.733  68.173  1.00  0.00    -0.125 C  
BRANCH  17  18
HETATM   18  C   UNL     1      -8.673  15.258  69.335  1.00  0.00    -0.216 C  
HETATM   19  C   UNL     1      -9.743  16.060  69.180  1.00  0.00    -0.251 C  
BRANCH  19  20
HETATM   20  C   UNL     1     -10.227  16.478  67.817  1.00  0.00    -0.278 C  
BRANCH  20  21
HETATM   21  C   UNL     1     -10.567  17.957  67.682  1.00  0.00    -0.398 C  
HETATM   22  C   UNL     1     -10.471  18.351  66.223  1.00  0.00    -0.393 C  
HETATM   23  O   UNL     1     -10.213  19.670  66.048  1.00  0.00    -0.453 OA 
HETATM   24  O   UNL     1     -10.632  17.596  65.281  1.00  0.00    -0.663 OA 
ENDBRANCH  20  21
ENDBRANCH  19  20
ENDBRANCH  17  18
ENDBRANCH  16  17
ENDBRANCH  14  15
ENDBRANCH  13  14
ENDBRANCH  11  12
ENDBRANCH  10  11
ENDBRANCH   8   9
ENDBRANCH   7   8
ENDBRANCH   5   6
ENDBRANCH   4   5
ENDBRANCH   2   3
TORSDOF 13
ENDMDL
MODEL      299
REMARK 921   NORMALIZED FREE ENERGY PREDICTED BY IDOCK:   -3.45 KCAL/MOL
REMARK 922        TOTAL FREE ENERGY PREDICTED BY IDOCK:   -8.85 KCAL/MOL
REMARK 923 INTER-LIGAND FREE ENERGY PREDICTED BY IDOCK:   -6.20 KCAL/MOL
REMARK 924 INTRA-LIGAND FREE ENERGY PREDICTED BY IDOCK:   -2.65 KCAL/MOL
REMARK 927      BINDING AFFINITY PREDICTED BY RF-SCORE:    0.00 PKD
ROOT
HETATM    1  C   UNL     1     -12.233  12.495  65.293  1.00  0.00    -0.493 C  
HETATM    2  C   UNL     1     -10.977  11.937  65.940  1.00  0.00    -0.354 C  
ENDROOT
BRANCH   2   3
HETATM    3  C   UNL     1     -11.281  10.969  67.049  1.00  0.00    -0.255 C  
HETATM    4  C   UNL     1     -11.480  11.298  68.336  1.00  0.00    -0.377 C  
BRANCH   4   5
HETATM    5  C   UNL     1     -11.342  12.678  68.915  1.00  0.00    -0.345 C  
BRANCH   5   6
HETATM    6  C   UNL     1     -11.935  12.771  70.294  1.00  0.00    -0.358 C  
HETATM    7  C   UNL     1     -12.483  13.865  70.852  1.00  0.00    -0.447 C  
BRANCH   7   8
HETATM    8  C   UNL     1     -12.564  15.208  70.188  1.00  0.00    -0.319 C  
BRANCH   8   9
HETATM    9  C   UNL     1     -11.324  16.029  70.395  1.00  0.00    -0.405 C  
HETATM   10  C   UNL     1     -10.591  16.629  69.442  1.00  0.00    -0.333 C  
BRANCH  10  11
HETATM   11  C   UNL     1     -10.887  16.677  67.967  1.00  0.00    -0.337 C  
BRANCH  11  12
HETATM   12  C   UNL     1     -10.517  15.410  67.246  1.00  0.00    -0.282 C  
HETATM   13  C   UNL     1      -9.339  15.132  66.666  1.00  0.00    -0.291 C  
BRANCH  13  14
HETATM   14  C   UNL     1      -8.184  16.071  66.560  1.00  0.00    -0.334 C  
BRANCH  14  15
HETATM   15  C   UNL     1      -7.483  16.293  67.871  1.00  0.00    -0.142 C  
HETATM   16  C   UNL     1      -6.689  15.373  68.447  1.00  0.00    -0.116 C  
BRANCH  16  17
HETATM   17  C   UNL     1      -6.454  14.000  67.893  1.00  0.00    -0.170 C  
BRANCH  17  18
HETATM   18  C   UNL     1      -6.913  12.902  68.812  1.00  0.00    -0.103 C  
HETATM   19  C   UNL     1      -7.498  11.777  68.365  1.00  0.00    -0.105 C  
BRANCH  19  20
HETATM   20  C   UNL     1      -7.723  11.531  66.897  1.00  0.00    -0.157 C  
BRANCH  20  21
HETATM   21  C   UNL     1      -6.534  10.934  66.155  1.00  0.00    -0.114 C  
HETATM   22  C   UNL     1      -7.045  10.072  65.020  1.00  0.00    -0.136 C  
HETATM   23  O   UNL     1      -6.173   9.100  64.659  1.00  0.00    -0.069 OA 
HETATM   24  O   UNL     1      -8.110  10.224  64.449  1.00  0.00    -0.163 OA 
ENDBRANCH  20  21
ENDBRANCH  19  20
ENDBRANCH  17  18
ENDBRANCH  16  17
ENDBRANCH  14  15
ENDBRANCH  13  14
ENDBRANCH  11  12
ENDBRANCH  10  11
ENDBRANCH   8   9
ENDBRANCH   7   8
ENDBRANCH   5   6
ENDBRANCH   4   5
ENDBRANCH   2   3
TORSDOF 13
ENDMDL
MODEL      300
REMARK 921   NORMALIZED FREE ENERGY PREDICTED BY IDOCK:   -3.45 KCAL/MOL
REMARK 922        TOTAL FREE ENERGY PREDICTED BY IDOCK:   -8.85 KCAL/MOL
REMARK 923 INTER-LIGAND FREE ENERGY PREDICTED BY IDOCK:   -6.53 KCAL/MOL
REMARK 924 INTRA-LIGAND FREE ENERGY PREDICTED BY IDOCK:   -2.31 KCAL/MOL
REMARK 927      BINDING AFFINITY PREDICTED BY RF-SCORE:    0.00 PKD
ROOT
HETATM    1  C   UNL     1      -7.564   4.091  69.710  1.00  0.00    -0.052 C  
HETATM    2  C   UNL     1      -9.022   3.811  70.030  1.00  0.00    -0.169 C  
ENDROOT
BRANCH   2   3
HETATM    3  C   UNL     1      -9.962   4.700  69.267  1.00  0.00    -0.231 C  
HETATM    4  C   UNL     1     -10.741   5.654  69.805  1.00  0.00    -0.401 C  
BRANCH   4   5
HETATM    5  C   UNL     1     -10.882   5.939  71.274  1.00  0.00    -0.333 C  
BRANCH   5   6
HETATM    6  C   UNL     1      -9.803   6.860  71.774  1.00  0.00    -0.170 C  
HETATM    7  C   UNL     1      -9.960   8.146  72.133  1.00  0.00    -0.315 C  
BRANCH   7   8
HETATM    8  C   UNL     1     -11.258   8.897  72.063  1.00  0.00    -0.422 C  
BRANCH   8   9
HETATM    9  C   UNL     1     -11.792   8.992  70.664  1.00  0.00    -0.193 C  
HETATM   10  C   UNL     1     -11.133   9.442  69.583  1.00  0.00    -0.163 C  
BRANCH  10  11
HETATM   11  C   UNL     1      -9.695   9.880  69.515  1.00  0.00    -0.238 C  
BRANCH  11  12
HETATM   12  C   UNL     1      -8.788   8.846  68.907  1.00  0.00    -0.137 C  
HETATM   13  C   UNL     1      -8.778   8.441  67.627  1.00  0.00    -0.137 C  
BRANCH  13  14
HETATM   14  C   UNL     1      -9.729   8.894  66.569  1.00  0.00    -0.322 C  
BRANCH  14  15
HETATM   15  C   UNL     1      -9.044   9.541  65.398  1.00  0.00    -0.273 C  
HETATM   16  C   UNL     1      -8.950  10.873  65.242  1.00  0.00    -0.202 C  
BRANCH  16  17
HETATM   17  C   UNL     1      -9.565  11.873  66.175  1.00  0.00    -0.250 C  
BRANCH  17  18
HETATM   18  C   UNL     1     -10.859  12.443  65.664  1.00  0.00    -0.312 C  
HETATM   19  C   UNL     1     -11.895  12.735  66.472  1.00  0.00    -0.471 C  
BRANCH  19  20
HETATM   20  C   UNL     1     -11.821  12.521  67.960  1.00  0.00    -0.382 C  
BRANCH  20  21
HETATM   21  C   UNL     1     -11.507  13.770  68.775  1.00  0.00    -0.338 C  
HETATM   22  C   UNL     1     -12.134  13.632  70.146  1.00  0.00    -0.361 C  
HETATM   23  O   UNL     1     -12.394  14.827  70.730  1.00  0.00    -0.287 OA 
HETATM   24  O   UNL     1     -12.369  12.577  70.707  1.00  0.00    -0.377 OA 
ENDBRANCH  20  21
ENDBRANCH  19  20
ENDBRANCH  17  18
ENDBRANCH  16  17
ENDBRANCH  14  15
ENDBRANCH  13  14
ENDBRANCH  11  12
ENDBRANCH  10  11
ENDBRANCH   8   9
ENDBRANCH   7   8
ENDBRANCH   5   6
ENDBRANCH   4   5
ENDBRANCH   2   3
TORSDOF 13
ENDMDL
MODEL      301
REMARK 921   NORMALIZED FREE ENERGY PREDICTED BY IDOCK:   -3.44 KCAL/MOL
REMARK 922        TOTAL FREE ENERGY PREDICTED BY IDOCK:   -8.83 KCAL/MOL
REMARK 923 INTER-LIGAND FREE ENERGY PREDICTED BY IDOCK:   -6.52 KCAL/MOL
REMARK 924 INTRA-LIGAND FREE ENERGY PREDICTED BY IDOCK:   -2.31 KCAL/MOL
REMARK 927      BINDING AFFINITY PREDICTED BY RF-SCORE:    0.00 PKD
ROOT
HETATM    1  C   UNL     1      -7.586   8.642  71.892  1.00  0.00    -0.106 C  
HETATM    2  C   UNL     1      -8.984   8.731  71.303  1.00  0.00    -0.295 C  
ENDROOT
BRANCH   2   3
HETATM    3  C   UNL     1      -9.402   7.460  70.618  1.00  0.00    -0.160 C  
HETATM    4  C   UNL     1     -10.491   6.734  70.924  1.00  0.00    -0.239 C  
BRANCH   4   5
HETATM    5  C   UNL     1     -11.432   7.010  72.063  1.00  0.00    -0.308 C  
BRANCH   5   6
HETATM    6  C   UNL     1     -12.833   7.272  71.584  1.00  0.00    -0.415 C  
HETATM    7  C   UNL     1     -13.316   8.447  71.144  1.00  0.00    -0.041 C  
BRANCH   7   8
HETATM    8  C   UNL     1     -12.528   9.723  71.088  1.00  0.00    -0.443 C  
BRANCH   8   9
HETATM    9  C   UNL     1     -13.142  10.814  71.916  1.00  0.00    -0.557 C  
HETATM   10  C   UNL     1     -13.029  12.137  71.708  1.00  0.00    -0.437 C  
BRANCH  10  11
HETATM   11  C   UNL     1     -12.330  12.818  70.562  1.00  0.00    -0.355 C  
BRANCH  11  12
HETATM   12  C   UNL     1     -12.463  14.316  70.593  1.00  0.00    -0.428 C  
HETATM   13  C   UNL     1     -11.903  15.188  69.740  1.00  0.00    -0.364 C  
BRANCH  13  14
HETATM   14  C   UNL     1     -10.970  14.836  68.630  1.00  0.00    -0.262 C  
BRANCH  14  15
HETATM   15  C   UNL     1     -11.672  14.588  67.324  1.00  0.00    -0.429 C  
HETATM   16  C   UNL     1     -11.696  13.389  66.716  1.00  0.00    -0.429 C  
BRANCH  16  17
HETATM   17  C   UNL     1     -10.979  12.174  67.225  1.00  0.00    -0.308 C  
BRANCH  17  18
HETATM   18  C   UNL     1     -10.994  11.027  66.253  1.00  0.00    -0.184 C  
HETATM   19  C   UNL     1     -10.284   9.901  66.446  1.00  0.00    -0.292 C  
BRANCH  19  20
HETATM   20  C   UNL     1      -9.427   9.706  67.669  1.00  0.00    -0.155 C  
BRANCH  20  21
HETATM   21  C   UNL     1      -8.087   9.027  67.414  1.00  0.00    -0.108 C  
HETATM   22  C   UNL     1      -6.974  10.009  67.712  1.00  0.00    -0.085 C  
HETATM   23  O   UNL     1      -5.834   9.738  67.033  1.00  0.00    -0.050 OA 
HETATM   24  O   UNL     1      -7.051  10.940  68.494  1.00  0.00    -0.068 OA 
ENDBRANCH  20  21
ENDBRANCH  19  20
ENDBRANCH  17  18
ENDBRANCH  16  17
ENDBRANCH  14  15
ENDBRANCH  13  14
ENDBRANCH  11  12
ENDBRANCH  10  11
ENDBRANCH   8   9
ENDBRANCH   7   8
ENDBRANCH   5   6
ENDBRANCH   4   5
ENDBRANCH   2   3
TORSDOF 13
ENDMDL
MODEL      302
REMARK 921   NORMALIZED FREE ENERGY PREDICTED BY IDOCK:   -3.43 KCAL/MOL
REMARK 922        TOTAL FREE ENERGY PREDICTED BY IDOCK:   -8.81 KCAL/MOL
REMARK 923 INTER-LIGAND FREE ENERGY PREDICTED BY IDOCK:   -6.52 KCAL/MOL
REMARK 924 INTRA-LIGAND FREE ENERGY PREDICTED BY IDOCK:   -2.30 KCAL/MOL
REMARK 927      BINDING AFFINITY PREDICTED BY RF-SCORE:    0.00 PKD
ROOT
HETATM    1  C   UNL     1      -5.365  10.123  62.939  1.00  0.00    -0.112 C  
HETATM    2  C   UNL     1      -6.393   9.281  63.676  1.00  0.00    -0.091 C  
ENDROOT
BRANCH   2   3
HETATM    3  C   UNL     1      -6.726   9.834  65.032  1.00  0.00    -0.107 C  
HETATM    4  C   UNL     1      -7.965  10.095  65.484  1.00  0.00    -0.146 C  
BRANCH   4   5
HETATM    5  C   UNL     1      -9.230   9.968  64.682  1.00  0.00    -0.310 C  
BRANCH   5   6
HETATM    6  C   UNL     1      -9.202  10.829  63.449  1.00  0.00    -0.283 C  
HETATM    7  C   UNL     1     -10.171  11.668  63.043  1.00  0.00    -0.294 C  
BRANCH   7   8
HETATM    8  C   UNL     1     -11.479  11.862  63.751  1.00  0.00    -0.542 C  
BRANCH   8   9
HETATM    9  C   UNL     1     -12.120  13.180  63.425  1.00  0.00    -0.558 C  
HETATM   10  C   UNL     1     -12.372  14.182  64.283  1.00  0.00    -0.398 C  
BRANCH  10  11
HETATM   11  C   UNL     1     -12.005  14.241  65.741  1.00  0.00    -0.399 C  
BRANCH  11  12
HETATM   12  C   UNL     1     -10.547  14.529  65.975  1.00  0.00    -0.311 C  
HETATM   13  C   UNL     1      -9.674  13.759  66.642  1.00  0.00    -0.293 C  
BRANCH  13  14
HETATM   14  C   UNL     1     -10.007  12.490  67.353  1.00  0.00    -0.207 C  
BRANCH  14  15
HETATM   15  C   UNL     1     -10.868  12.702  68.567  1.00  0.00    -0.279 C  
HETATM   16  C   UNL     1     -11.310  11.697  69.343  1.00  0.00    -0.342 C  
BRANCH  16  17
HETATM   17  C   UNL     1     -11.055  10.246  69.064  1.00  0.00    -0.277 C  
BRANCH  17  18
HETATM   18  C   UNL     1      -9.621   9.845  69.271  1.00  0.00    -0.215 C  
HETATM   19  C   UNL     1      -9.081   8.753  68.701  1.00  0.00    -0.141 C  
BRANCH  19  20
HETATM   20  C   UNL     1      -9.882   7.856  67.795  1.00  0.00    -0.204 C  
BRANCH  20  21
HETATM   21  C   UNL     1      -9.762   6.367  68.093  1.00  0.00    -0.122 C  
HETATM   22  C   UNL     1     -10.609   6.039  69.304  1.00  0.00    -0.299 C  
HETATM   23  O   UNL     1     -10.177   4.941  69.970  1.00  0.00    -0.264 OA 
HETATM   24  O   UNL     1     -11.598   6.657  69.656  1.00  0.00    -0.324 OA 
ENDBRANCH  20  21
ENDBRANCH  19  20
ENDBRANCH  17  18
ENDBRANCH  16  17
ENDBRANCH  14  15
ENDBRANCH  13  14
ENDBRANCH  11  12
ENDBRANCH  10  11
ENDBRANCH   8   9
ENDBRANCH   7   8
ENDBRANCH   5   6
ENDBRANCH   4   5
ENDBRANCH   2   3
TORSDOF 13
ENDMDL
MODEL      303
REMARK 921   NORMALIZED FREE ENERGY PREDICTED BY IDOCK:   -3.42 KCAL/MOL
REMARK 922        TOTAL FREE ENERGY PREDICTED BY IDOCK:   -8.80 KCAL/MOL
REMARK 923 INTER-LIGAND FREE ENERGY PREDICTED BY IDOCK:   -7.52 KCAL/MOL
REMARK 924 INTRA-LIGAND FREE ENERGY PREDICTED BY IDOCK:   -1.28 KCAL/MOL
REMARK 927      BINDING AFFINITY PREDICTED BY RF-SCORE:    0.00 PKD
ROOT
HETATM    1  C   UNL     1     -12.461  15.859  74.399  1.00  0.00    -0.767 C  
HETATM    2  C   UNL     1     -12.192  15.006  73.171  1.00  0.00    -0.473 C  
ENDROOT
BRANCH   2   3
HETATM    3  C   UNL     1     -11.930  15.831  71.942  1.00  0.00    -0.552 C  
HETATM    4  C   UNL     1     -12.180  15.448  70.679  1.00  0.00    -0.431 C  
BRANCH   4   5
HETATM    5  C   UNL     1     -12.680  14.093  70.262  1.00  0.00    -0.287 C  
BRANCH   5   6
HETATM    6  C   UNL     1     -11.550  13.139  69.985  1.00  0.00    -0.202 C  
HETATM    7  C   UNL     1     -11.643  11.800  69.903  1.00  0.00    -0.351 C  
BRANCH   7   8
HETATM    8  C   UNL     1     -12.908  11.020  70.110  1.00  0.00    -0.109 C  
BRANCH   8   9
HETATM    9  C   UNL     1     -13.197  10.768  71.561  1.00  0.00    -0.434 C  
HETATM   10  C   UNL     1     -12.666   9.800  72.328  1.00  0.00    -0.333 C  
BRANCH  10  11
HETATM   11  C   UNL     1     -11.612   8.803  71.928  1.00  0.00    -0.432 C  
BRANCH  11  12
HETATM   12  C   UNL     1     -12.181   7.479  71.498  1.00  0.00    -0.359 C  
HETATM   13  C   UNL     1     -11.551   6.294  71.507  1.00  0.00    -0.345 C  
BRANCH  13  14
HETATM   14  C   UNL     1     -10.122   6.077  71.880  1.00  0.00    -0.223 C  
BRANCH  14  15
HETATM   15  C   UNL     1      -9.186   7.054  71.223  1.00  0.00    -0.152 C  
HETATM   16  C   UNL     1      -8.861   7.001  69.920  1.00  0.00    -0.142 C  
BRANCH  16  17
HETATM   17  C   UNL     1      -9.335   5.935  68.978  1.00  0.00    -0.138 C  
BRANCH  17  18
HETATM   18  C   UNL     1     -10.604   6.300  68.259  1.00  0.00    -0.318 C  
HETATM   19  C   UNL     1     -10.630   7.149  67.216  1.00  0.00    -0.398 C  
BRANCH  19  20
HETATM   20  C   UNL     1      -9.375   7.788  66.684  1.00  0.00    -0.238 C  
BRANCH  20  21
HETATM   21  C   UNL     1      -9.570   9.160  66.051  1.00  0.00    -0.342 C  
HETATM   22  C   UNL     1      -9.492  10.216  67.132  1.00  0.00    -0.158 C  
HETATM   23  O   UNL     1     -10.165  11.348  66.814  1.00  0.00    -0.211 OA 
HETATM   24  O   UNL     1      -8.876  10.106  68.177  1.00  0.00    -0.124 OA 
ENDBRANCH  20  21
ENDBRANCH  19  20
ENDBRANCH  17  18
ENDBRANCH  16  17
ENDBRANCH  14  15
ENDBRANCH  13  14
ENDBRANCH  11  12
ENDBRANCH  10  11
ENDBRANCH   8   9
ENDBRANCH   7   8
ENDBRANCH   5   6
ENDBRANCH   4   5
ENDBRANCH   2   3
TORSDOF 13
ENDMDL
MODEL      304
REMARK 921   NORMALIZED FREE ENERGY PREDICTED BY IDOCK:   -3.42 KCAL/MOL
REMARK 922        TOTAL FREE ENERGY PREDICTED BY IDOCK:   -8.79 KCAL/MOL
REMARK 923 INTER-LIGAND FREE ENERGY PREDICTED BY IDOCK:   -7.21 KCAL/MOL
REMARK 924 INTRA-LIGAND FREE ENERGY PREDICTED BY IDOCK:   -1.58 KCAL/MOL
REMARK 927      BINDING AFFINITY PREDICTED BY RF-SCORE:    0.00 PKD
ROOT
HETATM    1  C   UNL     1      -9.316   4.039  67.991  1.00  0.00    -0.220 C  
HETATM    2  C   UNL     1      -8.930   3.531  69.370  1.00  0.00    -0.175 C  
ENDROOT
BRANCH   2   3
HETATM    3  C   UNL     1      -8.509   4.638  70.295  1.00  0.00    -0.090 C  
HETATM    4  C   UNL     1      -9.092   4.936  71.468  1.00  0.00    -0.172 C  
BRANCH   4   5
HETATM    5  C   UNL     1     -10.325   4.278  72.021  1.00  0.00    -0.169 C  
BRANCH   5   6
HETATM    6  C   UNL     1     -11.144   5.229  72.852  1.00  0.00    -0.365 C  
HETATM    7  C   UNL     1     -11.827   6.294  72.399  1.00  0.00    -0.272 C  
BRANCH   7   8
HETATM    8  C   UNL     1     -11.858   6.738  70.966  1.00  0.00    -0.427 C  
BRANCH   8   9
HETATM    9  C   UNL     1     -11.236   8.089  70.768  1.00  0.00    -0.275 C  
HETATM   10  C   UNL     1     -10.421   8.457  69.765  1.00  0.00    -0.220 C  
BRANCH  10  11
HETATM   11  C   UNL     1     -10.009   7.625  68.580  1.00  0.00    -0.181 C  
BRANCH  11  12
HETATM   12  C   UNL     1      -8.539   7.714  68.275  1.00  0.00    -0.124 C  
HETATM   13  C   UNL     1      -7.924   8.674  67.566  1.00  0.00    -0.106 C  
BRANCH  13  14
HETATM   14  C   UNL     1      -8.603   9.810  66.876  1.00  0.00    -0.128 C  
BRANCH  14  15
HETATM   15  C   UNL     1      -8.157   9.986  65.451  1.00  0.00    -0.143 C  
HETATM   16  C   UNL     1      -8.970  10.421  64.473  1.00  0.00    -0.241 C  
BRANCH  16  17
HETATM   17  C   UNL     1     -10.426  10.724  64.663  1.00  0.00    -0.346 C  
BRANCH  17  18
HETATM   18  C   UNL     1     -10.976  11.665  63.626  1.00  0.00    -0.507 C  
HETATM   19  C   UNL     1     -11.410  12.903  63.925  1.00  0.00    -0.489 C  
BRANCH  19  20
HETATM   20  C   UNL     1     -11.360  13.441  65.330  1.00  0.00    -0.313 C  
BRANCH  20  21
HETATM   21  C   UNL     1     -10.952  14.905  65.444  1.00  0.00    -0.371 C  
HETATM   22  C   UNL     1     -11.779  15.723  64.477  1.00  0.00    -0.191 C  
HETATM   23  O   UNL     1     -11.167  16.871  64.097  1.00  0.00    -1.176 OA 
HETATM   24  O   UNL     1     -12.893  15.427  64.082  1.00  0.00    -0.507 OA 
ENDBRANCH  20  21
ENDBRANCH  19  20
ENDBRANCH  17  18
ENDBRANCH  16  17
ENDBRANCH  14  15
ENDBRANCH  13  14
ENDBRANCH  11  12
ENDBRANCH  10  11
ENDBRANCH   8   9
ENDBRANCH   7   8
ENDBRANCH   5   6
ENDBRANCH   4   5
ENDBRANCH   2   3
TORSDOF 13
ENDMDL
MODEL      305
REMARK 921   NORMALIZED FREE ENERGY PREDICTED BY IDOCK:   -3.41 KCAL/MOL
REMARK 922        TOTAL FREE ENERGY PREDICTED BY IDOCK:   -8.77 KCAL/MOL
REMARK 923 INTER-LIGAND FREE ENERGY PREDICTED BY IDOCK:   -6.56 KCAL/MOL
REMARK 924 INTRA-LIGAND FREE ENERGY PREDICTED BY IDOCK:   -2.21 KCAL/MOL
REMARK 927      BINDING AFFINITY PREDICTED BY RF-SCORE:    0.00 PKD
ROOT
HETATM    1  C   UNL     1     -10.133   6.662  71.849  1.00  0.00    -0.196 C  
HETATM    2  C   UNL     1     -10.441   5.689  70.723  1.00  0.00    -0.335 C  
ENDROOT
BRANCH   2   3
HETATM    3  C   UNL     1     -11.281   6.308  69.641  1.00  0.00    -0.506 C  
HETATM    4  C   UNL     1     -10.823   6.744  68.455  1.00  0.00    -0.284 C  
BRANCH   4   5
HETATM    5  C   UNL     1      -9.381   6.777  68.035  1.00  0.00    -0.118 C  
BRANCH   5   6
HETATM    6  C   UNL     1      -9.216   6.484  66.569  1.00  0.00    -0.179 C  
HETATM    7  C   UNL     1      -8.352   7.084  65.731  1.00  0.00    -0.143 C  
BRANCH   7   8
HETATM    8  C   UNL     1      -7.415   8.189  66.123  1.00  0.00    -0.078 C  
BRANCH   8   9
HETATM    9  C   UNL     1      -7.578   9.411  65.268  1.00  0.00    -0.107 C  
HETATM   10  C   UNL     1      -8.219  10.544  65.603  1.00  0.00    -0.161 C  
BRANCH  10  11
HETATM   11  C   UNL     1      -8.850  10.870  66.929  1.00  0.00    -0.145 C  
BRANCH  11  12
HETATM   12  C   UNL     1     -10.206  10.244  67.111  1.00  0.00    -0.277 C  
HETATM   13  C   UNL     1     -11.351  10.882  67.399  1.00  0.00    -0.273 C  
BRANCH  13  14
HETATM   14  C   UNL     1     -11.483  12.343  67.670  1.00  0.00    -0.399 C  
BRANCH  14  15
HETATM   15  C   UNL     1     -11.802  13.145  66.439  1.00  0.00    -0.455 C  
HETATM   16  C   UNL     1     -10.982  14.087  65.940  1.00  0.00    -0.286 C  
BRANCH  16  17
HETATM   17  C   UNL     1      -9.688  14.497  66.577  1.00  0.00    -0.301 C  
BRANCH  17  18
HETATM   18  C   UNL     1      -9.277  15.903  66.233  1.00  0.00    -0.372 C  
HETATM   19  C   UNL     1      -9.827  16.984  66.814  1.00  0.00    -0.283 C  
BRANCH  19  20
HETATM   20  C   UNL     1     -10.894  16.859  67.869  1.00  0.00    -0.310 C  
BRANCH  20  21
HETATM   21  C   UNL     1     -10.376  16.621  69.283  1.00  0.00    -0.318 C  
HETATM   22  C   UNL     1     -11.420  15.855  70.066  1.00  0.00    -0.354 C  
HETATM   23  O   UNL     1     -11.333  16.058  71.403  1.00  0.00    -0.385 OA 
HETATM   24  O   UNL     1     -12.248  15.103  69.582  1.00  0.00    -0.302 OA 
ENDBRANCH  20  21
ENDBRANCH  19  20
ENDBRANCH  17  18
ENDBRANCH  16  17
ENDBRANCH  14  15
ENDBRANCH  13  14
ENDBRANCH  11  12
ENDBRANCH  10  11
ENDBRANCH   8   9
ENDBRANCH   7   8
ENDBRANCH   5   6
ENDBRANCH   4   5
ENDBRANCH   2   3
TORSDOF 13
ENDMDL
MODEL      306
REMARK 921   NORMALIZED FREE ENERGY PREDICTED BY IDOCK:   -3.41 KCAL/MOL
REMARK 922        TOTAL FREE ENERGY PREDICTED BY IDOCK:   -8.77 KCAL/MOL
REMARK 923 INTER-LIGAND FREE ENERGY PREDICTED BY IDOCK:   -5.81 KCAL/MOL
REMARK 924 INTRA-LIGAND FREE ENERGY PREDICTED BY IDOCK:   -2.96 KCAL/MOL
REMARK 927      BINDING AFFINITY PREDICTED BY RF-SCORE:    0.00 PKD
ROOT
HETATM    1  C   UNL     1     -12.735  13.957  65.359  1.00  0.00    -0.525 C  
HETATM    2  C   UNL     1     -11.997  13.115  66.387  1.00  0.00    -0.462 C  
ENDROOT
BRANCH   2   3
HETATM    3  C   UNL     1     -11.121  12.071  65.755  1.00  0.00    -0.371 C  
HETATM    4  C   UNL     1     -10.488  11.085  66.412  1.00  0.00    -0.312 C  
BRANCH   4   5
HETATM    5  C   UNL     1     -10.466  10.905  67.904  1.00  0.00    -0.227 C  
BRANCH   5   6
HETATM    6  C   UNL     1     -10.963   9.546  68.313  1.00  0.00    -0.131 C  
HETATM    7  C   UNL     1     -10.220   8.549  68.826  1.00  0.00    -0.217 C  
BRANCH   7   8
HETATM    8  C   UNL     1      -8.738   8.620  69.047  1.00  0.00    -0.134 C  
BRANCH   8   9
HETATM    9  C   UNL     1      -7.993   7.554  68.298  1.00  0.00    -0.123 C  
HETATM   10  C   UNL     1      -7.473   7.658  67.063  1.00  0.00    -0.095 C  
BRANCH  10  11
HETATM   11  C   UNL     1      -7.455   8.881  66.187  1.00  0.00    -0.090 C  
BRANCH  11  12
HETATM   12  C   UNL     1      -6.161   9.644  66.261  1.00  0.00    -0.068 C  
HETATM   13  C   UNL     1      -6.007  10.927  66.624  1.00  0.00    -0.097 C  
BRANCH  13  14
HETATM   14  C   UNL     1      -7.113  11.872  66.956  1.00  0.00    -0.116 C  
BRANCH  14  15
HETATM   15  C   UNL     1      -6.759  12.832  68.057  1.00  0.00    -0.100 C  
HETATM   16  C   UNL     1      -7.572  13.824  68.459  1.00  0.00    -0.134 C  
BRANCH  16  17
HETATM   17  C   UNL     1      -8.895  14.136  67.826  1.00  0.00    -0.185 C  
BRANCH  17  18
HETATM   18  C   UNL     1      -8.787  15.080  66.660  1.00  0.00    -0.307 C  
HETATM   19  C   UNL     1      -9.591  16.148  66.512  1.00  0.00    -0.285 C  
BRANCH  19  20
HETATM   20  C   UNL     1     -10.655  16.483  67.522  1.00  0.00    -0.313 C  
BRANCH  20  21
HETATM   21  C   UNL     1     -10.275  17.567  68.523  1.00  0.00    -0.378 C  
HETATM   22  C   UNL     1     -10.125  18.882  67.789  1.00  0.00    -0.369 C  
HETATM   23  O   UNL     1      -9.296  19.748  68.420  1.00  0.00    -0.349 OA 
HETATM   24  O   UNL     1     -10.695  19.177  66.753  1.00  0.00    -0.425 OA 
ENDBRANCH  20  21
ENDBRANCH  19  20
ENDBRANCH  17  18
ENDBRANCH  16  17
ENDBRANCH  14  15
ENDBRANCH  13  14
ENDBRANCH  11  12
ENDBRANCH  10  11
ENDBRANCH   8   9
ENDBRANCH   7   8
ENDBRANCH   5   6
ENDBRANCH   4   5
ENDBRANCH   2   3
TORSDOF 13
ENDMDL
MODEL      307
REMARK 921   NORMALIZED FREE ENERGY PREDICTED BY IDOCK:   -3.41 KCAL/MOL
REMARK 922        TOTAL FREE ENERGY PREDICTED BY IDOCK:   -8.77 KCAL/MOL
REMARK 923 INTER-LIGAND FREE ENERGY PREDICTED BY IDOCK:   -5.48 KCAL/MOL
REMARK 924 INTRA-LIGAND FREE ENERGY PREDICTED BY IDOCK:   -3.29 KCAL/MOL
REMARK 927      BINDING AFFINITY PREDICTED BY RF-SCORE:    0.00 PKD
ROOT
HETATM    1  C   UNL     1     -12.887  13.637  65.322  1.00  0.00    -0.421 C  
HETATM    2  C   UNL     1     -11.699  12.872  65.881  1.00  0.00    -0.449 C  
ENDROOT
BRANCH   2   3
HETATM    3  C   UNL     1     -11.121  11.901  64.889  1.00  0.00    -0.363 C  
HETATM    4  C   UNL     1     -10.481  10.761  65.199  1.00  0.00    -0.299 C  
BRANCH   4   5
HETATM    5  C   UNL     1     -10.146  10.299  66.590  1.00  0.00    -0.281 C  
BRANCH   5   6
HETATM    6  C   UNL     1     -10.625   8.896  66.846  1.00  0.00    -0.254 C  
HETATM    7  C   UNL     1      -9.850   7.809  67.004  1.00  0.00    -0.286 C  
BRANCH   7   8
HETATM    8  C   UNL     1      -8.352   7.811  66.917  1.00  0.00    -0.124 C  
BRANCH   8   9
HETATM    9  C   UNL     1      -7.835   6.856  65.882  1.00  0.00    -0.106 C  
HETATM   10  C   UNL     1      -7.615   7.124  64.583  1.00  0.00    -0.106 C  
BRANCH  10  11
HETATM   11  C   UNL     1      -7.766   8.453  63.894  1.00  0.00    -0.143 C  
BRANCH  11  12
HETATM   12  C   UNL     1      -6.470   9.206  63.766  1.00  0.00    -0.089 C  
HETATM   13  C   UNL     1      -6.075  10.254  64.507  1.00  0.00    -0.126 C  
BRANCH  13  14
HETATM   14  C   UNL     1      -6.891  10.925  65.561  1.00  0.00     0.109 C  
BRANCH  14  15
HETATM   15  C   UNL     1      -6.359  10.702  66.949  1.00  0.00    -0.082 C  
HETATM   16  C   UNL     1      -6.481  11.603  67.939  1.00  0.00    -0.061 C  
BRANCH  16  17
HETATM   17  C   UNL     1      -7.102  12.958  67.770  1.00  0.00    -0.137 C  
BRANCH  17  18
HETATM   18  C   UNL     1      -8.551  13.000  68.170  1.00  0.00    -0.188 C  
HETATM   19  C   UNL     1      -9.312  14.101  68.031  1.00  0.00    -0.203 C  
BRANCH  19  20
HETATM   20  C   UNL     1      -8.762  15.374  67.445  1.00  0.00    -0.194 C  
BRANCH  20  21
HETATM   21  C   UNL     1      -9.051  15.579  65.964  1.00  0.00    -0.316 C  
HETATM   22  C   UNL     1     -10.181  16.574  65.816  1.00  0.00    -0.329 C  
HETATM   23  O   UNL     1     -10.867  16.428  64.657  1.00  0.00    -0.717 OA 
HETATM   24  O   UNL     1     -10.456  17.447  66.620  1.00  0.00    -0.310 OA 
ENDBRANCH  20  21
ENDBRANCH  19  20
ENDBRANCH  17  18
ENDBRANCH  16  17
ENDBRANCH  14  15
ENDBRANCH  13  14
ENDBRANCH  11  12
ENDBRANCH  10  11
ENDBRANCH   8   9
ENDBRANCH   7   8
ENDBRANCH   5   6
ENDBRANCH   4   5
ENDBRANCH   2   3
TORSDOF 13
ENDMDL
MODEL      308
REMARK 921   NORMALIZED FREE ENERGY PREDICTED BY IDOCK:   -3.40 KCAL/MOL
REMARK 922        TOTAL FREE ENERGY PREDICTED BY IDOCK:   -8.77 KCAL/MOL
REMARK 923 INTER-LIGAND FREE ENERGY PREDICTED BY IDOCK:   -6.28 KCAL/MOL
REMARK 924 INTRA-LIGAND FREE ENERGY PREDICTED BY IDOCK:   -2.49 KCAL/MOL
REMARK 927      BINDING AFFINITY PREDICTED BY RF-SCORE:    0.00 PKD
ROOT
HETATM    1  C   UNL     1      -6.738  15.730  69.313  1.00  0.00    -0.174 C  
HETATM    2  C   UNL     1      -6.072  14.866  68.255  1.00  0.00    -0.123 C  
ENDROOT
BRANCH   2   3
HETATM    3  C   UNL     1      -7.061  14.052  67.469  1.00  0.00    -0.179 C  
HETATM    4  C   UNL     1      -7.460  12.805  67.775  1.00  0.00    -0.135 C  
BRANCH   4   5
HETATM    5  C   UNL     1      -6.921  11.969  68.901  1.00  0.00    -0.104 C  
BRANCH   5   6
HETATM    6  C   UNL     1      -7.045  10.497  68.617  1.00  0.00    -0.077 C  
HETATM    7  C   UNL     1      -8.116   9.726  68.875  1.00  0.00    -0.101 C  
BRANCH   7   8
HETATM    8  C   UNL     1      -9.376  10.210  69.531  1.00  0.00    -0.230 C  
BRANCH   8   9
HETATM    9  C   UNL     1     -10.611   9.738  68.822  1.00  0.00    -0.244 C  
HETATM   10  C   UNL     1     -10.976  10.034  67.563  1.00  0.00    -0.276 C  
BRANCH  10  11
HETATM   11  C   UNL     1     -10.195  10.839  66.559  1.00  0.00    -0.287 C  
BRANCH  11  12
HETATM   12  C   UNL     1     -10.354  10.342  65.148  1.00  0.00    -0.260 C  
HETATM   13  C   UNL     1     -10.868  11.023  64.112  1.00  0.00    -0.250 C  
BRANCH  13  14
HETATM   14  C   UNL     1     -11.456  12.393  64.182  1.00  0.00    -0.448 C  
BRANCH  14  15
HETATM   15  C   UNL     1     -10.470  13.434  64.636  1.00  0.00    -0.428 C  
HETATM   16  C   UNL     1     -10.693  14.257  65.675  1.00  0.00    -0.321 C  
BRANCH  16  17
HETATM   17  C   UNL     1     -11.966  14.284  66.468  1.00  0.00    -0.448 C  
BRANCH  17  18
HETATM   18  C   UNL     1     -11.879  13.512  67.755  1.00  0.00    -0.398 C  
HETATM   19  C   UNL     1     -11.042  13.852  68.752  1.00  0.00    -0.291 C  
BRANCH  19  20
HETATM   20  C   UNL     1     -10.136  15.050  68.651  1.00  0.00    -0.233 C  
BRANCH  20  21
HETATM   21  C   UNL     1     -10.657  16.311  69.330  1.00  0.00    -0.301 C  
HETATM   22  C   UNL     1     -10.473  17.486  68.394  1.00  0.00    -0.372 C  
HETATM   23  O   UNL     1     -10.379  18.670  69.045  1.00  0.00    -0.265 OA 
HETATM   24  O   UNL     1     -10.438  17.415  67.179  1.00  0.00    -0.332 OA 
ENDBRANCH  20  21
ENDBRANCH  19  20
ENDBRANCH  17  18
ENDBRANCH  16  17
ENDBRANCH  14  15
ENDBRANCH  13  14
ENDBRANCH  11  12
ENDBRANCH  10  11
ENDBRANCH   8   9
ENDBRANCH   7   8
ENDBRANCH   5   6
ENDBRANCH   4   5
ENDBRANCH   2   3
TORSDOF 13
ENDMDL
MODEL      309
REMARK 921   NORMALIZED FREE ENERGY PREDICTED BY IDOCK:   -3.40 KCAL/MOL
REMARK 922        TOTAL FREE ENERGY PREDICTED BY IDOCK:   -8.76 KCAL/MOL
REMARK 923 INTER-LIGAND FREE ENERGY PREDICTED BY IDOCK:   -5.71 KCAL/MOL
REMARK 924 INTRA-LIGAND FREE ENERGY PREDICTED BY IDOCK:   -3.05 KCAL/MOL
REMARK 927      BINDING AFFINITY PREDICTED BY RF-SCORE:    0.00 PKD
ROOT
HETATM    1  C   UNL     1     -13.391   8.657  71.376  1.00  0.00    -0.264 C  
HETATM    2  C   UNL     1     -12.830   9.869  72.101  1.00  0.00    -0.435 C  
ENDROOT
BRANCH   2   3
HETATM    3  C   UNL     1     -13.037  11.145  71.335  1.00  0.00    -0.422 C  
HETATM    4  C   UNL     1     -12.227  11.614  70.370  1.00  0.00    -0.434 C  
BRANCH   4   5
HETATM    5  C   UNL     1     -10.923  10.996  69.950  1.00  0.00    -0.218 C  
BRANCH   5   6
HETATM    6  C   UNL     1     -11.071  10.165  68.704  1.00  0.00    -0.254 C  
HETATM    7  C   UNL     1     -10.916  10.594  67.440  1.00  0.00    -0.361 C  
BRANCH   7   8
HETATM    8  C   UNL     1     -10.596  12.008  67.054  1.00  0.00    -0.258 C  
BRANCH   8   9
HETATM    9  C   UNL     1      -9.223  12.147  66.465  1.00  0.00    -0.216 C  
HETATM   10  C   UNL     1      -8.114  12.553  67.105  1.00  0.00    -0.156 C  
BRANCH  10  11
HETATM   11  C   UNL     1      -7.981  12.888  68.566  1.00  0.00    -0.095 C  
BRANCH  11  12
HETATM   12  C   UNL     1      -6.721  12.350  69.186  1.00  0.00    -0.090 C  
HETATM   13  C   UNL     1      -6.565  11.156  69.779  1.00  0.00    -0.138 C  
BRANCH  13  14
HETATM   14  C   UNL     1      -7.648  10.154  70.004  1.00  0.00    -0.164 C  
BRANCH  14  15
HETATM   15  C   UNL     1      -7.142   8.852  70.561  1.00  0.00    -0.064 C  
HETATM   16  C   UNL     1      -7.936   7.946  71.156  1.00  0.00    -0.091 C  
BRANCH  16  17
HETATM   17  C   UNL     1      -9.403   8.143  71.395  1.00  0.00    -0.200 C  
BRANCH  17  18
HETATM   18  C   UNL     1      -9.790   8.023  72.843  1.00  0.00    -0.357 C  
HETATM   19  C   UNL     1     -10.547   7.015  73.313  1.00  0.00    -0.378 C  
BRANCH  19  20
HETATM   20  C   UNL     1     -11.052   5.919  72.413  1.00  0.00    -0.328 C  
BRANCH  20  21
HETATM   21  C   UNL     1     -10.154   4.692  72.327  1.00  0.00    -0.250 C  
HETATM   22  C   UNL     1     -10.027   4.277  70.877  1.00  0.00    -0.155 C  
HETATM   23  O   UNL     1      -9.741   2.961  70.726  1.00  0.00    -0.150 OA 
HETATM   24  O   UNL     1     -10.137   5.024  69.921  1.00  0.00    -0.236 OA 
ENDBRANCH  20  21
ENDBRANCH  19  20
ENDBRANCH  17  18
ENDBRANCH  16  17
ENDBRANCH  14  15
ENDBRANCH  13  14
ENDBRANCH  11  12
ENDBRANCH  10  11
ENDBRANCH   8   9
ENDBRANCH   7   8
ENDBRANCH   5   6
ENDBRANCH   4   5
ENDBRANCH   2   3
TORSDOF 13
ENDMDL
MODEL      310
REMARK 921   NORMALIZED FREE ENERGY PREDICTED BY IDOCK:   -3.39 KCAL/MOL
REMARK 922        TOTAL FREE ENERGY PREDICTED BY IDOCK:   -8.75 KCAL/MOL
REMARK 923 INTER-LIGAND FREE ENERGY PREDICTED BY IDOCK:   -6.40 KCAL/MOL
REMARK 924 INTRA-LIGAND FREE ENERGY PREDICTED BY IDOCK:   -2.35 KCAL/MOL
REMARK 927      BINDING AFFINITY PREDICTED BY RF-SCORE:    0.00 PKD
ROOT
HETATM    1  C   UNL     1     -11.236   6.379  69.178  1.00  0.00    -0.421 C  
HETATM    2  C   UNL     1     -10.999   6.400  70.679  1.00  0.00    -0.355 C  
ENDROOT
BRANCH   2   3
HETATM    3  C   UNL     1     -12.239   6.743  71.454  1.00  0.00    -0.413 C  
HETATM    4  C   UNL     1     -12.581   7.974  71.872  1.00  0.00    -0.359 C  
BRANCH   4   5
HETATM    5  C   UNL     1     -11.740   9.210  71.721  1.00  0.00    -0.456 C  
BRANCH   5   6
HETATM    6  C   UNL     1     -12.434  10.264  70.902  1.00  0.00    -0.466 C  
HETATM    7  C   UNL     1     -12.010  10.766  69.729  1.00  0.00    -0.397 C  
BRANCH   7   8
HETATM    8  C   UNL     1     -10.732  10.373  69.048  1.00  0.00    -0.260 C  
BRANCH   8   9
HETATM    9  C   UNL     1     -10.908  10.162  67.573  1.00  0.00    -0.349 C  
HETATM   10  C   UNL     1      -9.945   9.860  66.685  1.00  0.00    -0.277 C  
BRANCH  10  11
HETATM   11  C   UNL     1      -8.494   9.591  66.980  1.00  0.00    -0.128 C  
BRANCH  11  12
HETATM   12  C   UNL     1      -7.581  10.691  66.513  1.00  0.00    -0.134 C  
HETATM   13  C   UNL     1      -7.036  11.657  67.269  1.00  0.00    -0.134 C  
BRANCH  13  14
HETATM   14  C   UNL     1      -7.299  11.869  68.723  1.00  0.00    -0.105 C  
BRANCH  14  15
HETATM   15  C   UNL     1      -6.161  12.545  69.435  1.00  0.00    -0.113 C  
HETATM   16  C   UNL     1      -6.088  13.876  69.610  1.00  0.00    -0.119 C  
BRANCH  16  17
HETATM   17  C   UNL     1      -7.091  14.851  69.069  1.00  0.00    -0.130 C  
BRANCH  17  18
HETATM   18  C   UNL     1      -6.870  15.185  67.619  1.00  0.00    -0.204 C  
HETATM   19  C   UNL     1      -7.850  15.646  66.822  1.00  0.00    -0.211 C  
BRANCH  19  20
HETATM   20  C   UNL     1      -9.247  15.875  67.336  1.00  0.00    -0.207 C  
BRANCH  20  21
HETATM   21  C   UNL     1     -10.240  14.764  67.018  1.00  0.00    -0.253 C  
HETATM   22  C   UNL     1     -11.495  14.978  67.836  1.00  0.00    -0.340 C  
HETATM   23  O   UNL     1     -12.183  13.832  68.058  1.00  0.00    -0.323 OA 
HETATM   24  O   UNL     1     -11.890  16.055  68.245  1.00  0.00    -0.250 OA 
ENDBRANCH  20  21
ENDBRANCH  19  20
ENDBRANCH  17  18
ENDBRANCH  16  17
ENDBRANCH  14  15
ENDBRANCH  13  14
ENDBRANCH  11  12
ENDBRANCH  10  11
ENDBRANCH   8   9
ENDBRANCH   7   8
ENDBRANCH   5   6
ENDBRANCH   4   5
ENDBRANCH   2   3
TORSDOF 13
ENDMDL
MODEL      311
REMARK 921   NORMALIZED FREE ENERGY PREDICTED BY IDOCK:   -3.39 KCAL/MOL
REMARK 922        TOTAL FREE ENERGY PREDICTED BY IDOCK:   -8.75 KCAL/MOL
REMARK 923 INTER-LIGAND FREE ENERGY PREDICTED BY IDOCK:   -6.31 KCAL/MOL
REMARK 924 INTRA-LIGAND FREE ENERGY PREDICTED BY IDOCK:   -2.44 KCAL/MOL
REMARK 927      BINDING AFFINITY PREDICTED BY RF-SCORE:    0.00 PKD
ROOT
HETATM    1  C   UNL     1      -7.064  10.525  69.951  1.00  0.00    -0.148 C  
HETATM    2  C   UNL     1      -6.385  11.640  69.174  1.00  0.00    -0.084 C  
ENDROOT
BRANCH   2   3
HETATM    3  C   UNL     1      -6.066  12.830  70.034  1.00  0.00    -0.112 C  
HETATM    4  C   UNL     1      -6.398  14.103  69.756  1.00  0.00    -0.141 C  
BRANCH   4   5
HETATM    5  C   UNL     1      -7.064  14.574  68.494  1.00  0.00    -0.114 C  
BRANCH   5   6
HETATM    6  C   UNL     1      -8.374  15.260  68.773  1.00  0.00    -0.179 C  
HETATM    7  C   UNL     1      -9.244  15.714  67.854  1.00  0.00    -0.190 C  
BRANCH   7   8
HETATM    8  C   UNL     1      -9.031  15.640  66.371  1.00  0.00    -0.362 C  
BRANCH   8   9
HETATM    9  C   UNL     1     -10.251  16.042  65.594  1.00  0.00    -0.412 C  
HETATM   10  C   UNL     1     -11.121  15.218  64.985  1.00  0.00    -0.436 C  
BRANCH  10  11
HETATM   11  C   UNL     1     -11.112  13.713  65.008  1.00  0.00    -0.338 C  
BRANCH  11  12
HETATM   12  C   UNL     1     -11.290  13.098  63.647  1.00  0.00    -0.307 C  
HETATM   13  C   UNL     1     -11.124  11.806  63.323  1.00  0.00    -0.370 C  
BRANCH  13  14
HETATM   14  C   UNL     1     -10.650  10.736  64.249  1.00  0.00    -0.225 C  
BRANCH  14  15
HETATM   15  C   UNL     1      -9.192  10.410  64.077  1.00  0.00    -0.300 C  
HETATM   16  C   UNL     1      -8.326  10.348  65.103  1.00  0.00    -0.165 C  
BRANCH  16  17
HETATM   17  C   UNL     1      -8.684  10.654  66.526  1.00  0.00    -0.151 C  
BRANCH  17  18
HETATM   18  C   UNL     1      -9.565   9.609  67.154  1.00  0.00    -0.210 C  
HETATM   19  C   UNL     1     -10.723   9.907  67.769  1.00  0.00    -0.332 C  
BRANCH  19  20
HETATM   20  C   UNL     1     -11.229  11.322  67.859  1.00  0.00    -0.353 C  
BRANCH  20  21
HETATM   21  C   UNL     1     -11.794  11.719  69.218  1.00  0.00    -0.389 C  
HETATM   22  C   UNL     1     -11.960  13.222  69.261  1.00  0.00    -0.303 C  
HETATM   23  O   UNL     1     -11.920  13.723  70.519  1.00  0.00    -0.323 OA 
HETATM   24  O   UNL     1     -12.140  13.936  68.290  1.00  0.00    -0.366 OA 
ENDBRANCH  20  21
ENDBRANCH  19  20
ENDBRANCH  17  18
ENDBRANCH  16  17
ENDBRANCH  14  15
ENDBRANCH  13  14
ENDBRANCH  11  12
ENDBRANCH  10  11
ENDBRANCH   8   9
ENDBRANCH   7   8
ENDBRANCH   5   6
ENDBRANCH   4   5
ENDBRANCH   2   3
TORSDOF 13
ENDMDL
MODEL      312
REMARK 921   NORMALIZED FREE ENERGY PREDICTED BY IDOCK:   -3.39 KCAL/MOL
REMARK 922        TOTAL FREE ENERGY PREDICTED BY IDOCK:   -8.74 KCAL/MOL
REMARK 923 INTER-LIGAND FREE ENERGY PREDICTED BY IDOCK:   -5.83 KCAL/MOL
REMARK 924 INTRA-LIGAND FREE ENERGY PREDICTED BY IDOCK:   -2.90 KCAL/MOL
REMARK 927      BINDING AFFINITY PREDICTED BY RF-SCORE:    0.00 PKD
ROOT
HETATM    1  C   UNL     1     -12.126   6.877  71.335  1.00  0.00    -0.408 C  
HETATM    2  C   UNL     1     -12.089   8.396  71.318  1.00  0.00    -0.315 C  
ENDROOT
BRANCH   2   3
HETATM    3  C   UNL     1     -10.753   8.934  70.891  1.00  0.00    -0.292 C  
HETATM    4  C   UNL     1     -10.522  10.184  70.451  1.00  0.00    -0.237 C  
BRANCH   4   5
HETATM    5  C   UNL     1     -11.571  11.235  70.220  1.00  0.00    -0.366 C  
BRANCH   5   6
HETATM    6  C   UNL     1     -12.154  11.152  68.836  1.00  0.00    -0.276 C  
HETATM    7  C   UNL     1     -11.615  11.664  67.715  1.00  0.00    -0.359 C  
BRANCH   7   8
HETATM    8  C   UNL     1     -10.334  12.444  67.666  1.00  0.00    -0.223 C  
BRANCH   8   9
HETATM    9  C   UNL     1      -9.631  12.315  66.347  1.00  0.00    -0.242 C  
HETATM   10  C   UNL     1      -8.972  11.235  65.893  1.00  0.00    -0.206 C  
BRANCH  10  11
HETATM   11  C   UNL     1      -8.853   9.896  66.568  1.00  0.00    -0.154 C  
BRANCH  11  12
HETATM   12  C   UNL     1      -9.962   8.947  66.202  1.00  0.00    -0.290 C  
HETATM   13  C   UNL     1     -10.325   7.841  66.871  1.00  0.00    -0.396 C  
BRANCH  13  14
HETATM   14  C   UNL     1      -9.637   7.296  68.078  1.00  0.00    -0.148 C  
BRANCH  14  15
HETATM   15  C   UNL     1      -8.702   6.162  67.763  1.00  0.00    -0.112 C  
HETATM   16  C   UNL     1      -8.817   4.939  68.309  1.00  0.00    -0.114 C  
BRANCH  16  17
HETATM   17  C   UNL     1      -9.844   4.570  69.337  1.00  0.00    -0.260 C  
BRANCH  17  18
HETATM   18  C   UNL     1      -9.260   3.872  70.534  1.00  0.00    -0.203 C  
HETATM   19  C   UNL     1      -8.798   4.536  71.609  1.00  0.00    -0.145 C  
BRANCH  19  20
HETATM   20  C   UNL     1      -8.847   6.038  71.693  1.00  0.00    -0.139 C  
BRANCH  20  21
HETATM   21  C   UNL     1      -7.767   6.670  72.562  1.00  0.00    -0.098 C  
HETATM   22  C   UNL     1      -8.412   7.673  73.495  1.00  0.00    -0.186 C  
HETATM   23  O   UNL     1      -7.558   8.645  73.897  1.00  0.00    -0.387 OA 
HETATM   24  O   UNL     1      -9.564   7.626  73.887  1.00  0.00    -0.274 OA 
ENDBRANCH  20  21
ENDBRANCH  19  20
ENDBRANCH  17  18
ENDBRANCH  16  17
ENDBRANCH  14  15
ENDBRANCH  13  14
ENDBRANCH  11  12
ENDBRANCH  10  11
ENDBRANCH   8   9
ENDBRANCH   7   8
ENDBRANCH   5   6
ENDBRANCH   4   5
ENDBRANCH   2   3
TORSDOF 13
ENDMDL
MODEL      313
REMARK 921   NORMALIZED FREE ENERGY PREDICTED BY IDOCK:   -3.38 KCAL/MOL
REMARK 922        TOTAL FREE ENERGY PREDICTED BY IDOCK:   -8.73 KCAL/MOL
REMARK 923 INTER-LIGAND FREE ENERGY PREDICTED BY IDOCK:   -6.60 KCAL/MOL
REMARK 924 INTRA-LIGAND FREE ENERGY PREDICTED BY IDOCK:   -2.13 KCAL/MOL
REMARK 927      BINDING AFFINITY PREDICTED BY RF-SCORE:    0.00 PKD
ROOT
HETATM    1  C   UNL     1      -6.758  19.228  69.686  1.00  0.00    -0.249 C  
HETATM    2  C   UNL     1      -5.884  19.621  68.507  1.00  0.00    -0.254 C  
ENDROOT
BRANCH   2   3
HETATM    3  C   UNL     1      -6.363  20.872  67.825  1.00  0.00    -0.396 C  
HETATM    4  C   UNL     1      -7.402  20.945  66.975  1.00  0.00    -0.325 C  
BRANCH   4   5
HETATM    5  C   UNL     1      -8.211  19.779  66.483  1.00  0.00    -0.363 C  
BRANCH   5   6
HETATM    6  C   UNL     1      -9.671  20.118  66.363  1.00  0.00    -0.538 C  
HETATM    7  C   UNL     1     -10.701  19.340  66.738  1.00  0.00    -0.526 C  
BRANCH   7   8
HETATM    8  C   UNL     1     -10.561  17.964  67.319  1.00  0.00    -0.341 C  
BRANCH   8   9
HETATM    9  C   UNL     1     -10.193  16.938  66.287  1.00  0.00    -0.337 C  
HETATM   10  C   UNL     1      -9.048  16.238  66.225  1.00  0.00    -0.366 C  
BRANCH  10  11
HETATM   11  C   UNL     1      -7.912  16.269  67.212  1.00  0.00    -0.195 C  
BRANCH  11  12
HETATM   12  C   UNL     1      -8.282  15.713  68.560  1.00  0.00    -0.153 C  
HETATM   13  C   UNL     1      -7.480  15.034  69.395  1.00  0.00    -0.196 C  
BRANCH  13  14
HETATM   14  C   UNL     1      -6.071  14.634  69.107  1.00  0.00    -0.102 C  
BRANCH  14  15
HETATM   15  C   UNL     1      -5.558  13.571  70.038  1.00  0.00    -0.114 C  
HETATM   16  C   UNL     1      -5.802  12.260  69.865  1.00  0.00    -0.140 C  
BRANCH  16  17
HETATM   17  C   UNL     1      -6.660  11.702  68.769  1.00  0.00    -0.072 C  
BRANCH  17  18
HETATM   18  C   UNL     1      -7.844  10.928  69.278  1.00  0.00    -0.096 C  
HETATM   19  C   UNL     1      -9.078  11.060  68.759  1.00  0.00    -0.161 C  
BRANCH  19  20
HETATM   20  C   UNL     1      -9.357  11.992  67.610  1.00  0.00    -0.185 C  
BRANCH  20  21
HETATM   21  C   UNL     1     -10.182  13.223  67.966  1.00  0.00    -0.240 C  
HETATM   22  C   UNL     1     -11.643  12.927  67.705  1.00  0.00    -0.355 C  
HETATM   23  O   UNL     1     -12.372  14.042  67.458  1.00  0.00    -0.296 OA 
HETATM   24  O   UNL     1     -12.150  11.820  67.734  1.00  0.00    -0.595 OA 
ENDBRANCH  20  21
ENDBRANCH  19  20
ENDBRANCH  17  18
ENDBRANCH  16  17
ENDBRANCH  14  15
ENDBRANCH  13  14
ENDBRANCH  11  12
ENDBRANCH  10  11
ENDBRANCH   8   9
ENDBRANCH   7   8
ENDBRANCH   5   6
ENDBRANCH   4   5
ENDBRANCH   2   3
TORSDOF 13
ENDMDL
MODEL      314
REMARK 921   NORMALIZED FREE ENERGY PREDICTED BY IDOCK:   -3.38 KCAL/MOL
REMARK 922        TOTAL FREE ENERGY PREDICTED BY IDOCK:   -8.73 KCAL/MOL
REMARK 923 INTER-LIGAND FREE ENERGY PREDICTED BY IDOCK:   -6.62 KCAL/MOL
REMARK 924 INTRA-LIGAND FREE ENERGY PREDICTED BY IDOCK:   -2.11 KCAL/MOL
REMARK 927      BINDING AFFINITY PREDICTED BY RF-SCORE:    0.00 PKD
ROOT
HETATM    1  C   UNL     1      -5.875   6.895  74.247  1.00  0.00    -0.062 C  
HETATM    2  C   UNL     1      -6.276   8.113  73.431  1.00  0.00    -0.097 C  
ENDROOT
BRANCH   2   3
HETATM    3  C   UNL     1      -6.539   7.780  71.990  1.00  0.00    -0.056 C  
HETATM    4  C   UNL     1      -7.659   8.085  71.312  1.00  0.00    -0.081 C  
BRANCH   4   5
HETATM    5  C   UNL     1      -8.884   8.729  71.897  1.00  0.00    -0.224 C  
BRANCH   5   6
HETATM    6  C   UNL     1      -9.470   7.909  73.014  1.00  0.00    -0.336 C  
HETATM    7  C   UNL     1     -10.737   7.466  73.093  1.00  0.00    -0.436 C  
BRANCH   7   8
HETATM    8  C   UNL     1     -11.803   7.750  72.076  1.00  0.00    -0.351 C  
BRANCH   8   9
HETATM    9  C   UNL     1     -12.025   6.600  71.138  1.00  0.00    -0.412 C  
HETATM   10  C   UNL     1     -11.607   6.513  69.864  1.00  0.00    -0.433 C  
BRANCH  10  11
HETATM   11  C   UNL     1     -10.763   7.510  69.117  1.00  0.00    -0.163 C  
BRANCH  11  12
HETATM   12  C   UNL     1      -9.967   6.895  68.000  1.00  0.00    -0.175 C  
HETATM   13  C   UNL     1      -9.575   7.498  66.866  1.00  0.00    -0.242 C  
BRANCH  13  14
HETATM   14  C   UNL     1      -9.927   8.891  66.462  1.00  0.00    -0.358 C  
BRANCH  14  15
HETATM   15  C   UNL     1      -8.750   9.826  66.486  1.00  0.00    -0.139 C  
HETATM   16  C   UNL     1      -8.644  10.856  67.343  1.00  0.00    -0.127 C  
BRANCH  16  17
HETATM   17  C   UNL     1      -9.703  11.237  68.334  1.00  0.00    -0.194 C  
BRANCH  17  18
HETATM   18  C   UNL     1      -9.827  12.723  68.528  1.00  0.00    -0.147 C  
HETATM   19  C   UNL     1     -10.666  13.483  67.801  1.00  0.00    -0.262 C  
BRANCH  19  20
HETATM   20  C   UNL     1     -11.556  12.889  66.742  1.00  0.00    -0.416 C  
BRANCH  20  21
HETATM   21  C   UNL     1     -10.982  12.912  65.331  1.00  0.00    -0.305 C  
HETATM   22  C   UNL     1     -12.012  12.355  64.372  1.00  0.00    -0.407 C  
HETATM   23  O   UNL     1     -11.461  11.830  63.251  1.00  0.00    -0.359 OA 
HETATM   24  O   UNL     1     -13.217  12.384  64.544  1.00  0.00    -0.834 OA 
ENDBRANCH  20  21
ENDBRANCH  19  20
ENDBRANCH  17  18
ENDBRANCH  16  17
ENDBRANCH  14  15
ENDBRANCH  13  14
ENDBRANCH  11  12
ENDBRANCH  10  11
ENDBRANCH   8   9
ENDBRANCH   7   8
ENDBRANCH   5   6
ENDBRANCH   4   5
ENDBRANCH   2   3
TORSDOF 13
ENDMDL
MODEL      315
REMARK 921   NORMALIZED FREE ENERGY PREDICTED BY IDOCK:   -3.38 KCAL/MOL
REMARK 922        TOTAL FREE ENERGY PREDICTED BY IDOCK:   -8.73 KCAL/MOL
REMARK 923 INTER-LIGAND FREE ENERGY PREDICTED BY IDOCK:   -6.87 KCAL/MOL
REMARK 924 INTRA-LIGAND FREE ENERGY PREDICTED BY IDOCK:   -1.86 KCAL/MOL
REMARK 927      BINDING AFFINITY PREDICTED BY RF-SCORE:    0.00 PKD
ROOT
HETATM    1  C   UNL     1      -9.473   3.726  70.305  1.00  0.00    -0.257 C  
HETATM    2  C   UNL     1      -9.768   5.150  70.747  1.00  0.00    -0.255 C  
ENDROOT
BRANCH   2   3
HETATM    3  C   UNL     1     -10.536   5.204  72.038  1.00  0.00    -0.278 C  
HETATM    4  C   UNL     1     -11.659   5.912  72.246  1.00  0.00    -0.338 C  
BRANCH   4   5
HETATM    5  C   UNL     1     -12.297   6.847  71.257  1.00  0.00    -0.422 C  
BRANCH   5   6
HETATM    6  C   UNL     1     -12.277   8.272  71.738  1.00  0.00    -0.367 C  
HETATM    7  C   UNL     1     -11.266   9.146  71.590  1.00  0.00    -0.447 C  
BRANCH   7   8
HETATM    8  C   UNL     1      -9.954   8.827  70.936  1.00  0.00    -0.279 C  
BRANCH   8   9
HETATM    9  C   UNL     1     -10.075   8.668  69.449  1.00  0.00    -0.204 C  
HETATM   10  C   UNL     1     -10.071   9.652  68.535  1.00  0.00    -0.195 C  
BRANCH  10  11
HETATM   11  C   UNL     1      -9.870  11.122  68.787  1.00  0.00    -0.201 C  
BRANCH  11  12
HETATM   12  C   UNL     1     -11.142  11.919  68.701  1.00  0.00    -0.295 C  
HETATM   13  C   UNL     1     -11.791  12.276  67.581  1.00  0.00    -0.334 C  
BRANCH  13  14
HETATM   14  C   UNL     1     -11.325  12.009  66.189  1.00  0.00    -0.407 C  
BRANCH  14  15
HETATM   15  C   UNL     1     -12.296  12.479  65.141  1.00  0.00    -0.496 C  
HETATM   16  C   UNL     1     -12.557  13.777  64.907  1.00  0.00    -0.380 C  
BRANCH  16  17
HETATM   17  C   UNL     1     -11.967  14.908  65.695  1.00  0.00    -0.068 C  
BRANCH  17  18
HETATM   18  C   UNL     1     -10.839  15.601  64.983  1.00  0.00    -0.468 C  
HETATM   19  C   UNL     1      -9.622  15.763  65.533  1.00  0.00    -0.202 C  
BRANCH  19  20
HETATM   20  C   UNL     1      -9.300  15.243  66.908  1.00  0.00    -0.255 C  
BRANCH  20  21
HETATM   21  C   UNL     1      -8.858  16.302  67.910  1.00  0.00    -0.183 C  
HETATM   22  C   UNL     1      -7.371  16.159  68.153  1.00  0.00    -0.132 C  
HETATM   23  O   UNL     1      -6.984  16.635  69.361  1.00  0.00    -0.233 OA 
HETATM   24  O   UNL     1      -6.572  15.696  67.359  1.00  0.00    -0.170 OA 
ENDBRANCH  20  21
ENDBRANCH  19  20
ENDBRANCH  17  18
ENDBRANCH  16  17
ENDBRANCH  14  15
ENDBRANCH  13  14
ENDBRANCH  11  12
ENDBRANCH  10  11
ENDBRANCH   8   9
ENDBRANCH   7   8
ENDBRANCH   5   6
ENDBRANCH   4   5
ENDBRANCH   2   3
TORSDOF 13
ENDMDL
MODEL      316
REMARK 921   NORMALIZED FREE ENERGY PREDICTED BY IDOCK:   -3.38 KCAL/MOL
REMARK 922        TOTAL FREE ENERGY PREDICTED BY IDOCK:   -8.72 KCAL/MOL
REMARK 923 INTER-LIGAND FREE ENERGY PREDICTED BY IDOCK:   -5.90 KCAL/MOL
REMARK 924 INTRA-LIGAND FREE ENERGY PREDICTED BY IDOCK:   -2.83 KCAL/MOL
REMARK 927      BINDING AFFINITY PREDICTED BY RF-SCORE:    0.00 PKD
ROOT
HETATM    1  C   UNL     1      -9.754   6.769  74.058  1.00  0.00    -0.308 C  
HETATM    2  C   UNL     1     -10.649   6.740  72.831  1.00  0.00    -0.278 C  
ENDROOT
BRANCH   2   3
HETATM    3  C   UNL     1     -11.598   7.904  72.781  1.00  0.00    -0.387 C  
HETATM    4  C   UNL     1     -11.944   8.578  71.671  1.00  0.00    -0.372 C  
BRANCH   4   5
HETATM    5  C   UNL     1     -11.375   8.350  70.299  1.00  0.00    -0.131 C  
BRANCH   5   6
HETATM    6  C   UNL     1     -10.174   9.217  70.038  1.00  0.00    -0.229 C  
HETATM    7  C   UNL     1     -10.177  10.420  69.438  1.00  0.00    -0.257 C  
BRANCH   7   8
HETATM    8  C   UNL     1     -11.400  11.094  68.889  1.00  0.00    -0.344 C  
BRANCH   8   9
HETATM    9  C   UNL     1     -11.708  12.385  69.590  1.00  0.00    -0.377 C  
HETATM   10  C   UNL     1     -11.921  13.579  69.012  1.00  0.00    -0.376 C  
BRANCH  10  11
HETATM   11  C   UNL     1     -11.972  13.876  67.538  1.00  0.00    -0.421 C  
BRANCH  11  12
HETATM   12  C   UNL     1     -11.363  15.204  67.178  1.00  0.00    -0.291 C  
HETATM   13  C   UNL     1     -10.112  15.422  66.745  1.00  0.00    -0.266 C  
BRANCH  13  14
HETATM   14  C   UNL     1      -9.051  14.381  66.608  1.00  0.00    -0.265 C  
BRANCH  14  15
HETATM   15  C   UNL     1      -8.362  14.066  67.906  1.00  0.00    -0.168 C  
HETATM   16  C   UNL     1      -7.727  12.905  68.140  1.00  0.00    -0.138 C  
BRANCH  16  17
HETATM   17  C   UNL     1      -7.678  11.763  67.170  1.00  0.00    -0.162 C  
BRANCH  17  18
HETATM   18  C   UNL     1      -6.970  10.552  67.713  1.00  0.00    -0.078 C  
HETATM   19  C   UNL     1      -7.304   9.297  67.364  1.00  0.00    -0.087 C  
BRANCH  19  20
HETATM   20  C   UNL     1      -8.412   9.016  66.385  1.00  0.00    -0.126 C  
BRANCH  20  21
HETATM   21  C   UNL     1      -8.676   7.539  66.117  1.00  0.00    -0.174 C  
HETATM   22  C   UNL     1      -9.979   7.146  66.779  1.00  0.00    -0.208 C  
HETATM   23  O   UNL     1     -10.043   5.826  67.078  1.00  0.00    -0.149 OA 
HETATM   24  O   UNL     1     -10.906   7.902  67.008  1.00  0.00    -0.305 OA 
ENDBRANCH  20  21
ENDBRANCH  19  20
ENDBRANCH  17  18
ENDBRANCH  16  17
ENDBRANCH  14  15
ENDBRANCH  13  14
ENDBRANCH  11  12
ENDBRANCH  10  11
ENDBRANCH   8   9
ENDBRANCH   7   8
ENDBRANCH   5   6
ENDBRANCH   4   5
ENDBRANCH   2   3
TORSDOF 13
ENDMDL
MODEL      317
REMARK 921   NORMALIZED FREE ENERGY PREDICTED BY IDOCK:   -3.38 KCAL/MOL
REMARK 922        TOTAL FREE ENERGY PREDICTED BY IDOCK:   -8.72 KCAL/MOL
REMARK 923 INTER-LIGAND FREE ENERGY PREDICTED BY IDOCK:   -6.57 KCAL/MOL
REMARK 924 INTRA-LIGAND FREE ENERGY PREDICTED BY IDOCK:   -2.15 KCAL/MOL
REMARK 927      BINDING AFFINITY PREDICTED BY RF-SCORE:    0.00 PKD
ROOT
HETATM    1  C   UNL     1      -7.504  20.283  67.574  1.00  0.00    -0.347 C  
HETATM    2  C   UNL     1      -8.327  19.192  66.910  1.00  0.00    -0.300 C  
ENDROOT
BRANCH   2   3
HETATM    3  C   UNL     1      -9.805  19.410  67.066  1.00  0.00    -0.440 C  
HETATM    4  C   UNL     1     -10.690  18.484  67.475  1.00  0.00    -0.419 C  
BRANCH   4   5
HETATM    5  C   UNL     1     -10.374  17.042  67.760  1.00  0.00    -0.335 C  
BRANCH   5   6
HETATM    6  C   UNL     1     -11.387  16.417  68.680  1.00  0.00    -0.289 C  
HETATM    7  C   UNL     1     -11.852  15.157  68.611  1.00  0.00    -0.329 C  
BRANCH   7   8
HETATM    8  C   UNL     1     -11.450  14.158  67.565  1.00  0.00    -0.365 C  
BRANCH   8   9
HETATM    9  C   UNL     1     -12.347  14.193  66.362  1.00  0.00    -0.431 C  
HETATM   10  C   UNL     1     -11.980  14.003  65.084  1.00  0.00    -0.392 C  
BRANCH  10  11
HETATM   11  C   UNL     1     -10.610  13.639  64.578  1.00  0.00    -0.428 C  
BRANCH  11  12
HETATM   12  C   UNL     1     -10.604  12.406  63.716  1.00  0.00    -0.486 C  
HETATM   13  C   UNL     1     -10.212  11.175  64.080  1.00  0.00    -0.419 C  
BRANCH  13  14
HETATM   14  C   UNL     1      -9.630  10.809  65.405  1.00  0.00    -0.272 C  
BRANCH  14  15
HETATM   15  C   UNL     1     -10.656  10.302  66.380  1.00  0.00    -0.177 C  
HETATM   16  C   UNL     1     -10.567  10.491  67.708  1.00  0.00    -0.285 C  
BRANCH  16  17
HETATM   17  C   UNL     1      -9.413  11.169  68.385  1.00  0.00    -0.189 C  
BRANCH  17  18
HETATM   18  C   UNL     1      -8.593  10.238  69.234  1.00  0.00    -0.175 C  
HETATM   19  C   UNL     1      -7.489   9.619  68.777  1.00  0.00    -0.075 C  
BRANCH  19  20
HETATM   20  C   UNL     1      -6.987   9.830  67.374  1.00  0.00    -0.084 C  
BRANCH  20  21
HETATM   21  C   UNL     1      -6.354   8.605  66.726  1.00  0.00    -0.059 C  
HETATM   22  C   UNL     1      -7.372   7.485  66.693  1.00  0.00    -0.091 C  
HETATM   23  O   UNL     1      -6.804   6.256  66.662  1.00  0.00    -0.058 OA 
HETATM   24  O   UNL     1      -8.580   7.636  66.667  1.00  0.00    -0.123 OA 
ENDBRANCH  20  21
ENDBRANCH  19  20
ENDBRANCH  17  18
ENDBRANCH  16  17
ENDBRANCH  14  15
ENDBRANCH  13  14
ENDBRANCH  11  12
ENDBRANCH  10  11
ENDBRANCH   8   9
ENDBRANCH   7   8
ENDBRANCH   5   6
ENDBRANCH   4   5
ENDBRANCH   2   3
TORSDOF 13
ENDMDL
MODEL      318
REMARK 921   NORMALIZED FREE ENERGY PREDICTED BY IDOCK:   -3.37 KCAL/MOL
REMARK 922        TOTAL FREE ENERGY PREDICTED BY IDOCK:   -8.71 KCAL/MOL
REMARK 923 INTER-LIGAND FREE ENERGY PREDICTED BY IDOCK:   -6.43 KCAL/MOL
REMARK 924 INTRA-LIGAND FREE ENERGY PREDICTED BY IDOCK:   -2.27 KCAL/MOL
REMARK 927      BINDING AFFINITY PREDICTED BY RF-SCORE:    0.00 PKD
ROOT
HETATM    1  C   UNL     1      -8.906  17.206  66.308  1.00  0.00    -0.266 C  
HETATM    2  C   UNL     1     -10.388  17.038  66.018  1.00  0.00    -0.324 C  
ENDROOT
BRANCH   2   3
HETATM    3  C   UNL     1     -10.675  15.840  65.158  1.00  0.00    -0.455 C  
HETATM    4  C   UNL     1     -11.284  14.715  65.570  1.00  0.00    -0.343 C  
BRANCH   4   5
HETATM    5  C   UNL     1     -11.702  14.416  66.983  1.00  0.00    -0.420 C  
BRANCH   5   6
HETATM    6  C   UNL     1     -10.591  13.782  67.774  1.00  0.00    -0.250 C  
HETATM    7  C   UNL     1     -10.313  12.468  67.841  1.00  0.00    -0.219 C  
BRANCH   7   8
HETATM    8  C   UNL     1     -11.100  11.395  67.148  1.00  0.00    -0.366 C  
BRANCH   8   9
HETATM    9  C   UNL     1     -10.591  11.110  65.766  1.00  0.00    -0.289 C  
HETATM   10  C   UNL     1      -9.789  10.094  65.401  1.00  0.00    -0.375 C  
BRANCH  10  11
HETATM   11  C   UNL     1      -9.285   8.978  66.276  1.00  0.00    -0.258 C  
BRANCH  11  12
HETATM   12  C   UNL     1      -7.888   9.208  66.784  1.00  0.00    -0.101 C  
HETATM   13  C   UNL     1      -7.034   8.274  67.231  1.00  0.00    -0.075 C  
BRANCH  13  14
HETATM   14  C   UNL     1      -7.341   6.821  67.380  1.00  0.00    -0.095 C  
BRANCH  14  15
HETATM   15  C   UNL     1      -7.322   6.077  66.074  1.00  0.00    -0.077 C  
HETATM   16  C   UNL     1      -8.244   5.159  65.735  1.00  0.00    -0.117 C  
BRANCH  16  17
HETATM   17  C   UNL     1      -9.362   4.720  66.633  1.00  0.00    -0.146 C  
BRANCH  17  18
HETATM   18  C   UNL     1     -10.586   5.587  66.523  1.00  0.00    -0.343 C  
HETATM   19  C   UNL     1     -11.129   6.217  67.580  1.00  0.00    -0.368 C  
BRANCH  19  20
HETATM   20  C   UNL     1     -10.532   6.107  68.958  1.00  0.00    -0.305 C  
BRANCH  20  21
HETATM   21  C   UNL     1     -11.492   6.411  70.101  1.00  0.00    -0.484 C  
HETATM   22  C   UNL     1     -11.180   7.785  70.653  1.00  0.00    -0.268 C  
HETATM   23  O   UNL     1     -11.558   7.934  71.946  1.00  0.00    -0.266 OA 
HETATM   24  O   UNL     1     -10.671   8.695  70.023  1.00  0.00    -0.225 OA 
ENDBRANCH  20  21
ENDBRANCH  19  20
ENDBRANCH  17  18
ENDBRANCH  16  17
ENDBRANCH  14  15
ENDBRANCH  13  14
ENDBRANCH  11  12
ENDBRANCH  10  11
ENDBRANCH   8   9
ENDBRANCH   7   8
ENDBRANCH   5   6
ENDBRANCH   4   5
ENDBRANCH   2   3
TORSDOF 13
ENDMDL
MODEL      319
REMARK 921   NORMALIZED FREE ENERGY PREDICTED BY IDOCK:   -3.37 KCAL/MOL
REMARK 922        TOTAL FREE ENERGY PREDICTED BY IDOCK:   -8.70 KCAL/MOL
REMARK 923 INTER-LIGAND FREE ENERGY PREDICTED BY IDOCK:   -5.76 KCAL/MOL
REMARK 924 INTRA-LIGAND FREE ENERGY PREDICTED BY IDOCK:   -2.94 KCAL/MOL
REMARK 927      BINDING AFFINITY PREDICTED BY RF-SCORE:    0.00 PKD
ROOT
HETATM    1  C   UNL     1     -11.578  11.654  68.022  1.00  0.00    -0.383 C  
HETATM    2  C   UNL     1     -10.966  10.928  66.835  1.00  0.00    -0.286 C  
ENDROOT
BRANCH   2   3
HETATM    3  C   UNL     1     -10.691  11.846  65.678  1.00  0.00    -0.325 C  
HETATM    4  C   UNL     1     -10.096  11.489  64.526  1.00  0.00    -0.324 C  
BRANCH   4   5
HETATM    5  C   UNL     1      -9.516  10.135  64.227  1.00  0.00    -0.366 C  
BRANCH   5   6
HETATM    6  C   UNL     1      -8.046  10.210  63.918  1.00  0.00    -0.157 C  
HETATM    7  C   UNL     1      -7.040   9.998  64.785  1.00  0.00    -0.137 C  
BRANCH   7   8
HETATM    8  C   UNL     1      -7.224   9.678  66.239  1.00  0.00    -0.094 C  
BRANCH   8   9
HETATM    9  C   UNL     1      -7.237  10.906  67.102  1.00  0.00    -0.104 C  
HETATM   10  C   UNL     1      -7.553  10.966  68.406  1.00  0.00    -0.104 C  
BRANCH  10  11
HETATM   11  C   UNL     1      -7.891   9.812  69.311  1.00  0.00    -0.105 C  
BRANCH  11  12
HETATM   12  C   UNL     1      -9.258   9.923  69.928  1.00  0.00    -0.245 C  
HETATM   13  C   UNL     1      -9.697   9.285  71.025  1.00  0.00    -0.341 C  
BRANCH  13  14
HETATM   14  C   UNL     1      -8.925   8.274  71.805  1.00  0.00    -0.241 C  
BRANCH  14  15
HETATM   15  C   UNL     1      -9.483   8.038  73.180  1.00  0.00    -0.349 C  
HETATM   16  C   UNL     1     -10.542   7.245  73.419  1.00  0.00    -0.435 C  
BRANCH  16  17
HETATM   17  C   UNL     1     -11.332   6.553  72.350  1.00  0.00    -0.314 C  
BRANCH  17  18
HETATM   18  C   UNL     1     -10.779   5.204  71.983  1.00  0.00    -0.236 C  
HETATM   19  C   UNL     1     -10.397   4.889  70.732  1.00  0.00    -0.228 C  
BRANCH  19  20
HETATM   20  C   UNL     1     -10.486   5.883  69.605  1.00  0.00    -0.346 C  
BRANCH  20  21
HETATM   21  C   UNL     1      -9.253   5.957  68.713  1.00  0.00    -0.120 C  
HETATM   22  C   UNL     1      -9.613   6.686  67.436  1.00  0.00    -0.126 C  
HETATM   23  O   UNL     1      -8.818   6.347  66.392  1.00  0.00    -0.132 OA 
HETATM   24  O   UNL     1     -10.497   7.515  67.328  1.00  0.00    -0.262 OA 
ENDBRANCH  20  21
ENDBRANCH  19  20
ENDBRANCH  17  18
ENDBRANCH  16  17
ENDBRANCH  14  15
ENDBRANCH  13  14
ENDBRANCH  11  12
ENDBRANCH  10  11
ENDBRANCH   8   9
ENDBRANCH   7   8
ENDBRANCH   5   6
ENDBRANCH   4   5
ENDBRANCH   2   3
TORSDOF 13
ENDMDL
MODEL      320
REMARK 921   NORMALIZED FREE ENERGY PREDICTED BY IDOCK:   -3.37 KCAL/MOL
REMARK 922        TOTAL FREE ENERGY PREDICTED BY IDOCK:   -8.70 KCAL/MOL
REMARK 923 INTER-LIGAND FREE ENERGY PREDICTED BY IDOCK:   -6.23 KCAL/MOL
REMARK 924 INTRA-LIGAND FREE ENERGY PREDICTED BY IDOCK:   -2.47 KCAL/MOL
REMARK 927      BINDING AFFINITY PREDICTED BY RF-SCORE:    0.00 PKD
ROOT
HETATM    1  C   UNL     1      -9.256   8.621  65.915  1.00  0.00    -0.264 C  
HETATM    2  C   UNL     1     -10.287   8.200  66.949  1.00  0.00    -0.401 C  
ENDROOT
BRANCH   2   3
HETATM    3  C   UNL     1     -10.612   6.735  66.875  1.00  0.00    -0.374 C  
HETATM    4  C   UNL     1     -10.994   5.969  67.912  1.00  0.00    -0.334 C  
BRANCH   4   5
HETATM    5  C   UNL     1     -11.075   6.418  69.344  1.00  0.00    -0.450 C  
BRANCH   5   6
HETATM    6  C   UNL     1     -10.524   5.384  70.288  1.00  0.00    -0.355 C  
HETATM    7  C   UNL     1      -9.303   5.394  70.851  1.00  0.00    -0.196 C  
BRANCH   7   8
HETATM    8  C   UNL     1      -8.258   6.441  70.600  1.00  0.00    -0.125 C  
BRANCH   8   9
HETATM    9  C   UNL     1      -8.237   7.498  71.664  1.00  0.00    -0.108 C  
HETATM   10  C   UNL     1      -8.559   8.794  71.513  1.00  0.00    -0.253 C  
BRANCH  10  11
HETATM   11  C   UNL     1      -9.084   9.458  70.269  1.00  0.00    -0.283 C  
BRANCH  11  12
HETATM   12  C   UNL     1      -8.000   9.852  69.304  1.00  0.00    -0.121 C  
HETATM   13  C   UNL     1      -7.955  10.968  68.560  1.00  0.00    -0.137 C  
BRANCH  13  14
HETATM   14  C   UNL     1      -9.024  12.008  68.494  1.00  0.00    -0.098 C  
BRANCH  14  15
HETATM   15  C   UNL     1     -10.046  11.735  67.426  1.00  0.00    -0.212 C  
HETATM   16  C   UNL     1     -10.687  12.707  66.755  1.00  0.00    -0.261 C  
BRANCH  16  17
HETATM   17  C   UNL     1     -10.513  14.172  67.025  1.00  0.00    -0.271 C  
BRANCH  17  18
HETATM   18  C   UNL     1     -11.730  14.812  67.633  1.00  0.00    -0.364 C  
HETATM   19  C   UNL     1     -11.659  15.692  68.648  1.00  0.00    -0.391 C  
BRANCH  19  20
HETATM   20  C   UNL     1     -10.340  16.110  69.242  1.00  0.00    -0.265 C  
BRANCH  20  21
HETATM   21  C   UNL     1      -9.759  17.399  68.675  1.00  0.00    -0.308 C  
HETATM   22  C   UNL     1      -8.286  17.192  68.395  1.00  0.00    -0.251 C  
HETATM   23  O   UNL     1      -7.576  18.345  68.420  1.00  0.00    -0.272 OA 
HETATM   24  O   UNL     1      -7.764  16.121  68.141  1.00  0.00    -0.137 OA 
ENDBRANCH  20  21
ENDBRANCH  19  20
ENDBRANCH  17  18
ENDBRANCH  16  17
ENDBRANCH  14  15
ENDBRANCH  13  14
ENDBRANCH  11  12
ENDBRANCH  10  11
ENDBRANCH   8   9
ENDBRANCH   7   8
ENDBRANCH   5   6
ENDBRANCH   4   5
ENDBRANCH   2   3
TORSDOF 13
ENDMDL
MODEL      321
REMARK 921   NORMALIZED FREE ENERGY PREDICTED BY IDOCK:   -3.36 KCAL/MOL
REMARK 922        TOTAL FREE ENERGY PREDICTED BY IDOCK:   -8.69 KCAL/MOL
REMARK 923 INTER-LIGAND FREE ENERGY PREDICTED BY IDOCK:   -6.29 KCAL/MOL
REMARK 924 INTRA-LIGAND FREE ENERGY PREDICTED BY IDOCK:   -2.41 KCAL/MOL
REMARK 927      BINDING AFFINITY PREDICTED BY RF-SCORE:    0.00 PKD
ROOT
HETATM    1  C   UNL     1     -12.448  13.464  65.207  1.00  0.00    -0.532 C  
HETATM    2  C   UNL     1     -11.187  12.754  65.671  1.00  0.00    -0.335 C  
ENDROOT
BRANCH   2   3
HETATM    3  C   UNL     1     -11.480  11.590  66.576  1.00  0.00    -0.178 C  
HETATM    4  C   UNL     1     -11.564  11.649  67.916  1.00  0.00    -0.369 C  
BRANCH   4   5
HETATM    5  C   UNL     1     -11.287  12.864  68.755  1.00  0.00    -0.333 C  
BRANCH   5   6
HETATM    6  C   UNL     1     -11.905  12.756  70.122  1.00  0.00    -0.326 C  
HETATM    7  C   UNL     1     -12.520  13.743  70.798  1.00  0.00    -0.441 C  
BRANCH   7   8
HETATM    8  C   UNL     1     -12.664  15.151  70.301  1.00  0.00    -0.340 C  
BRANCH   8   9
HETATM    9  C   UNL     1     -11.484  16.009  70.654  1.00  0.00    -0.427 C  
HETATM   10  C   UNL     1     -10.691  16.673  69.796  1.00  0.00    -0.254 C  
BRANCH  10  11
HETATM   11  C   UNL     1     -10.850  16.767  68.303  1.00  0.00    -0.366 C  
BRANCH  11  12
HETATM   12  C   UNL     1      -9.799  16.002  67.545  1.00  0.00    -0.235 C  
HETATM   13  C   UNL     1      -8.754  16.518  66.879  1.00  0.00    -0.233 C  
BRANCH  13  14
HETATM   14  C   UNL     1      -8.476  17.973  66.700  1.00  0.00    -0.283 C  
BRANCH  14  15
HETATM   15  C   UNL     1      -8.178  18.681  67.993  1.00  0.00    -0.294 C  
HETATM   16  C   UNL     1      -7.182  18.317  68.819  1.00  0.00    -0.291 C  
BRANCH  16  17
HETATM   17  C   UNL     1      -6.290  17.134  68.590  1.00  0.00    -0.163 C  
BRANCH  17  18
HETATM   18  C   UNL     1      -6.148  16.255  69.802  1.00  0.00    -0.198 C  
HETATM   19  C   UNL     1      -6.068  14.914  69.723  1.00  0.00    -0.135 C  
BRANCH  19  20
HETATM   20  C   UNL     1      -6.101  14.197  68.400  1.00  0.00    -0.101 C  
BRANCH  20  21
HETATM   21  C   UNL     1      -7.400  13.461  68.099  1.00  0.00    -0.117 C  
HETATM   22  C   UNL     1      -7.293  12.042  68.615  1.00  0.00    -0.111 C  
HETATM   23  O   UNL     1      -8.101  11.177  67.956  1.00  0.00    -0.114 OA 
HETATM   24  O   UNL     1      -6.586  11.685  69.541  1.00  0.00    -0.110 OA 
ENDBRANCH  20  21
ENDBRANCH  19  20
ENDBRANCH  17  18
ENDBRANCH  16  17
ENDBRANCH  14  15
ENDBRANCH  13  14
ENDBRANCH  11  12
ENDBRANCH  10  11
ENDBRANCH   8   9
ENDBRANCH   7   8
ENDBRANCH   5   6
ENDBRANCH   4   5
ENDBRANCH   2   3
TORSDOF 13
ENDMDL
MODEL      322
REMARK 921   NORMALIZED FREE ENERGY PREDICTED BY IDOCK:   -3.34 KCAL/MOL
REMARK 922        TOTAL FREE ENERGY PREDICTED BY IDOCK:   -8.65 KCAL/MOL
REMARK 923 INTER-LIGAND FREE ENERGY PREDICTED BY IDOCK:   -5.66 KCAL/MOL
REMARK 924 INTRA-LIGAND FREE ENERGY PREDICTED BY IDOCK:   -2.99 KCAL/MOL
REMARK 927      BINDING AFFINITY PREDICTED BY RF-SCORE:    0.00 PKD
ROOT
HETATM    1  C   UNL     1     -12.514  13.121  65.305  1.00  0.00    -0.550 C  
HETATM    2  C   UNL     1     -12.292  13.641  66.716  1.00  0.00    -0.354 C  
ENDROOT
BRANCH   2   3
HETATM    3  C   UNL     1     -11.018  13.128  67.326  1.00  0.00    -0.288 C  
HETATM    4  C   UNL     1     -10.076  13.886  67.913  1.00  0.00    -0.242 C  
BRANCH   4   5
HETATM    5  C   UNL     1     -10.082  15.388  67.981  1.00  0.00    -0.226 C  
BRANCH   5   6
HETATM    6  C   UNL     1      -9.882  16.013  66.627  1.00  0.00    -0.273 C  
HETATM    7  C   UNL     1      -8.705  16.365  66.081  1.00  0.00    -0.347 C  
BRANCH   7   8
HETATM    8  C   UNL     1      -7.375  16.219  66.759  1.00  0.00    -0.244 C  
BRANCH   8   9
HETATM    9  C   UNL     1      -7.100  17.329  67.731  1.00  0.00    -0.173 C  
HETATM   10  C   UNL     1      -6.467  17.222  68.912  1.00  0.00    -0.202 C  
BRANCH  10  11
HETATM   11  C   UNL     1      -5.829  15.987  69.489  1.00  0.00    -0.140 C  
BRANCH  11  12
HETATM   12  C   UNL     1      -6.829  14.965  69.956  1.00  0.00    -0.129 C  
HETATM   13  C   UNL     1      -6.854  13.663  69.634  1.00  0.00     0.077 C  
BRANCH  13  14
HETATM   14  C   UNL     1      -5.925  12.989  68.680  1.00  0.00    -0.071 C  
BRANCH  14  15
HETATM   15  C   UNL     1      -6.546  12.731  67.335  1.00  0.00    -0.140 C  
HETATM   16  C   UNL     1      -7.415  11.732  67.104  1.00  0.00    -0.149 C  
BRANCH  16  17
HETATM   17  C   UNL     1      -7.824  10.719  68.132  1.00  0.00    -0.112 C  
BRANCH  17  18
HETATM   18  C   UNL     1      -8.915   9.799  67.656  1.00  0.00    -0.133 C  
HETATM   19  C   UNL     1     -10.002   9.517  68.397  1.00  0.00    -0.184 C  
BRANCH  19  20
HETATM   20  C   UNL     1     -10.209  10.121  69.760  1.00  0.00    -0.286 C  
BRANCH  20  21
HETATM   21  C   UNL     1     -11.378   9.544  70.548  1.00  0.00    -0.343 C  
HETATM   22  C   UNL     1     -12.291  10.675  70.973  1.00  0.00    -0.403 C  
HETATM   23  O   UNL     1     -13.012  10.384  72.082  1.00  0.00    -0.429 OA 
HETATM   24  O   UNL     1     -12.411  11.736  70.387  1.00  0.00    -0.321 OA 
ENDBRANCH  20  21
ENDBRANCH  19  20
ENDBRANCH  17  18
ENDBRANCH  16  17
ENDBRANCH  14  15
ENDBRANCH  13  14
ENDBRANCH  11  12
ENDBRANCH  10  11
ENDBRANCH   8   9
ENDBRANCH   7   8
ENDBRANCH   5   6
ENDBRANCH   4   5
ENDBRANCH   2   3
TORSDOF 13
ENDMDL
MODEL      323
REMARK 921   NORMALIZED FREE ENERGY PREDICTED BY IDOCK:   -3.33 KCAL/MOL
REMARK 922        TOTAL FREE ENERGY PREDICTED BY IDOCK:   -8.64 KCAL/MOL
REMARK 923 INTER-LIGAND FREE ENERGY PREDICTED BY IDOCK:   -5.30 KCAL/MOL
REMARK 924 INTRA-LIGAND FREE ENERGY PREDICTED BY IDOCK:   -3.34 KCAL/MOL
REMARK 927      BINDING AFFINITY PREDICTED BY RF-SCORE:    0.00 PKD
ROOT
HETATM    1  C   UNL     1     -12.533  12.957  64.886  1.00  0.00    -0.540 C  
HETATM    2  C   UNL     1     -12.153  13.083  66.352  1.00  0.00    -0.428 C  
ENDROOT
BRANCH   2   3
HETATM    3  C   UNL     1     -10.999  12.197  66.727  1.00  0.00    -0.325 C  
HETATM    4  C   UNL     1     -10.033  12.508  67.608  1.00  0.00    -0.201 C  
BRANCH   4   5
HETATM    5  C   UNL     1      -9.882  13.831  68.305  1.00  0.00    -0.232 C  
BRANCH   5   6
HETATM    6  C   UNL     1      -9.466  14.921  67.356  1.00  0.00    -0.206 C  
HETATM    7  C   UNL     1      -8.206  15.226  66.999  1.00  0.00    -0.267 C  
BRANCH   7   8
HETATM    8  C   UNL     1      -6.982  14.535  67.525  1.00  0.00    -0.188 C  
BRANCH   8   9
HETATM    9  C   UNL     1      -6.667  14.921  68.940  1.00  0.00    -0.100 C  
HETATM   10  C   UNL     1      -6.106  14.139  69.878  1.00  0.00    -0.140 C  
BRANCH  10  11
HETATM   11  C   UNL     1      -5.601  12.732  69.701  1.00  0.00    -0.096 C  
BRANCH  11  12
HETATM   12  C   UNL     1      -6.684  11.695  69.812  1.00  0.00    -0.013 C  
HETATM   13  C   UNL     1      -6.919  10.686  68.958  1.00  0.00    -0.080 C  
BRANCH  13  14
HETATM   14  C   UNL     1      -6.187  10.446  67.680  1.00  0.00    -0.056 C  
BRANCH  14  15
HETATM   15  C   UNL     1      -6.887  11.023  66.481  1.00  0.00    -0.132 C  
HETATM   16  C   UNL     1      -7.828  10.359  65.788  1.00  0.00    -0.150 C  
BRANCH  16  17
HETATM   17  C   UNL     1      -8.251   8.950  66.080  1.00  0.00    -0.116 C  
BRANCH  17  18
HETATM   18  C   UNL     1      -9.743   8.769  66.094  1.00  0.00    -0.320 C  
HETATM   19  C   UNL     1     -10.454   8.676  67.233  1.00  0.00    -0.360 C  
BRANCH  19  20
HETATM   20  C   UNL     1      -9.797   8.761  68.584  1.00  0.00    -0.180 C  
BRANCH  20  21
HETATM   21  C   UNL     1     -10.645   8.258  69.746  1.00  0.00    -0.228 C  
HETATM   22  C   UNL     1     -11.025   9.432  70.622  1.00  0.00    -0.290 C  
HETATM   23  O   UNL     1     -11.282   9.074  71.903  1.00  0.00    -0.354 OA 
HETATM   24  O   UNL     1     -11.126  10.585  70.244  1.00  0.00    -0.298 OA 
ENDBRANCH  20  21
ENDBRANCH  19  20
ENDBRANCH  17  18
ENDBRANCH  16  17
ENDBRANCH  14  15
ENDBRANCH  13  14
ENDBRANCH  11  12
ENDBRANCH  10  11
ENDBRANCH   8   9
ENDBRANCH   7   8
ENDBRANCH   5   6
ENDBRANCH   4   5
ENDBRANCH   2   3
TORSDOF 13
ENDMDL
MODEL      324
REMARK 921   NORMALIZED FREE ENERGY PREDICTED BY IDOCK:   -3.33 KCAL/MOL
REMARK 922        TOTAL FREE ENERGY PREDICTED BY IDOCK:   -8.63 KCAL/MOL
REMARK 923 INTER-LIGAND FREE ENERGY PREDICTED BY IDOCK:   -6.40 KCAL/MOL
REMARK 924 INTRA-LIGAND FREE ENERGY PREDICTED BY IDOCK:   -2.23 KCAL/MOL
REMARK 927      BINDING AFFINITY PREDICTED BY RF-SCORE:    0.00 PKD
ROOT
HETATM    1  C   UNL     1      -9.421   5.073  66.168  1.00  0.00    -0.166 C  
HETATM    2  C   UNL     1     -10.302   4.892  67.393  1.00  0.00    -0.127 C  
ENDROOT
BRANCH   2   3
HETATM    3  C   UNL     1      -9.601   5.270  68.668  1.00  0.00    -0.183 C  
HETATM    4  C   UNL     1     -10.176   5.874  69.722  1.00  0.00    -0.281 C  
BRANCH   4   5
HETATM    5  C   UNL     1     -11.596   6.362  69.780  1.00  0.00    -0.397 C  
BRANCH   5   6
HETATM    6  C   UNL     1     -12.011   6.718  71.181  1.00  0.00    -0.421 C  
HETATM    7  C   UNL     1     -11.857   7.915  71.775  1.00  0.00    -0.333 C  
BRANCH   7   8
HETATM    8  C   UNL     1     -11.204   9.105  71.135  1.00  0.00    -0.395 C  
BRANCH   8   9
HETATM    9  C   UNL     1      -9.736   9.186  71.434  1.00  0.00    -0.338 C  
HETATM   10  C   UNL     1      -8.742   9.318  70.539  1.00  0.00    -0.276 C  
BRANCH  10  11
HETATM   11  C   UNL     1      -8.880   9.490  69.050  1.00  0.00    -0.143 C  
BRANCH  11  12
HETATM   12  C   UNL     1      -7.994   8.565  68.262  1.00  0.00    -0.114 C  
HETATM   13  C   UNL     1      -7.319   8.864  67.141  1.00  0.00    -0.084 C  
BRANCH  13  14
HETATM   14  C   UNL     1      -7.381  10.166  66.414  1.00  0.00    -0.108 C  
BRANCH  14  15
HETATM   15  C   UNL     1      -6.969  10.058  64.973  1.00  0.00    -0.135 C  
HETATM   16  C   UNL     1      -7.844  10.076  63.953  1.00  0.00    -0.150 C  
BRANCH  16  17
HETATM   17  C   UNL     1      -9.332  10.142  64.124  1.00  0.00    -0.340 C  
BRANCH  17  18
HETATM   18  C   UNL     1     -10.007  11.027  63.112  1.00  0.00    -0.382 C  
HETATM   19  C   UNL     1     -10.573  12.204  63.437  1.00  0.00    -0.454 C  
BRANCH  19  20
HETATM   20  C   UNL     1     -10.557  12.725  64.849  1.00  0.00    -0.336 C  
BRANCH  20  21
HETATM   21  C   UNL     1     -10.318  14.224  64.979  1.00  0.00    -0.448 C  
HETATM   22  C   UNL     1      -9.676  14.505  66.321  1.00  0.00    -0.309 C  
HETATM   23  O   UNL     1      -9.912  15.762  66.768  1.00  0.00    -0.240 OA 
HETATM   24  O   UNL     1      -8.989  13.718  66.948  1.00  0.00    -0.237 OA 
ENDBRANCH  20  21
ENDBRANCH  19  20
ENDBRANCH  17  18
ENDBRANCH  16  17
ENDBRANCH  14  15
ENDBRANCH  13  14
ENDBRANCH  11  12
ENDBRANCH  10  11
ENDBRANCH   8   9
ENDBRANCH   7   8
ENDBRANCH   5   6
ENDBRANCH   4   5
ENDBRANCH   2   3
TORSDOF 13
ENDMDL
MODEL      325
REMARK 921   NORMALIZED FREE ENERGY PREDICTED BY IDOCK:   -3.31 KCAL/MOL
REMARK 922        TOTAL FREE ENERGY PREDICTED BY IDOCK:   -8.61 KCAL/MOL
REMARK 923 INTER-LIGAND FREE ENERGY PREDICTED BY IDOCK:   -5.31 KCAL/MOL
REMARK 924 INTRA-LIGAND FREE ENERGY PREDICTED BY IDOCK:   -3.30 KCAL/MOL
REMARK 927      BINDING AFFINITY PREDICTED BY RF-SCORE:    0.00 PKD
ROOT
HETATM    1  C   UNL     1     -11.216   6.230  69.269  1.00  0.00    -0.458 C  
HETATM    2  C   UNL     1     -10.312   5.464  70.220  1.00  0.00    -0.357 C  
ENDROOT
BRANCH   2   3
HETATM    3  C   UNL     1     -10.871   5.391  71.613  1.00  0.00    -0.232 C  
HETATM    4  C   UNL     1     -10.602   6.255  72.606  1.00  0.00    -0.243 C  
BRANCH   4   5
HETATM    5  C   UNL     1      -9.625   7.394  72.530  1.00  0.00    -0.199 C  
BRANCH   5   6
HETATM    6  C   UNL     1      -9.090   7.766  73.886  1.00  0.00    -0.298 C  
HETATM    7  C   UNL     1      -7.813   8.068  74.181  1.00  0.00    -0.270 C  
BRANCH   7   8
HETATM    8  C   UNL     1      -6.684   8.051  73.192  1.00  0.00    -0.107 C  
BRANCH   8   9
HETATM    9  C   UNL     1      -5.828   6.825  73.317  1.00  0.00    -0.054 C  
HETATM   10  C   UNL     1      -5.986   5.666  72.656  1.00  0.00    -0.035 C  
BRANCH  10  11
HETATM   11  C   UNL     1      -7.006   5.362  71.591  1.00  0.00    -0.067 C  
BRANCH  11  12
HETATM   12  C   UNL     1      -6.478   5.547  70.195  1.00  0.00    -0.034 C  
HETATM   13  C   UNL     1      -6.733   6.576  69.371  1.00  0.00    -0.056 C  
BRANCH  13  14
HETATM   14  C   UNL     1      -7.660   7.709  69.662  1.00  0.00    -0.093 C  
BRANCH  14  15
HETATM   15  C   UNL     1      -8.325   8.258  68.431  1.00  0.00    -0.132 C  
HETATM   16  C   UNL     1      -9.140   9.327  68.449  1.00  0.00    -0.128 C  
BRANCH  16  17
HETATM   17  C   UNL     1      -9.536  10.062  69.695  1.00  0.00    -0.247 C  
BRANCH  17  18
HETATM   18  C   UNL     1     -10.970   9.835  70.087  1.00  0.00    -0.339 C  
HETATM   19  C   UNL     1     -11.914  10.787  69.971  1.00  0.00    -0.427 C  
BRANCH  19  20
HETATM   20  C   UNL     1     -11.599  12.152  69.422  1.00  0.00    -0.381 C  
BRANCH  20  21
HETATM   21  C   UNL     1     -11.636  12.260  67.903  1.00  0.00    -0.416 C  
HETATM   22  C   UNL     1     -10.593  13.260  67.455  1.00  0.00    -0.246 C  
HETATM   23  O   UNL     1     -10.885  13.831  66.262  1.00  0.00    -0.282 OA 
HETATM   24  O   UNL     1      -9.572  13.528  68.063  1.00  0.00    -0.207 OA 
ENDBRANCH  20  21
ENDBRANCH  19  20
ENDBRANCH  17  18
ENDBRANCH  16  17
ENDBRANCH  14  15
ENDBRANCH  13  14
ENDBRANCH  11  12
ENDBRANCH  10  11
ENDBRANCH   8   9
ENDBRANCH   7   8
ENDBRANCH   5   6
ENDBRANCH   4   5
ENDBRANCH   2   3
TORSDOF 13
ENDMDL
MODEL      326
REMARK 921   NORMALIZED FREE ENERGY PREDICTED BY IDOCK:   -3.30 KCAL/MOL
REMARK 922        TOTAL FREE ENERGY PREDICTED BY IDOCK:   -8.59 KCAL/MOL
REMARK 923 INTER-LIGAND FREE ENERGY PREDICTED BY IDOCK:   -5.17 KCAL/MOL
REMARK 924 INTRA-LIGAND FREE ENERGY PREDICTED BY IDOCK:   -3.42 KCAL/MOL
REMARK 927      BINDING AFFINITY PREDICTED BY RF-SCORE:    0.00 PKD
ROOT
HETATM    1  C   UNL     1      -9.284   3.092  66.804  1.00  0.00    -0.175 C  
HETATM    2  C   UNL     1      -9.991   4.333  66.283  1.00  0.00    -0.229 C  
ENDROOT
BRANCH   2   3
HETATM    3  C   UNL     1      -9.312   5.604  66.707  1.00  0.00    -0.139 C  
HETATM    4  C   UNL     1      -9.795   6.483  67.601  1.00  0.00    -0.146 C  
BRANCH   4   5
HETATM    5  C   UNL     1     -11.140   6.401  68.266  1.00  0.00    -0.359 C  
BRANCH   5   6
HETATM    6  C   UNL     1     -11.035   5.924  69.689  1.00  0.00    -0.447 C  
HETATM    7  C   UNL     1     -10.958   6.701  70.784  1.00  0.00    -0.318 C  
BRANCH   7   8
HETATM    8  C   UNL     1     -10.933   8.201  70.762  1.00  0.00    -0.261 C  
BRANCH   8   9
HETATM    9  C   UNL     1      -9.576   8.749  70.431  1.00  0.00    -0.210 C  
HETATM   10  C   UNL     1      -9.311   9.833  69.683  1.00  0.00    -0.237 C  
BRANCH  10  11
HETATM   11  C   UNL     1     -10.309  10.781  69.074  1.00  0.00    -0.235 C  
BRANCH  11  12
HETATM   12  C   UNL     1     -11.099  10.169  67.951  1.00  0.00    -0.303 C  
HETATM   13  C   UNL     1     -10.699  10.016  66.679  1.00  0.00    -0.128 C  
BRANCH  13  14
HETATM   14  C   UNL     1      -9.405  10.500  66.115  1.00  0.00    -0.210 C  
BRANCH  14  15
HETATM   15  C   UNL     1      -8.314   9.468  66.172  1.00  0.00    -0.118 C  
HETATM   16  C   UNL     1      -7.024   9.771  66.399  1.00  0.00    -0.093 C  
BRANCH  16  17
HETATM   17  C   UNL     1      -6.505  11.168  66.561  1.00  0.00    -0.129 C  
BRANCH  17  18
HETATM   18  C   UNL     1      -6.536  11.651  67.985  1.00  0.00    -0.062 C  
HETATM   19  C   UNL     1      -7.137  12.798  68.351  1.00  0.00    -0.102 C  
BRANCH  19  20
HETATM   20  C   UNL     1      -7.837  13.678  67.350  1.00  0.00    -0.162 C  
BRANCH  20  21
HETATM   21  C   UNL     1      -9.341  13.814  67.554  1.00  0.00    -0.222 C  
HETATM   22  C   UNL     1      -9.836  15.013  66.773  1.00  0.00    -0.243 C  
HETATM   23  O   UNL     1     -10.973  15.543  67.285  1.00  0.00    -0.317 OA 
HETATM   24  O   UNL     1      -9.310  15.463  65.771  1.00  0.00    -0.325 OA 
ENDBRANCH  20  21
ENDBRANCH  19  20
ENDBRANCH  17  18
ENDBRANCH  16  17
ENDBRANCH  14  15
ENDBRANCH  13  14
ENDBRANCH  11  12
ENDBRANCH  10  11
ENDBRANCH   8   9
ENDBRANCH   7   8
ENDBRANCH   5   6
ENDBRANCH   4   5
ENDBRANCH   2   3
TORSDOF 13
ENDMDL
MODEL      327
REMARK 921   NORMALIZED FREE ENERGY PREDICTED BY IDOCK:   -3.30 KCAL/MOL
REMARK 922        TOTAL FREE ENERGY PREDICTED BY IDOCK:   -8.59 KCAL/MOL
REMARK 923 INTER-LIGAND FREE ENERGY PREDICTED BY IDOCK:   -6.03 KCAL/MOL
REMARK 924 INTRA-LIGAND FREE ENERGY PREDICTED BY IDOCK:   -2.55 KCAL/MOL
REMARK 927      BINDING AFFINITY PREDICTED BY RF-SCORE:    0.00 PKD
ROOT
HETATM    1  C   UNL     1     -10.386  16.481  68.917  1.00  0.00    -0.292 C  
HETATM    2  C   UNL     1     -10.316  15.567  70.129  1.00  0.00    -0.279 C  
ENDROOT
BRANCH   2   3
HETATM    3  C   UNL     1     -11.648  15.401  70.804  1.00  0.00    -0.381 C  
HETATM    4  C   UNL     1     -12.463  14.341  70.665  1.00  0.00    -0.428 C  
BRANCH   4   5
HETATM    5  C   UNL     1     -12.234  13.179  69.741  1.00  0.00    -0.266 C  
BRANCH   5   6
HETATM    6  C   UNL     1     -11.899  11.920  70.494  1.00  0.00    -0.253 C  
HETATM    7  C   UNL     1     -11.100  10.927  70.065  1.00  0.00    -0.285 C  
BRANCH   7   8
HETATM    8  C   UNL     1     -10.425  10.896  68.726  1.00  0.00    -0.224 C  
BRANCH   8   9
HETATM    9  C   UNL     1     -10.831   9.708  67.904  1.00  0.00    -0.272 C  
HETATM   10  C   UNL     1     -10.251   8.495  67.907  1.00  0.00    -0.273 C  
BRANCH  10  11
HETATM   11  C   UNL     1      -9.118   8.034  68.784  1.00  0.00    -0.144 C  
BRANCH  11  12
HETATM   12  C   UNL     1      -7.763   8.375  68.229  1.00  0.00    -0.106 C  
HETATM   13  C   UNL     1      -6.821   9.129  68.818  1.00  0.00    -0.061 C  
BRANCH  13  14
HETATM   14  C   UNL     1      -6.973   9.841  70.121  1.00  0.00    -0.118 C  
BRANCH  14  15
HETATM   15  C   UNL     1      -6.391   9.082  71.280  1.00  0.00    -0.075 C  
HETATM   16  C   UNL     1      -7.141   8.450  72.199  1.00  0.00    -0.108 C  
BRANCH  16  17
HETATM   17  C   UNL     1      -8.640   8.472  72.219  1.00  0.00    -0.235 C  
BRANCH  17  18
HETATM   18  C   UNL     1      -9.229   7.728  73.386  1.00  0.00    -0.344 C  
HETATM   19  C   UNL     1     -10.521   7.358  73.436  1.00  0.00    -0.419 C  
BRANCH  19  20
HETATM   20  C   UNL     1     -11.473   7.656  72.308  1.00  0.00    -0.366 C  
BRANCH  20  21
HETATM   21  C   UNL     1     -12.459   8.786  72.580  1.00  0.00    -0.368 C  
HETATM   22  C   UNL     1     -13.703   8.563  71.748  1.00  0.00    -0.407 C  
HETATM   23  O   UNL     1     -14.375   9.709  71.484  1.00  0.00     0.086 OA 
HETATM   24  O   UNL     1     -14.105   7.479  71.364  1.00  0.00    -0.415 OA 
ENDBRANCH  20  21
ENDBRANCH  19  20
ENDBRANCH  17  18
ENDBRANCH  16  17
ENDBRANCH  14  15
ENDBRANCH  13  14
ENDBRANCH  11  12
ENDBRANCH  10  11
ENDBRANCH   8   9
ENDBRANCH   7   8
ENDBRANCH   5   6
ENDBRANCH   4   5
ENDBRANCH   2   3
TORSDOF 13
ENDMDL
MODEL      328
REMARK 921   NORMALIZED FREE ENERGY PREDICTED BY IDOCK:   -3.29 KCAL/MOL
REMARK 922        TOTAL FREE ENERGY PREDICTED BY IDOCK:   -8.57 KCAL/MOL
REMARK 923 INTER-LIGAND FREE ENERGY PREDICTED BY IDOCK:   -6.56 KCAL/MOL
REMARK 924 INTRA-LIGAND FREE ENERGY PREDICTED BY IDOCK:   -2.01 KCAL/MOL
REMARK 927      BINDING AFFINITY PREDICTED BY RF-SCORE:    0.00 PKD
ROOT
HETATM    1  C   UNL     1      -6.521   9.235  64.239  1.00  0.00    -0.086 C  
HETATM    2  C   UNL     1      -7.642   8.217  64.105  1.00  0.00    -0.127 C  
ENDROOT
BRANCH   2   3
HETATM    3  C   UNL     1      -8.173   7.766  65.436  1.00  0.00    -0.140 C  
HETATM    4  C   UNL     1      -9.162   8.363  66.123  1.00  0.00    -0.263 C  
BRANCH   4   5
HETATM    5  C   UNL     1      -9.848   9.641  65.730  1.00  0.00    -0.373 C  
BRANCH   5   6
HETATM    6  C   UNL     1      -9.347  10.816  66.525  1.00  0.00    -0.192 C  
HETATM    7  C   UNL     1     -10.075  11.873  66.924  1.00  0.00    -0.229 C  
BRANCH   7   8
HETATM    8  C   UNL     1     -11.528  12.074  66.609  1.00  0.00    -0.411 C  
BRANCH   8   9
HETATM    9  C   UNL     1     -11.920  13.522  66.599  1.00  0.00    -0.452 C  
HETATM   10  C   UNL     1     -12.207  14.282  67.670  1.00  0.00    -0.215 C  
BRANCH  10  11
HETATM   11  C   UNL     1     -12.129  13.875  69.117  1.00  0.00    -0.377 C  
BRANCH  11  12
HETATM   12  C   UNL     1     -12.232  15.038  70.066  1.00  0.00    -0.373 C  
HETATM   13  C   UNL     1     -11.390  16.080  70.152  1.00  0.00    -0.369 C  
BRANCH  13  14
HETATM   14  C   UNL     1     -10.135  16.246  69.362  1.00  0.00    -0.253 C  
BRANCH  14  15
HETATM   15  C   UNL     1      -9.086  15.225  69.699  1.00  0.00    -0.130 C  
HETATM   16  C   UNL     1      -8.265  14.681  68.784  1.00  0.00    -0.156 C  
BRANCH  16  17
HETATM   17  C   UNL     1      -8.332  14.975  67.315  1.00  0.00    -0.228 C  
BRANCH  17  18
HETATM   18  C   UNL     1      -7.280  15.946  66.856  1.00  0.00    -0.173 C  
HETATM   19  C   UNL     1      -7.577  17.171  66.386  1.00  0.00    -0.347 C  
BRANCH  19  20
HETATM   20  C   UNL     1      -8.997  17.663  66.300  1.00  0.00    -0.211 C  
BRANCH  20  21
HETATM   21  C   UNL     1      -9.378  18.713  67.336  1.00  0.00    -0.298 C  
HETATM   22  C   UNL     1     -10.208  19.787  66.665  1.00  0.00    -0.478 C  
HETATM   23  O   UNL     1     -10.138  20.982  67.299  1.00  0.00    -0.208 OA 
HETATM   24  O   UNL     1     -10.899  19.622  65.676  1.00  0.00    -0.473 OA 
ENDBRANCH  20  21
ENDBRANCH  19  20
ENDBRANCH  17  18
ENDBRANCH  16  17
ENDBRANCH  14  15
ENDBRANCH  13  14
ENDBRANCH  11  12
ENDBRANCH  10  11
ENDBRANCH   8   9
ENDBRANCH   7   8
ENDBRANCH   5   6
ENDBRANCH   4   5
ENDBRANCH   2   3
TORSDOF 13
ENDMDL
MODEL      329
REMARK 921   NORMALIZED FREE ENERGY PREDICTED BY IDOCK:   -3.29 KCAL/MOL
REMARK 922        TOTAL FREE ENERGY PREDICTED BY IDOCK:   -8.56 KCAL/MOL
REMARK 923 INTER-LIGAND FREE ENERGY PREDICTED BY IDOCK:   -6.73 KCAL/MOL
REMARK 924 INTRA-LIGAND FREE ENERGY PREDICTED BY IDOCK:   -1.83 KCAL/MOL
REMARK 927      BINDING AFFINITY PREDICTED BY RF-SCORE:    0.00 PKD
ROOT
HETATM    1  C   UNL     1     -13.537   8.518  72.160  1.00  0.00    -0.402 C  
HETATM    2  C   UNL     1     -13.206   9.735  71.310  1.00  0.00    -0.452 C  
ENDROOT
BRANCH   2   3
HETATM    3  C   UNL     1     -11.737   9.849  71.015  1.00  0.00    -0.466 C  
HETATM    4  C   UNL     1     -11.177  10.755  70.195  1.00  0.00    -0.345 C  
BRANCH   4   5
HETATM    5  C   UNL     1     -11.925  11.753  69.357  1.00  0.00    -0.361 C  
BRANCH   5   6
HETATM    6  C   UNL     1     -11.651  11.571  67.889  1.00  0.00    -0.352 C  
HETATM    7  C   UNL     1     -10.476  11.781  67.268  1.00  0.00    -0.242 C  
BRANCH   7   8
HETATM    8  C   UNL     1      -9.231  12.270  67.946  1.00  0.00    -0.190 C  
BRANCH   8   9
HETATM    9  C   UNL     1      -7.981  11.799  67.263  1.00  0.00    -0.161 C  
HETATM   10  C   UNL     1      -6.767  12.373  67.327  1.00  0.00    -0.133 C  
BRANCH  10  11
HETATM   11  C   UNL     1      -6.372  13.567  68.153  1.00  0.00    -0.124 C  
BRANCH  11  12
HETATM   12  C   UNL     1      -6.383  14.855  67.377  1.00  0.00     0.056 C  
HETATM   13  C   UNL     1      -7.341  15.796  67.397  1.00  0.00    -0.229 C  
BRANCH  13  14
HETATM   14  C   UNL     1      -8.628  15.704  68.147  1.00  0.00    -0.159 C  
BRANCH  14  15
HETATM   15  C   UNL     1      -9.827  15.588  67.248  1.00  0.00    -0.224 C  
HETATM   16  C   UNL     1     -10.707  16.587  67.060  1.00  0.00    -0.191 C  
BRANCH  16  17
HETATM   17  C   UNL     1     -10.640  17.909  67.764  1.00  0.00    -0.399 C  
BRANCH  17  18
HETATM   18  C   UNL     1     -10.717  19.083  66.828  1.00  0.00    -0.450 C  
HETATM   19  C   UNL     1      -9.761  20.028  66.766  1.00  0.00    -0.563 C  
BRANCH  19  20
HETATM   20  C   UNL     1      -8.530  19.966  67.630  1.00  0.00    -0.374 C  
BRANCH  20  21
HETATM   21  C   UNL     1      -7.355  19.211  67.022  1.00  0.00    -0.225 C  
HETATM   22  C   UNL     1      -6.430  20.202  66.349  1.00  0.00    -0.205 C  
HETATM   23  O   UNL     1      -5.696  19.648  65.354  1.00  0.00    -0.161 OA 
HETATM   24  O   UNL     1      -6.311  21.373  66.661  1.00  0.00    -0.376 OA 
ENDBRANCH  20  21
ENDBRANCH  19  20
ENDBRANCH  17  18
ENDBRANCH  16  17
ENDBRANCH  14  15
ENDBRANCH  13  14
ENDBRANCH  11  12
ENDBRANCH  10  11
ENDBRANCH   8   9
ENDBRANCH   7   8
ENDBRANCH   5   6
ENDBRANCH   4   5
ENDBRANCH   2   3
TORSDOF 13
ENDMDL
MODEL      330
REMARK 921   NORMALIZED FREE ENERGY PREDICTED BY IDOCK:   -3.26 KCAL/MOL
REMARK 922        TOTAL FREE ENERGY PREDICTED BY IDOCK:   -8.52 KCAL/MOL
REMARK 923 INTER-LIGAND FREE ENERGY PREDICTED BY IDOCK:   -6.57 KCAL/MOL
REMARK 924 INTRA-LIGAND FREE ENERGY PREDICTED BY IDOCK:   -1.95 KCAL/MOL
REMARK 927      BINDING AFFINITY PREDICTED BY RF-SCORE:    0.00 PKD
ROOT
HETATM    1  C   UNL     1      -6.243  13.498  69.517  1.00  0.00    -0.115 C  
HETATM    2  C   UNL     1      -7.116  12.336  69.075  1.00  0.00    -0.051 C  
ENDROOT
BRANCH   2   3
HETATM    3  C   UNL     1      -7.493  12.417  67.623  1.00  0.00    -0.138 C  
HETATM    4  C   UNL     1      -8.639  12.929  67.143  1.00  0.00    -0.198 C  
BRANCH   4   5
HETATM    5  C   UNL     1      -9.788  13.426  67.976  1.00  0.00    -0.229 C  
BRANCH   5   6
HETATM    6  C   UNL     1      -9.855  14.928  68.001  1.00  0.00    -0.216 C  
HETATM    7  C   UNL     1     -10.225  15.724  66.983  1.00  0.00    -0.280 C  
BRANCH   7   8
HETATM    8  C   UNL     1     -10.610  15.236  65.617  1.00  0.00    -0.377 C  
BRANCH   8   9
HETATM    9  C   UNL     1     -12.091  15.049  65.469  1.00  0.00     0.072 C  
HETATM   10  C   UNL     1     -12.745  13.880  65.358  1.00  0.00    -0.525 C  
BRANCH  10  11
HETATM   11  C   UNL     1     -12.151  12.500  65.433  1.00  0.00    -0.494 C  
BRANCH  11  12
HETATM   12  C   UNL     1     -11.458  12.082  64.165  1.00  0.00    -0.460 C  
HETATM   13  C   UNL     1     -10.399  11.264  64.062  1.00  0.00    -0.430 C  
BRANCH  13  14
HETATM   14  C   UNL     1      -9.654  10.665  65.208  1.00  0.00    -0.293 C  
BRANCH  14  15
HETATM   15  C   UNL     1      -8.761   9.526  64.800  1.00  0.00    -0.225 C  
HETATM   16  C   UNL     1      -8.633   8.397  65.518  1.00  0.00    -0.201 C  
BRANCH  16  17
HETATM   17  C   UNL     1      -9.308   8.157  66.835  1.00  0.00    -0.219 C  
BRANCH  17  18
HETATM   18  C   UNL     1     -10.506   7.254  66.731  1.00  0.00    -0.311 C  
HETATM   19  C   UNL     1     -11.068   6.665  67.802  1.00  0.00    -0.332 C  
BRANCH  19  20
HETATM   20  C   UNL     1     -10.538   6.883  69.194  1.00  0.00    -0.245 C  
BRANCH  20  21
HETATM   21  C   UNL     1     -10.907   5.801  70.201  1.00  0.00    -0.383 C  
HETATM   22  C   UNL     1     -11.637   6.439  71.363  1.00  0.00    -0.311 C  
HETATM   23  O   UNL     1     -11.528   5.727  72.511  1.00  0.00    -0.293 OA 
HETATM   24  O   UNL     1     -12.287   7.467  71.303  1.00  0.00    -0.319 OA 
ENDBRANCH  20  21
ENDBRANCH  19  20
ENDBRANCH  17  18
ENDBRANCH  16  17
ENDBRANCH  14  15
ENDBRANCH  13  14
ENDBRANCH  11  12
ENDBRANCH  10  11
ENDBRANCH   8   9
ENDBRANCH   7   8
ENDBRANCH   5   6
ENDBRANCH   4   5
ENDBRANCH   2   3
TORSDOF 13
ENDMDL
MODEL      331
REMARK 921   NORMALIZED FREE ENERGY PREDICTED BY IDOCK:   -3.26 KCAL/MOL
REMARK 922        TOTAL FREE ENERGY PREDICTED BY IDOCK:   -8.52 KCAL/MOL
REMARK 923 INTER-LIGAND FREE ENERGY PREDICTED BY IDOCK:   -6.57 KCAL/MOL
REMARK 924 INTRA-LIGAND FREE ENERGY PREDICTED BY IDOCK:   -1.94 KCAL/MOL
REMARK 927      BINDING AFFINITY PREDICTED BY RF-SCORE:    0.00 PKD
ROOT
HETATM    1  C   UNL     1      -6.439   6.303  70.252  1.00  0.00    -0.040 C  
HETATM    2  C   UNL     1      -7.933   6.554  70.125  1.00  0.00    -0.112 C  
ENDROOT
BRANCH   2   3
HETATM    3  C   UNL     1      -8.748   5.314  70.358  1.00  0.00    -0.138 C  
HETATM    4  C   UNL     1      -9.273   4.536  69.395  1.00  0.00    -0.192 C  
BRANCH   4   5
HETATM    5  C   UNL     1      -9.219   4.817  67.920  1.00  0.00    -0.146 C  
BRANCH   5   6
HETATM    6  C   UNL     1     -10.558   5.235  67.379  1.00  0.00    -0.168 C  
HETATM    7  C   UNL     1     -10.956   6.495  67.129  1.00  0.00    -0.480 C  
BRANCH   7   8
HETATM    8  C   UNL     1     -10.123   7.717  67.385  1.00  0.00    -0.287 C  
BRANCH   8   9
HETATM    9  C   UNL     1      -8.995   7.860  66.406  1.00  0.00    -0.200 C  
HETATM   10  C   UNL     1      -8.844   8.836  65.495  1.00  0.00    -0.229 C  
BRANCH  10  11
HETATM   11  C   UNL     1      -9.725  10.040  65.302  1.00  0.00    -0.373 C  
BRANCH  11  12
HETATM   12  C   UNL     1      -9.329  11.209  66.161  1.00  0.00    -0.227 C  
HETATM   13  C   UNL     1     -10.146  12.147  66.666  1.00  0.00    -0.218 C  
BRANCH  13  14
HETATM   14  C   UNL     1     -11.612  12.248  66.405  1.00  0.00    -0.445 C  
BRANCH  14  15
HETATM   15  C   UNL     1     -11.950  12.270  64.940  1.00  0.00    -0.420 C  
HETATM   16  C   UNL     1     -12.012  13.400  64.215  1.00  0.00    -0.481 C  
BRANCH  16  17
HETATM   17  C   UNL     1     -11.815  14.775  64.782  1.00  0.00    -0.425 C  
BRANCH  17  18
HETATM   18  C   UNL     1     -10.372  15.193  64.835  1.00  0.00    -0.294 C  
HETATM   19  C   UNL     1      -9.839  15.834  65.891  1.00  0.00    -0.381 C  
BRANCH  19  20
HETATM   20  C   UNL     1     -10.658  16.167  67.110  1.00  0.00    -0.294 C  
BRANCH  20  21
HETATM   21  C   UNL     1     -10.075  15.677  68.430  1.00  0.00    -0.214 C  
HETATM   22  C   UNL     1     -11.203  15.190  69.313  1.00  0.00    -0.278 C  
HETATM   23  O   UNL     1     -10.905  15.252  70.634  1.00  0.00    -0.300 OA 
HETATM   24  O   UNL     1     -12.268  14.754  68.915  1.00  0.00    -0.230 OA 
ENDBRANCH  20  21
ENDBRANCH  19  20
ENDBRANCH  17  18
ENDBRANCH  16  17
ENDBRANCH  14  15
ENDBRANCH  13  14
ENDBRANCH  11  12
ENDBRANCH  10  11
ENDBRANCH   8   9
ENDBRANCH   7   8
ENDBRANCH   5   6
ENDBRANCH   4   5
ENDBRANCH   2   3
TORSDOF 13
ENDMDL
MODEL      332
REMARK 921   NORMALIZED FREE ENERGY PREDICTED BY IDOCK:   -3.26 KCAL/MOL
REMARK 922        TOTAL FREE ENERGY PREDICTED BY IDOCK:   -8.51 KCAL/MOL
REMARK 923 INTER-LIGAND FREE ENERGY PREDICTED BY IDOCK:   -6.99 KCAL/MOL
REMARK 924 INTRA-LIGAND FREE ENERGY PREDICTED BY IDOCK:   -1.52 KCAL/MOL
REMARK 927      BINDING AFFINITY PREDICTED BY RF-SCORE:    0.00 PKD
ROOT
HETATM    1  C   UNL     1      -8.479   7.664  72.743  1.00  0.00    -0.172 C  
HETATM    2  C   UNL     1      -9.911   8.053  73.072  1.00  0.00    -0.352 C  
ENDROOT
BRANCH   2   3
HETATM    3  C   UNL     1     -10.850   6.881  73.029  1.00  0.00    -0.328 C  
HETATM    4  C   UNL     1     -11.821   6.695  72.119  1.00  0.00    -0.337 C  
BRANCH   4   5
HETATM    5  C   UNL     1     -12.201   7.667  71.038  1.00  0.00    -0.261 C  
BRANCH   5   6
HETATM    6  C   UNL     1     -13.260   8.632  71.498  1.00  0.00    -0.335 C  
HETATM    7  C   UNL     1     -13.178   9.974  71.470  1.00  0.00    -0.497 C  
BRANCH   7   8
HETATM    8  C   UNL     1     -11.981  10.744  70.995  1.00  0.00    -0.409 C  
BRANCH   8   9
HETATM    9  C   UNL     1     -11.753  10.601  69.519  1.00  0.00    -0.356 C  
HETATM   10  C   UNL     1     -11.540  11.595  68.641  1.00  0.00    -0.373 C  
BRANCH  10  11
HETATM   11  C   UNL     1     -11.407  13.062  68.948  1.00  0.00    -0.333 C  
BRANCH  11  12
HETATM   12  C   UNL     1     -11.050  13.891  67.745  1.00  0.00    -0.281 C  
HETATM   13  C   UNL     1     -10.048  14.779  67.651  1.00  0.00    -0.227 C  
BRANCH  13  14
HETATM   14  C   UNL     1      -9.134  15.172  68.763  1.00  0.00    -0.200 C  
BRANCH  14  15
HETATM   15  C   UNL     1      -7.830  14.424  68.748  1.00  0.00    -0.138 C  
HETATM   16  C   UNL     1      -6.649  15.005  68.478  1.00  0.00    -0.096 C  
BRANCH  16  17
HETATM   17  C   UNL     1      -6.490  16.447  68.099  1.00  0.00    -0.135 C  
BRANCH  17  18
HETATM   18  C   UNL     1      -6.539  16.680  66.614  1.00  0.00    -0.158 C  
HETATM   19  C   UNL     1      -7.102  17.772  66.067  1.00  0.00    -0.335 C  
BRANCH  19  20
HETATM   20  C   UNL     1      -7.715  18.855  66.914  1.00  0.00    -0.250 C  
BRANCH  20  21
HETATM   21  C   UNL     1      -9.064  18.504  67.529  1.00  0.00    -0.289 C  
HETATM   22  C   UNL     1     -10.155  19.217  66.760  1.00  0.00    -0.381 C  
HETATM   23  O   UNL     1     -11.271  19.428  67.499  1.00  0.00    -0.325 OA 
HETATM   24  O   UNL     1     -10.084  19.555  65.592  1.00  0.00    -0.422 OA 
ENDBRANCH  20  21
ENDBRANCH  19  20
ENDBRANCH  17  18
ENDBRANCH  16  17
ENDBRANCH  14  15
ENDBRANCH  13  14
ENDBRANCH  11  12
ENDBRANCH  10  11
ENDBRANCH   8   9
ENDBRANCH   7   8
ENDBRANCH   5   6
ENDBRANCH   4   5
ENDBRANCH   2   3
TORSDOF 13
ENDMDL
MODEL      333
REMARK 921   NORMALIZED FREE ENERGY PREDICTED BY IDOCK:   -3.25 KCAL/MOL
REMARK 922        TOTAL FREE ENERGY PREDICTED BY IDOCK:   -8.49 KCAL/MOL
REMARK 923 INTER-LIGAND FREE ENERGY PREDICTED BY IDOCK:   -6.43 KCAL/MOL
REMARK 924 INTRA-LIGAND FREE ENERGY PREDICTED BY IDOCK:   -2.07 KCAL/MOL
REMARK 927      BINDING AFFINITY PREDICTED BY RF-SCORE:    0.00 PKD
ROOT
HETATM    1  C   UNL     1      -8.738  14.443  68.128  1.00  0.00    -0.175 C  
HETATM    2  C   UNL     1      -9.866  14.136  67.157  1.00  0.00    -0.253 C  
ENDROOT
BRANCH   2   3
HETATM    3  C   UNL     1     -11.220  14.211  67.804  1.00  0.00    -0.307 C  
HETATM    4  C   UNL     1     -12.015  13.160  68.069  1.00  0.00    -0.345 C  
BRANCH   4   5
HETATM    5  C   UNL     1     -11.736  11.735  67.682  1.00  0.00    -0.320 C  
BRANCH   5   6
HETATM    6  C   UNL     1     -10.846  11.047  68.681  1.00  0.00    -0.256 C  
HETATM    7  C   UNL     1     -11.242  10.458  69.824  1.00  0.00    -0.353 C  
BRANCH   7   8
HETATM    8  C   UNL     1     -12.659  10.420  70.315  1.00  0.00    -0.262 C  
BRANCH   8   9
HETATM    9  C   UNL     1     -12.757  10.022  71.759  1.00  0.00    -0.526 C  
HETATM   10  C   UNL     1     -12.875   8.773  72.239  1.00  0.00    -0.465 C  
BRANCH  10  11
HETATM   11  C   UNL     1     -12.859   7.492  71.449  1.00  0.00    -0.381 C  
BRANCH  11  12
HETATM   12  C   UNL     1     -11.947   6.447  72.030  1.00  0.00    -0.375 C  
HETATM   13  C   UNL     1     -10.636   6.299  71.783  1.00  0.00    -0.266 C  
BRANCH  13  14
HETATM   14  C   UNL     1      -9.842   7.110  70.814  1.00  0.00    -0.180 C  
BRANCH  14  15
HETATM   15  C   UNL     1      -8.471   6.549  70.558  1.00  0.00    -0.138 C  
HETATM   16  C   UNL     1      -7.769   6.796  69.439  1.00  0.00    -0.105 C  
BRANCH  16  17
HETATM   17  C   UNL     1      -8.285   7.605  68.286  1.00  0.00    -0.125 C  
BRANCH  17  18
HETATM   18  C   UNL     1      -9.122   6.805  67.327  1.00  0.00    -0.121 C  
HETATM   19  C   UNL     1      -9.391   7.219  66.076  1.00  0.00    -0.030 C  
BRANCH  19  20
HETATM   20  C   UNL     1      -8.856   8.520  65.541  1.00  0.00    -0.196 C  
BRANCH  20  21
HETATM   21  C   UNL     1      -9.803   9.707  65.667  1.00  0.00    -0.369 C  
HETATM   22  C   UNL     1      -9.755  10.512  64.387  1.00  0.00    -0.328 C  
HETATM   23  O   UNL     1     -10.094  11.812  64.566  1.00  0.00    -0.257 OA 
HETATM   24  O   UNL     1      -9.473  10.067  63.288  1.00  0.00    -0.295 OA 
ENDBRANCH  20  21
ENDBRANCH  19  20
ENDBRANCH  17  18
ENDBRANCH  16  17
ENDBRANCH  14  15
ENDBRANCH  13  14
ENDBRANCH  11  12
ENDBRANCH  10  11
ENDBRANCH   8   9
ENDBRANCH   7   8
ENDBRANCH   5   6
ENDBRANCH   4   5
ENDBRANCH   2   3
TORSDOF 13
ENDMDL
MODEL      334
REMARK 921   NORMALIZED FREE ENERGY PREDICTED BY IDOCK:   -3.25 KCAL/MOL
REMARK 922        TOTAL FREE ENERGY PREDICTED BY IDOCK:   -8.49 KCAL/MOL
REMARK 923 INTER-LIGAND FREE ENERGY PREDICTED BY IDOCK:   -5.63 KCAL/MOL
REMARK 924 INTRA-LIGAND FREE ENERGY PREDICTED BY IDOCK:   -2.86 KCAL/MOL
REMARK 927      BINDING AFFINITY PREDICTED BY RF-SCORE:    0.00 PKD
ROOT
HETATM    1  C   UNL     1      -9.201   5.786  71.708  1.00  0.00    -0.157 C  
HETATM    2  C   UNL     1     -10.267   5.478  70.669  1.00  0.00    -0.308 C  
ENDROOT
BRANCH   2   3
HETATM    3  C   UNL     1      -9.800   4.490  69.638  1.00  0.00    -0.288 C  
HETATM    4  C   UNL     1      -9.174   4.801  68.490  1.00  0.00    -0.165 C  
BRANCH   4   5
HETATM    5  C   UNL     1      -8.914   6.194  67.988  1.00  0.00    -0.113 C  
BRANCH   5   6
HETATM    6  C   UNL     1     -10.081   6.738  67.210  1.00  0.00    -0.237 C  
HETATM    7  C   UNL     1     -10.497   8.016  67.193  1.00  0.00    -0.408 C  
BRANCH   7   8
HETATM    8  C   UNL     1      -9.873   9.125  67.988  1.00  0.00    -0.197 C  
BRANCH   8   9
HETATM    9  C   UNL     1     -10.778   9.637  69.070  1.00  0.00    -0.232 C  
HETATM   10  C   UNL     1     -11.139  10.915  69.275  1.00  0.00    -0.305 C  
BRANCH  10  11
HETATM   11  C   UNL     1     -10.780  12.105  68.427  1.00  0.00    -0.252 C  
BRANCH  11  12
HETATM   12  C   UNL     1     -11.831  12.444  67.405  1.00  0.00    -0.360 C  
HETATM   13  C   UNL     1     -11.627  12.736  66.111  1.00  0.00    -0.431 C  
BRANCH  13  14
HETATM   14  C   UNL     1     -10.294  12.855  65.451  1.00  0.00    -0.310 C  
BRANCH  14  15
HETATM   15  C   UNL     1     -10.330  12.520  63.986  1.00  0.00    -0.429 C  
HETATM   16  C   UNL     1     -10.091  11.288  63.505  1.00  0.00    -0.443 C  
BRANCH  16  17
HETATM   17  C   UNL     1      -9.701  10.115  64.354  1.00  0.00    -0.345 C  
BRANCH  17  18
HETATM   18  C   UNL     1      -8.239  10.097  64.704  1.00  0.00    -0.165 C  
HETATM   19  C   UNL     1      -7.490   8.981  64.639  1.00  0.00    -0.103 C  
BRANCH  19  20
HETATM   20  C   UNL     1      -8.068   7.665  64.194  1.00  0.00    -0.058 C  
BRANCH  20  21
HETATM   21  C   UNL     1      -7.127   6.473  64.319  1.00  0.00    -0.060 C  
HETATM   22  C   UNL     1      -7.940   5.235  64.628  1.00  0.00    -0.109 C  
HETATM   23  O   UNL     1      -7.228   4.283  65.278  1.00  0.00    -0.068 OA 
HETATM   24  O   UNL     1      -9.105   5.066  64.316  1.00  0.00    -0.086 OA 
ENDBRANCH  20  21
ENDBRANCH  19  20
ENDBRANCH  17  18
ENDBRANCH  16  17
ENDBRANCH  14  15
ENDBRANCH  13  14
ENDBRANCH  11  12
ENDBRANCH  10  11
ENDBRANCH   8   9
ENDBRANCH   7   8
ENDBRANCH   5   6
ENDBRANCH   4   5
ENDBRANCH   2   3
TORSDOF 13
ENDMDL
MODEL      335
REMARK 921   NORMALIZED FREE ENERGY PREDICTED BY IDOCK:   -3.25 KCAL/MOL
REMARK 922        TOTAL FREE ENERGY PREDICTED BY IDOCK:   -8.49 KCAL/MOL
REMARK 923 INTER-LIGAND FREE ENERGY PREDICTED BY IDOCK:   -7.08 KCAL/MOL
REMARK 924 INTRA-LIGAND FREE ENERGY PREDICTED BY IDOCK:   -1.40 KCAL/MOL
REMARK 927      BINDING AFFINITY PREDICTED BY RF-SCORE:    0.00 PKD
ROOT
HETATM    1  C   UNL     1      -6.519  19.938  70.011  1.00  0.00    -0.350 C  
HETATM    2  C   UNL     1      -5.680  19.955  68.744  1.00  0.00    -0.260 C  
ENDROOT
BRANCH   2   3
HETATM    3  C   UNL     1      -6.167  20.966  67.744  1.00  0.00    -0.391 C  
HETATM    4  C   UNL     1      -7.252  20.828  66.962  1.00  0.00    -0.369 C  
BRANCH   4   5
HETATM    5  C   UNL     1      -8.117  19.602  66.880  1.00  0.00    -0.315 C  
BRANCH   5   6
HETATM    6  C   UNL     1      -9.577  19.950  66.791  1.00  0.00    -0.523 C  
HETATM    7  C   UNL     1     -10.604  19.179  67.191  1.00  0.00    -0.564 C  
BRANCH   7   8
HETATM    8  C   UNL     1     -10.459  17.804  67.774  1.00  0.00    -0.402 C  
BRANCH   8   9
HETATM    9  C   UNL     1     -10.494  16.729  66.728  1.00  0.00    -0.258 C  
HETATM   10  C   UNL     1      -9.545  15.806  66.495  1.00  0.00    -0.288 C  
BRANCH  10  11
HETATM   11  C   UNL     1      -8.275  15.596  67.273  1.00  0.00    -0.218 C  
BRANCH  11  12
HETATM   12  C   UNL     1      -8.458  14.722  68.483  1.00  0.00    -0.159 C  
HETATM   13  C   UNL     1      -8.143  13.421  68.588  1.00  0.00    -0.040 C  
BRANCH  13  14
HETATM   14  C   UNL     1      -7.613  12.568  67.484  1.00  0.00    -0.156 C  
BRANCH  14  15
HETATM   15  C   UNL     1      -7.387  11.140  67.899  1.00  0.00    -0.092 C  
HETATM   16  C   UNL     1      -8.377  10.326  68.304  1.00  0.00    -0.116 C  
BRANCH  16  17
HETATM   17  C   UNL     1      -9.807  10.750  68.452  1.00  0.00    -0.177 C  
BRANCH  17  18
HETATM   18  C   UNL     1     -10.453  10.228  69.706  1.00  0.00    -0.300 C  
HETATM   19  C   UNL     1     -11.538  10.802  70.258  1.00  0.00    -0.427 C  
BRANCH  19  20
HETATM   20  C   UNL     1     -12.194  12.009  69.643  1.00  0.00    -0.202 C  
BRANCH  20  21
HETATM   21  C   UNL     1     -11.823  13.340  70.285  1.00  0.00    -0.307 C  
HETATM   22  C   UNL     1     -12.766  13.609  71.438  1.00  0.00    -0.352 C  
HETATM   23  O   UNL     1     -12.898  14.929  71.716  1.00  0.00    -0.300 OA 
HETATM   24  O   UNL     1     -13.341  12.754  72.088  1.00  0.00    -0.517 OA 
ENDBRANCH  20  21
ENDBRANCH  19  20
ENDBRANCH  17  18
ENDBRANCH  16  17
ENDBRANCH  14  15
ENDBRANCH  13  14
ENDBRANCH  11  12
ENDBRANCH  10  11
ENDBRANCH   8   9
ENDBRANCH   7   8
ENDBRANCH   5   6
ENDBRANCH   4   5
ENDBRANCH   2   3
TORSDOF 13
ENDMDL
MODEL      336
REMARK 921   NORMALIZED FREE ENERGY PREDICTED BY IDOCK:   -3.24 KCAL/MOL
REMARK 922        TOTAL FREE ENERGY PREDICTED BY IDOCK:   -8.48 KCAL/MOL
REMARK 923 INTER-LIGAND FREE ENERGY PREDICTED BY IDOCK:   -6.08 KCAL/MOL
REMARK 924 INTRA-LIGAND FREE ENERGY PREDICTED BY IDOCK:   -2.40 KCAL/MOL
REMARK 927      BINDING AFFINITY PREDICTED BY RF-SCORE:    0.00 PKD
ROOT
HETATM    1  C   UNL     1      -8.929  10.038  64.832  1.00  0.00    -0.241 C  
HETATM    2  C   UNL     1      -9.972  10.236  65.919  1.00  0.00    -0.321 C  
ENDROOT
BRANCH   2   3
HETATM    3  C   UNL     1     -10.356   8.948  66.590  1.00  0.00    -0.294 C  
HETATM    4  C   UNL     1     -10.759   8.825  67.867  1.00  0.00    -0.171 C  
BRANCH   4   5
HETATM    5  C   UNL     1     -10.809   9.938  68.876  1.00  0.00    -0.239 C  
BRANCH   5   6
HETATM    6  C   UNL     1     -10.313   9.494  70.226  1.00  0.00    -0.321 C  
HETATM    7  C   UNL     1      -9.032   9.272  70.568  1.00  0.00    -0.296 C  
BRANCH   7   8
HETATM    8  C   UNL     1      -7.866   9.403  69.632  1.00  0.00    -0.105 C  
BRANCH   8   9
HETATM    9  C   UNL     1      -6.820  10.348  70.144  1.00  0.00    -0.155 C  
HETATM   10  C   UNL     1      -6.080  11.198  69.412  1.00  0.00    -0.071 C  
BRANCH  10  11
HETATM   11  C   UNL     1      -6.183  11.445  67.931  1.00  0.00    -0.051 C  
BRANCH  11  12
HETATM   12  C   UNL     1      -6.262  12.905  67.578  1.00  0.00    -0.154 C  
HETATM   13  C   UNL     1      -7.378  13.632  67.415  1.00  0.00    -0.127 C  
BRANCH  13  14
HETATM   14  C   UNL     1      -8.772  13.103  67.480  1.00  0.00    -0.201 C  
BRANCH  14  15
HETATM   15  C   UNL     1      -9.482  13.466  68.755  1.00  0.00     0.061 C  
HETATM   16  C   UNL     1     -10.556  14.272  68.797  1.00  0.00    -0.255 C  
BRANCH  16  17
HETATM   17  C   UNL     1     -11.141  14.956  67.597  1.00  0.00    -0.315 C  
BRANCH  17  18
HETATM   18  C   UNL     1     -10.124  15.720  66.796  1.00  0.00    -0.276 C  
HETATM   19  C   UNL     1     -10.135  15.755  65.451  1.00  0.00    -0.337 C  
BRANCH  19  20
HETATM   20  C   UNL     1     -11.186  15.035  64.649  1.00  0.00    -0.342 C  
BRANCH  20  21
HETATM   21  C   UNL     1     -10.866  13.581  64.326  1.00  0.00    -0.340 C  
HETATM   22  C   UNL     1     -12.015  12.988  63.541  1.00  0.00    -0.545 C  
HETATM   23  O   UNL     1     -12.106  11.642  63.672  1.00  0.00    -0.409 OA 
HETATM   24  O   UNL     1     -12.781  13.618  62.834  1.00  0.00    -0.577 OA 
ENDBRANCH  20  21
ENDBRANCH  19  20
ENDBRANCH  17  18
ENDBRANCH  16  17
ENDBRANCH  14  15
ENDBRANCH  13  14
ENDBRANCH  11  12
ENDBRANCH  10  11
ENDBRANCH   8   9
ENDBRANCH   7   8
ENDBRANCH   5   6
ENDBRANCH   4   5
ENDBRANCH   2   3
TORSDOF 13
ENDMDL
MODEL      337
REMARK 921   NORMALIZED FREE ENERGY PREDICTED BY IDOCK:   -3.24 KCAL/MOL
REMARK 922        TOTAL FREE ENERGY PREDICTED BY IDOCK:   -8.48 KCAL/MOL
REMARK 923 INTER-LIGAND FREE ENERGY PREDICTED BY IDOCK:   -6.47 KCAL/MOL
REMARK 924 INTRA-LIGAND FREE ENERGY PREDICTED BY IDOCK:   -2.00 KCAL/MOL
REMARK 927      BINDING AFFINITY PREDICTED BY RF-SCORE:    0.00 PKD
ROOT
HETATM    1  C   UNL     1     -11.147   6.465  69.456  1.00  0.00    -0.460 C  
HETATM    2  C   UNL     1     -10.825   6.144  68.006  1.00  0.00    -0.398 C  
ENDROOT
BRANCH   2   3
HETATM    3  C   UNL     1     -10.642   7.378  67.169  1.00  0.00    -0.413 C  
HETATM    4  C   UNL     1      -9.531   7.695  66.483  1.00  0.00    -0.250 C  
BRANCH   4   5
HETATM    5  C   UNL     1      -8.243   6.921  66.503  1.00  0.00    -0.117 C  
BRANCH   5   6
HETATM    6  C   UNL     1      -8.050   6.118  65.246  1.00  0.00    -0.132 C  
HETATM    7  C   UNL     1      -7.224   6.421  64.229  1.00  0.00    -0.065 C  
BRANCH   7   8
HETATM    8  C   UNL     1      -6.367   7.650  64.166  1.00  0.00    -0.049 C  
BRANCH   8   9
HETATM    9  C   UNL     1      -6.427   8.326  62.827  1.00  0.00    -0.087 C  
HETATM   10  C   UNL     1      -7.448   9.050  62.340  1.00  0.00    -0.101 C  
BRANCH  10  11
HETATM   11  C   UNL     1      -8.725   9.409  63.051  1.00  0.00    -0.225 C  
BRANCH  11  12
HETATM   12  C   UNL     1      -8.513  10.326  64.225  1.00  0.00    -0.181 C  
HETATM   13  C   UNL     1      -9.429  11.123  64.796  1.00  0.00    -0.250 C  
BRANCH  13  14
HETATM   14  C   UNL     1     -10.832  11.306  64.321  1.00  0.00    -0.398 C  
BRANCH  14  15
HETATM   15  C   UNL     1     -11.100  12.688  63.792  1.00  0.00    -0.504 C  
HETATM   16  C   UNL     1     -11.585  13.686  64.550  1.00  0.00    -0.415 C  
BRANCH  16  17
HETATM   17  C   UNL     1     -11.977  13.535  65.989  1.00  0.00    -0.449 C  
BRANCH  17  18
HETATM   18  C   UNL     1     -10.829  13.734  66.940  1.00  0.00    -0.286 C  
HETATM   19  C   UNL     1     -10.970  13.661  68.276  1.00  0.00    -0.275 C  
BRANCH  19  20
HETATM   20  C   UNL     1     -12.298  13.358  68.916  1.00  0.00     0.013 C  
BRANCH  20  21
HETATM   21  C   UNL     1     -12.246  13.097  70.416  1.00  0.00    -0.389 C  
HETATM   22  C   UNL     1     -12.596  11.648  70.676  1.00  0.00    -0.230 C  
HETATM   23  O   UNL     1     -13.104  11.440  71.914  1.00  0.00    -0.492 OA 
HETATM   24  O   UNL     1     -12.426  10.734  69.889  1.00  0.00    -0.322 OA 
ENDBRANCH  20  21
ENDBRANCH  19  20
ENDBRANCH  17  18
ENDBRANCH  16  17
ENDBRANCH  14  15
ENDBRANCH  13  14
ENDBRANCH  11  12
ENDBRANCH  10  11
ENDBRANCH   8   9
ENDBRANCH   7   8
ENDBRANCH   5   6
ENDBRANCH   4   5
ENDBRANCH   2   3
TORSDOF 13
ENDMDL
MODEL      338
REMARK 921   NORMALIZED FREE ENERGY PREDICTED BY IDOCK:   -3.24 KCAL/MOL
REMARK 922        TOTAL FREE ENERGY PREDICTED BY IDOCK:   -8.48 KCAL/MOL
REMARK 923 INTER-LIGAND FREE ENERGY PREDICTED BY IDOCK:   -6.22 KCAL/MOL
REMARK 924 INTRA-LIGAND FREE ENERGY PREDICTED BY IDOCK:   -2.26 KCAL/MOL
REMARK 927      BINDING AFFINITY PREDICTED BY RF-SCORE:    0.00 PKD
ROOT
HETATM    1  C   UNL     1      -8.432   4.840  70.898  1.00  0.00    -0.114 C  
HETATM    2  C   UNL     1      -9.687   4.324  70.215  1.00  0.00    -0.280 C  
ENDROOT
BRANCH   2   3
HETATM    3  C   UNL     1      -9.382   3.471  69.016  1.00  0.00    -0.240 C  
HETATM    4  C   UNL     1      -9.147   3.928  67.774  1.00  0.00    -0.183 C  
BRANCH   4   5
HETATM    5  C   UNL     1      -9.239   5.365  67.342  1.00  0.00    -0.112 C  
BRANCH   5   6
HETATM    6  C   UNL     1     -10.661   5.786  67.090  1.00  0.00    -0.365 C  
HETATM    7  C   UNL     1     -11.251   6.905  67.544  1.00  0.00    -0.188 C  
BRANCH   7   8
HETATM    8  C   UNL     1     -10.583   7.922  68.422  1.00  0.00    -0.154 C  
BRANCH   8   9
HETATM    9  C   UNL     1     -10.779   7.639  69.883  1.00  0.00    -0.253 C  
HETATM   10  C   UNL     1     -10.921   8.548  70.863  1.00  0.00    -0.292 C  
BRANCH  10  11
HETATM   11  C   UNL     1     -10.990  10.043  70.710  1.00  0.00    -0.375 C  
BRANCH  11  12
HETATM   12  C   UNL     1     -12.346  10.610  71.031  1.00  0.00    -0.507 C  
HETATM   13  C   UNL     1     -12.727  11.892  70.917  1.00  0.00    -0.301 C  
BRANCH  13  14
HETATM   14  C   UNL     1     -11.842  13.025  70.516  1.00  0.00    -0.168 C  
BRANCH  14  15
HETATM   15  C   UNL     1     -12.596  14.298  70.253  1.00  0.00    -0.378 C  
HETATM   16  C   UNL     1     -12.479  15.002  69.114  1.00  0.00     0.023 C  
BRANCH  16  17
HETATM   17  C   UNL     1     -11.545  14.644  67.997  1.00  0.00    -0.366 C  
BRANCH  17  18
HETATM   18  C   UNL     1     -12.253  14.167  66.760  1.00  0.00    -0.429 C  
HETATM   19  C   UNL     1     -12.108  12.921  66.273  1.00  0.00    -0.433 C  
BRANCH  19  20
HETATM   20  C   UNL     1     -11.226  11.906  66.950  1.00  0.00    -0.382 C  
BRANCH  20  21
HETATM   21  C   UNL     1      -9.841  11.745  66.336  1.00  0.00    -0.237 C  
HETATM   22  C   UNL     1      -8.807  11.780  67.440  1.00  0.00    -0.164 C  
HETATM   23  O   UNL     1      -7.588  12.188  67.011  1.00  0.00    -0.148 OA 
HETATM   24  O   UNL     1      -9.006  11.455  68.597  1.00  0.00    -0.172 OA 
ENDBRANCH  20  21
ENDBRANCH  19  20
ENDBRANCH  17  18
ENDBRANCH  16  17
ENDBRANCH  14  15
ENDBRANCH  13  14
ENDBRANCH  11  12
ENDBRANCH  10  11
ENDBRANCH   8   9
ENDBRANCH   7   8
ENDBRANCH   5   6
ENDBRANCH   4   5
ENDBRANCH   2   3
TORSDOF 13
ENDMDL
MODEL      339
REMARK 921   NORMALIZED FREE ENERGY PREDICTED BY IDOCK:   -3.24 KCAL/MOL
REMARK 922        TOTAL FREE ENERGY PREDICTED BY IDOCK:   -8.47 KCAL/MOL
REMARK 923 INTER-LIGAND FREE ENERGY PREDICTED BY IDOCK:   -6.09 KCAL/MOL
REMARK 924 INTRA-LIGAND FREE ENERGY PREDICTED BY IDOCK:   -2.39 KCAL/MOL
REMARK 927      BINDING AFFINITY PREDICTED BY RF-SCORE:    0.00 PKD
ROOT
HETATM    1  C   UNL     1      -7.795  10.757  69.818  1.00  0.00     0.125 C  
HETATM    2  C   UNL     1      -6.367  10.793  69.297  1.00  0.00    -0.061 C  
ENDROOT
BRANCH   2   3
HETATM    3  C   UNL     1      -5.500  11.754  70.060  1.00  0.00    -0.101 C  
HETATM    4  C   UNL     1      -5.627  13.092  70.053  1.00  0.00    -0.123 C  
BRANCH   4   5
HETATM    5  C   UNL     1      -6.597  13.871  69.210  1.00  0.00    -0.113 C  
BRANCH   5   6
HETATM    6  C   UNL     1      -6.765  15.281  69.706  1.00  0.00    -0.176 C  
HETATM    7  C   UNL     1      -6.601  16.403  68.982  1.00  0.00    -0.181 C  
BRANCH   7   8
HETATM    8  C   UNL     1      -6.184  16.432  67.541  1.00  0.00    -0.186 C  
BRANCH   8   9
HETATM    9  C   UNL     1      -6.487  17.745  66.881  1.00  0.00    -0.203 C  
HETATM   10  C   UNL     1      -7.631  18.088  66.267  1.00  0.00    -0.306 C  
BRANCH  10  11
HETATM   11  C   UNL     1      -8.888  17.266  66.167  1.00  0.00    -0.195 C  
BRANCH  11  12
HETATM   12  C   UNL     1     -10.097  17.960  66.732  1.00  0.00    -0.349 C  
HETATM   13  C   UNL     1     -10.629  17.780  67.951  1.00  0.00    -0.389 C  
BRANCH  13  14
HETATM   14  C   UNL     1     -10.158  16.788  68.962  1.00  0.00    -0.283 C  
BRANCH  14  15
HETATM   15  C   UNL     1     -11.280  16.159  69.739  1.00  0.00    -0.343 C  
HETATM   16  C   UNL     1     -11.400  14.832  69.916  1.00  0.00    -0.310 C  
BRANCH  16  17
HETATM   17  C   UNL     1     -10.474  13.817  69.316  1.00  0.00     0.040 C  
BRANCH  17  18
HETATM   18  C   UNL     1     -11.170  12.546  68.910  1.00  0.00    -0.330 C  
HETATM   19  C   UNL     1     -11.741  12.383  67.703  1.00  0.00    -0.412 C  
BRANCH  19  20
HETATM   20  C   UNL     1     -11.710  13.468  66.661  1.00  0.00    -0.425 C  
BRANCH  20  21
HETATM   21  C   UNL     1     -10.849  13.166  65.441  1.00  0.00    -0.299 C  
HETATM   22  C   UNL     1     -11.696  13.303  64.195  1.00  0.00    -0.420 C  
HETATM   23  O   UNL     1     -11.235  12.562  63.158  1.00  0.00    -0.388 OA 
HETATM   24  O   UNL     1     -12.678  14.016  64.089  1.00  0.00    -0.662 OA 
ENDBRANCH  20  21
ENDBRANCH  19  20
ENDBRANCH  17  18
ENDBRANCH  16  17
ENDBRANCH  14  15
ENDBRANCH  13  14
ENDBRANCH  11  12
ENDBRANCH  10  11
ENDBRANCH   8   9
ENDBRANCH   7   8
ENDBRANCH   5   6
ENDBRANCH   4   5
ENDBRANCH   2   3
TORSDOF 13
ENDMDL
MODEL      340
REMARK 921   NORMALIZED FREE ENERGY PREDICTED BY IDOCK:   -3.23 KCAL/MOL
REMARK 922        TOTAL FREE ENERGY PREDICTED BY IDOCK:   -8.46 KCAL/MOL
REMARK 923 INTER-LIGAND FREE ENERGY PREDICTED BY IDOCK:   -6.66 KCAL/MOL
REMARK 924 INTRA-LIGAND FREE ENERGY PREDICTED BY IDOCK:   -1.80 KCAL/MOL
REMARK 927      BINDING AFFINITY PREDICTED BY RF-SCORE:    0.00 PKD
ROOT
HETATM    1  C   UNL     1      -6.626  17.580  66.522  1.00  0.00    -0.271 C  
HETATM    2  C   UNL     1      -6.753  18.666  67.578  1.00  0.00    -0.201 C  
ENDROOT
BRANCH   2   3
HETATM    3  C   UNL     1      -6.859  20.040  66.980  1.00  0.00    -0.252 C  
HETATM    4  C   UNL     1      -7.976  20.787  66.942  1.00  0.00    -0.171 C  
BRANCH   4   5
HETATM    5  C   UNL     1      -9.336  20.347  67.405  1.00  0.00    -0.536 C  
BRANCH   5   6
HETATM    6  C   UNL     1      -9.985  19.408  66.425  1.00  0.00    -0.498 C  
HETATM    7  C   UNL     1     -10.513  18.204  66.709  1.00  0.00    -0.363 C  
BRANCH   7   8
HETATM    8  C   UNL     1     -10.511  17.574  68.071  1.00  0.00    -0.387 C  
BRANCH   8   9
HETATM    9  C   UNL     1      -9.677  16.328  68.128  1.00  0.00    -0.227 C  
HETATM   10  C   UNL     1     -10.104  15.068  67.932  1.00  0.00    -0.226 C  
BRANCH  10  11
HETATM   11  C   UNL     1     -11.489  14.632  67.539  1.00  0.00    -0.378 C  
BRANCH  11  12
HETATM   12  C   UNL     1     -11.838  13.253  68.030  1.00  0.00    -0.392 C  
HETATM   13  C   UNL     1     -11.396  12.088  67.531  1.00  0.00    -0.387 C  
BRANCH  13  14
HETATM   14  C   UNL     1     -10.522  11.937  66.331  1.00  0.00    -0.258 C  
BRANCH  14  15
HETATM   15  C   UNL     1     -10.654  10.593  65.671  1.00  0.00    -0.175 C  
HETATM   16  C   UNL     1      -9.866   9.546  65.968  1.00  0.00    -0.353 C  
BRANCH  16  17
HETATM   17  C   UNL     1      -8.726   9.601  66.941  1.00  0.00    -0.139 C  
BRANCH  17  18
HETATM   18  C   UNL     1      -8.337   8.250  67.475  1.00  0.00    -0.130 C  
HETATM   19  C   UNL     1      -8.691   7.824  68.701  1.00  0.00    -0.128 C  
BRANCH  19  20
HETATM   20  C   UNL     1      -9.521   8.674  69.625  1.00  0.00    -0.162 C  
BRANCH  20  21
HETATM   21  C   UNL     1      -9.677   8.126  71.038  1.00  0.00    -0.193 C  
HETATM   22  C   UNL     1     -11.123   8.269  71.464  1.00  0.00    -0.259 C  
HETATM   23  O   UNL     1     -11.273   8.338  72.809  1.00  0.00    -0.371 OA 
HETATM   24  O   UNL     1     -12.077   8.294  70.708  1.00  0.00    -0.206 OA 
ENDBRANCH  20  21
ENDBRANCH  19  20
ENDBRANCH  17  18
ENDBRANCH  16  17
ENDBRANCH  14  15
ENDBRANCH  13  14
ENDBRANCH  11  12
ENDBRANCH  10  11
ENDBRANCH   8   9
ENDBRANCH   7   8
ENDBRANCH   5   6
ENDBRANCH   4   5
ENDBRANCH   2   3
TORSDOF 13
ENDMDL
MODEL      341
REMARK 921   NORMALIZED FREE ENERGY PREDICTED BY IDOCK:   -3.23 KCAL/MOL
REMARK 922        TOTAL FREE ENERGY PREDICTED BY IDOCK:   -8.45 KCAL/MOL
REMARK 923 INTER-LIGAND FREE ENERGY PREDICTED BY IDOCK:   -7.01 KCAL/MOL
REMARK 924 INTRA-LIGAND FREE ENERGY PREDICTED BY IDOCK:   -1.44 KCAL/MOL
REMARK 927      BINDING AFFINITY PREDICTED BY RF-SCORE:    0.00 PKD
ROOT
HETATM    1  C   UNL     1      -7.052   3.629  69.691  1.00  0.00    -0.042 C  
HETATM    2  C   UNL     1      -8.304   3.289  70.482  1.00  0.00    -0.085 C  
ENDROOT
BRANCH   2   3
HETATM    3  C   UNL     1      -9.522   4.006  69.971  1.00  0.00    -0.260 C  
HETATM    4  C   UNL     1     -10.272   4.868  70.679  1.00  0.00    -0.282 C  
BRANCH   4   5
HETATM    5  C   UNL     1     -10.083   5.198  72.133  1.00  0.00    -0.247 C  
BRANCH   5   6
HETATM    6  C   UNL     1      -9.037   6.260  72.337  1.00  0.00    -0.138 C  
HETATM    7  C   UNL     1      -9.264   7.550  72.642  1.00  0.00    -0.201 C  
BRANCH   7   8
HETATM    8  C   UNL     1     -10.626   8.160  72.801  1.00  0.00    -0.386 C  
BRANCH   8   9
HETATM    9  C   UNL     1     -11.392   8.203  71.511  1.00  0.00    -0.308 C  
HETATM   10  C   UNL     1     -10.929   8.613  70.318  1.00  0.00    -0.251 C  
BRANCH  10  11
HETATM   11  C   UNL     1      -9.527   9.049  69.991  1.00  0.00    -0.202 C  
BRANCH  11  12
HETATM   12  C   UNL     1      -8.813   8.104  69.065  1.00  0.00    -0.144 C  
HETATM   13  C   UNL     1      -9.106   7.868  67.776  1.00  0.00    -0.138 C  
BRANCH  13  14
HETATM   14  C   UNL     1     -10.258   8.453  67.031  1.00  0.00    -0.377 C  
BRANCH  14  15
HETATM   15  C   UNL     1      -9.837   9.292  65.856  1.00  0.00    -0.335 C  
HETATM   16  C   UNL     1      -9.577  10.607  65.945  1.00  0.00    -0.253 C  
BRANCH  16  17
HETATM   17  C   UNL     1      -9.732  11.412  67.201  1.00  0.00    -0.200 C  
BRANCH  17  18
HETATM   18  C   UNL     1     -11.161  11.772  67.501  1.00  0.00    -0.354 C  
HETATM   19  C   UNL     1     -11.680  12.982  67.223  1.00  0.00    -0.429 C  
BRANCH  19  20
HETATM   20  C   UNL     1     -10.860  14.064  66.573  1.00  0.00    -0.300 C  
BRANCH  20  21
HETATM   21  C   UNL     1     -10.641  13.893  65.075  1.00  0.00    -0.418 C  
HETATM   22  C   UNL     1     -11.986  13.766  64.393  1.00  0.00    -0.445 C  
HETATM   23  O   UNL     1     -11.923  13.090  63.220  1.00  0.00    -0.562 OA 
HETATM   24  O   UNL     1     -13.031  14.234  64.810  1.00  0.00    -0.653 OA 
ENDBRANCH  20  21
ENDBRANCH  19  20
ENDBRANCH  17  18
ENDBRANCH  16  17
ENDBRANCH  14  15
ENDBRANCH  13  14
ENDBRANCH  11  12
ENDBRANCH  10  11
ENDBRANCH   8   9
ENDBRANCH   7   8
ENDBRANCH   5   6
ENDBRANCH   4   5
ENDBRANCH   2   3
TORSDOF 13
ENDMDL
MODEL      342
REMARK 921   NORMALIZED FREE ENERGY PREDICTED BY IDOCK:   -3.22 KCAL/MOL
REMARK 922        TOTAL FREE ENERGY PREDICTED BY IDOCK:   -8.44 KCAL/MOL
REMARK 923 INTER-LIGAND FREE ENERGY PREDICTED BY IDOCK:   -6.17 KCAL/MOL
REMARK 924 INTRA-LIGAND FREE ENERGY PREDICTED BY IDOCK:   -2.27 KCAL/MOL
REMARK 927      BINDING AFFINITY PREDICTED BY RF-SCORE:    0.00 PKD
ROOT
HETATM    1  C   UNL     1     -10.691   5.358  66.322  1.00  0.00    -0.234 C  
HETATM    2  C   UNL     1     -10.351   6.186  67.550  1.00  0.00    -0.259 C  
ENDROOT
BRANCH   2   3
HETATM    3  C   UNL     1     -10.187   5.344  68.784  1.00  0.00    -0.252 C  
HETATM    4  C   UNL     1     -10.840   5.529  69.944  1.00  0.00    -0.298 C  
BRANCH   4   5
HETATM    5  C   UNL     1     -11.779   6.663  70.246  1.00  0.00    -0.432 C  
BRANCH   5   6
HETATM    6  C   UNL     1     -11.071   7.991  70.257  1.00  0.00    -0.224 C  
HETATM    7  C   UNL     1     -10.688   8.678  71.347  1.00  0.00    -0.338 C  
BRANCH   7   8
HETATM    8  C   UNL     1     -10.937   8.239  72.760  1.00  0.00    -0.309 C  
BRANCH   8   9
HETATM    9  C   UNL     1     -10.207   6.975  73.107  1.00  0.00    -0.288 C  
HETATM   10  C   UNL     1      -8.875   6.817  73.196  1.00  0.00    -0.138 C  
BRANCH  10  11
HETATM   11  C   UNL     1      -7.824   7.882  73.041  1.00  0.00    -0.174 C  
BRANCH  11  12
HETATM   12  C   UNL     1      -6.814   7.568  71.972  1.00  0.00    -0.062 C  
HETATM   13  C   UNL     1      -6.620   8.243  70.828  1.00  0.00    -0.038 C  
BRANCH  13  14
HETATM   14  C   UNL     1      -7.433   9.404  70.361  1.00  0.00    -0.141 C  
BRANCH  14  15
HETATM   15  C   UNL     1      -7.745   9.352  68.891  1.00  0.00    -0.076 C  
HETATM   16  C   UNL     1      -8.681  10.122  68.309  1.00  0.00    -0.120 C  
BRANCH  16  17
HETATM   17  C   UNL     1      -9.566  11.076  69.053  1.00  0.00    -0.136 C  
BRANCH  17  18
HETATM   18  C   UNL     1     -10.691  11.619  68.215  1.00  0.00    -0.246 C  
HETATM   19  C   UNL     1     -11.796  12.169  68.749  1.00  0.00    -0.356 C  
BRANCH  19  20
HETATM   20  C   UNL     1     -11.977  12.294  70.238  1.00  0.00    -0.373 C  
BRANCH  20  21
HETATM   21  C   UNL     1     -12.094  13.722  70.755  1.00  0.00    -0.395 C  
HETATM   22  C   UNL     1     -13.299  13.817  71.667  1.00  0.00    -0.354 C  
HETATM   23  O   UNL     1     -13.811  15.070  71.738  1.00  0.00    -0.389 OA 
HETATM   24  O   UNL     1     -13.769  12.893  72.306  1.00  0.00    -0.541 OA 
ENDBRANCH  20  21
ENDBRANCH  19  20
ENDBRANCH  17  18
ENDBRANCH  16  17
ENDBRANCH  14  15
ENDBRANCH  13  14
ENDBRANCH  11  12
ENDBRANCH  10  11
ENDBRANCH   8   9
ENDBRANCH   7   8
ENDBRANCH   5   6
ENDBRANCH   4   5
ENDBRANCH   2   3
TORSDOF 13
ENDMDL
MODEL      343
REMARK 921   NORMALIZED FREE ENERGY PREDICTED BY IDOCK:   -3.22 KCAL/MOL
REMARK 922        TOTAL FREE ENERGY PREDICTED BY IDOCK:   -8.44 KCAL/MOL
REMARK 923 INTER-LIGAND FREE ENERGY PREDICTED BY IDOCK:   -6.49 KCAL/MOL
REMARK 924 INTRA-LIGAND FREE ENERGY PREDICTED BY IDOCK:   -1.95 KCAL/MOL
REMARK 927      BINDING AFFINITY PREDICTED BY RF-SCORE:    0.00 PKD
ROOT
HETATM    1  C   UNL     1     -11.065  15.705  68.509  1.00  0.00    -0.322 C  
HETATM    2  C   UNL     1     -10.679  14.896  69.735  1.00  0.00    -0.223 C  
ENDROOT
BRANCH   2   3
HETATM    3  C   UNL     1     -11.849  14.618  70.636  1.00  0.00    -0.367 C  
HETATM    4  C   UNL     1     -12.360  13.403  70.896  1.00  0.00    -0.436 C  
BRANCH   4   5
HETATM    5  C   UNL     1     -11.913  12.115  70.263  1.00  0.00    -0.389 C  
BRANCH   5   6
HETATM    6  C   UNL     1     -12.007  12.165  68.763  1.00  0.00    -0.292 C  
HETATM    7  C   UNL     1     -11.438  11.302  67.902  1.00  0.00    -0.360 C  
BRANCH   7   8
HETATM    8  C   UNL     1     -10.573  10.144  68.305  1.00  0.00    -0.262 C  
BRANCH   8   9
HETATM    9  C   UNL     1      -9.179  10.565  68.665  1.00  0.00    -0.172 C  
HETATM   10  C   UNL     1      -8.301   9.874  69.412  1.00  0.00    -0.158 C  
BRANCH  10  11
HETATM   11  C   UNL     1      -8.488   8.498  69.990  1.00  0.00    -0.125 C  
BRANCH  11  12
HETATM   12  C   UNL     1      -8.563   8.491  71.492  1.00  0.00    -0.236 C  
HETATM   13  C   UNL     1      -9.657   8.700  72.242  1.00  0.00    -0.348 C  
BRANCH  13  14
HETATM   14  C   UNL     1     -11.008   9.058  71.719  1.00  0.00    -0.443 C  
BRANCH  14  15
HETATM   15  C   UNL     1     -12.036   7.987  71.958  1.00  0.00    -0.377 C  
HETATM   16  C   UNL     1     -12.115   6.864  71.223  1.00  0.00    -0.419 C  
BRANCH  16  17
HETATM   17  C   UNL     1     -11.238   6.569  70.043  1.00  0.00    -0.453 C  
BRANCH  17  18
HETATM   18  C   UNL     1     -10.540   5.240  70.141  1.00  0.00    -0.297 C  
HETATM   19  C   UNL     1      -9.492   4.910  69.365  1.00  0.00    -0.218 C  
BRANCH  19  20
HETATM   20  C   UNL     1      -8.932   5.864  68.345  1.00  0.00    -0.112 C  
BRANCH  20  21
HETATM   21  C   UNL     1      -9.499   5.709  66.939  1.00  0.00    -0.142 C  
HETATM   22  C   UNL     1      -8.407   5.203  66.022  1.00  0.00    -0.116 C  
HETATM   23  O   UNL     1      -8.608   5.538  64.724  1.00  0.00    -0.146 OA 
HETATM   24  O   UNL     1      -7.448   4.539  66.372  1.00  0.00    -0.080 OA 
ENDBRANCH  20  21
ENDBRANCH  19  20
ENDBRANCH  17  18
ENDBRANCH  16  17
ENDBRANCH  14  15
ENDBRANCH  13  14
ENDBRANCH  11  12
ENDBRANCH  10  11
ENDBRANCH   8   9
ENDBRANCH   7   8
ENDBRANCH   5   6
ENDBRANCH   4   5
ENDBRANCH   2   3
TORSDOF 13
ENDMDL
MODEL      344
REMARK 921   NORMALIZED FREE ENERGY PREDICTED BY IDOCK:   -3.21 KCAL/MOL
REMARK 922        TOTAL FREE ENERGY PREDICTED BY IDOCK:   -8.43 KCAL/MOL
REMARK 923 INTER-LIGAND FREE ENERGY PREDICTED BY IDOCK:   -6.67 KCAL/MOL
REMARK 924 INTRA-LIGAND FREE ENERGY PREDICTED BY IDOCK:   -1.77 KCAL/MOL
REMARK 927      BINDING AFFINITY PREDICTED BY RF-SCORE:    0.00 PKD
ROOT
HETATM    1  C   UNL     1      -8.030   7.303  62.905  1.00  0.00    -0.106 C  
HETATM    2  C   UNL     1      -7.495   7.870  64.210  1.00  0.00    -0.103 C  
ENDROOT
BRANCH   2   3
HETATM    3  C   UNL     1      -6.921   9.249  64.047  1.00  0.00    -0.091 C  
HETATM    4  C   UNL     1      -7.563  10.397  64.323  1.00  0.00    -0.021 C  
BRANCH   4   5
HETATM    5  C   UNL     1      -8.998  10.511  64.754  1.00  0.00    -0.227 C  
BRANCH   5   6
HETATM    6  C   UNL     1      -9.913  10.790  63.592  1.00  0.00    -0.405 C  
HETATM    7  C   UNL     1     -10.571  11.939  63.358  1.00  0.00    -0.485 C  
BRANCH   7   8
HETATM    8  C   UNL     1     -10.527  13.143  64.252  1.00  0.00    -0.410 C  
BRANCH   8   9
HETATM    9  C   UNL     1     -11.816  13.362  64.987  1.00  0.00    -0.381 C  
HETATM   10  C   UNL     1     -12.154  12.850  66.182  1.00  0.00    -0.458 C  
BRANCH  10  11
HETATM   11  C   UNL     1     -11.293  12.007  67.083  1.00  0.00    -0.396 C  
BRANCH  11  12
HETATM   12  C   UNL     1     -11.714  12.061  68.526  1.00  0.00    -0.387 C  
HETATM   13  C   UNL     1     -11.478  13.058  69.394  1.00  0.00    -0.323 C  
BRANCH  13  14
HETATM   14  C   UNL     1     -10.678  14.284  69.106  1.00  0.00    -0.239 C  
BRANCH  14  15
HETATM   15  C   UNL     1      -9.366  13.989  68.435  1.00  0.00    -0.210 C  
HETATM   16  C   UNL     1      -8.779  14.827  67.562  1.00  0.00    -0.195 C  
BRANCH  16  17
HETATM   17  C   UNL     1      -9.383  16.121  67.104  1.00  0.00    -0.225 C  
BRANCH  17  18
HETATM   18  C   UNL     1      -8.430  16.972  66.311  1.00  0.00    -0.304 C  
HETATM   19  C   UNL     1      -7.489  17.742  66.889  1.00  0.00    -0.230 C  
BRANCH  19  20
HETATM   20  C   UNL     1      -7.317  17.793  68.383  1.00  0.00    -0.257 C  
BRANCH  20  21
HETATM   21  C   UNL     1      -7.609  19.146  69.019  1.00  0.00    -0.337 C  
HETATM   22  C   UNL     1      -6.381  19.610  69.773  1.00  0.00    -0.331 C  
HETATM   23  O   UNL     1      -6.673  20.466  70.782  1.00  0.00    -0.370 OA 
HETATM   24  O   UNL     1      -5.236  19.290  69.512  1.00  0.00    -0.178 OA 
ENDBRANCH  20  21
ENDBRANCH  19  20
ENDBRANCH  17  18
ENDBRANCH  16  17
ENDBRANCH  14  15
ENDBRANCH  13  14
ENDBRANCH  11  12
ENDBRANCH  10  11
ENDBRANCH   8   9
ENDBRANCH   7   8
ENDBRANCH   5   6
ENDBRANCH   4   5
ENDBRANCH   2   3
TORSDOF 13
ENDMDL
MODEL      345
REMARK 921   NORMALIZED FREE ENERGY PREDICTED BY IDOCK:   -3.21 KCAL/MOL
REMARK 922        TOTAL FREE ENERGY PREDICTED BY IDOCK:   -8.42 KCAL/MOL
REMARK 923 INTER-LIGAND FREE ENERGY PREDICTED BY IDOCK:   -7.28 KCAL/MOL
REMARK 924 INTRA-LIGAND FREE ENERGY PREDICTED BY IDOCK:   -1.14 KCAL/MOL
REMARK 927      BINDING AFFINITY PREDICTED BY RF-SCORE:    0.00 PKD
ROOT
HETATM    1  C   UNL     1      -7.519  20.267  67.537  1.00  0.00    -0.347 C  
HETATM    2  C   UNL     1      -8.289  19.183  66.802  1.00  0.00    -0.305 C  
ENDROOT
BRANCH   2   3
HETATM    3  C   UNL     1      -9.778  19.360  66.907  1.00  0.00    -0.431 C  
HETATM    4  C   UNL     1     -10.654  18.398  67.242  1.00  0.00    -0.435 C  
BRANCH   4   5
HETATM    5  C   UNL     1     -10.315  16.953  67.480  1.00  0.00    -0.318 C  
BRANCH   5   6
HETATM    6  C   UNL     1     -11.309  16.285  68.391  1.00  0.00    -0.312 C  
HETATM    7  C   UNL     1     -11.732  15.012  68.307  1.00  0.00    -0.338 C  
BRANCH   7   8
HETATM    8  C   UNL     1     -11.298  14.038  67.251  1.00  0.00    -0.350 C  
BRANCH   8   9
HETATM    9  C   UNL     1     -12.211  14.036  66.061  1.00  0.00    -0.484 C  
HETATM   10  C   UNL     1     -11.883  13.707  64.800  1.00  0.00    -0.414 C  
BRANCH  10  11
HETATM   11  C   UNL     1     -10.553  13.198  64.313  1.00  0.00    -0.432 C  
BRANCH  11  12
HETATM   12  C   UNL     1     -10.647  11.872  63.610  1.00  0.00    -0.500 C  
HETATM   13  C   UNL     1     -10.411  10.663  64.143  1.00  0.00    -0.293 C  
BRANCH  13  14
HETATM   14  C   UNL     1      -9.931  10.409  65.534  1.00  0.00    -0.348 C  
BRANCH  14  15
HETATM   15  C   UNL     1      -9.108  11.538  66.089  1.00  0.00    -0.217 C  
HETATM   16  C   UNL     1      -8.014  11.349  66.846  1.00  0.00    -0.158 C  
BRANCH  16  17
HETATM   17  C   UNL     1      -7.514  10.004  67.280  1.00  0.00    -0.091 C  
BRANCH  17  18
HETATM   18  C   UNL     1      -7.318   9.896  68.768  1.00  0.00    -0.078 C  
HETATM   19  C   UNL     1      -8.192   9.264  69.573  1.00  0.00    -0.121 C  
BRANCH  19  20
HETATM   20  C   UNL     1      -9.431   8.604  69.031  1.00  0.00    -0.153 C  
BRANCH  20  21
HETATM   21  C   UNL     1     -10.592   8.510  70.014  1.00  0.00    -0.230 C  
HETATM   22  C   UNL     1     -10.992   9.907  70.436  1.00  0.00    -0.318 C  
HETATM   23  O   UNL     1     -11.591   9.941  71.651  1.00  0.00    -0.360 OA 
HETATM   24  O   UNL     1     -10.834  10.914  69.769  1.00  0.00    -0.246 OA 
ENDBRANCH  20  21
ENDBRANCH  19  20
ENDBRANCH  17  18
ENDBRANCH  16  17
ENDBRANCH  14  15
ENDBRANCH  13  14
ENDBRANCH  11  12
ENDBRANCH  10  11
ENDBRANCH   8   9
ENDBRANCH   7   8
ENDBRANCH   5   6
ENDBRANCH   4   5
ENDBRANCH   2   3
TORSDOF 13
ENDMDL
MODEL      346
REMARK 921   NORMALIZED FREE ENERGY PREDICTED BY IDOCK:   -3.20 KCAL/MOL
REMARK 922        TOTAL FREE ENERGY PREDICTED BY IDOCK:   -8.41 KCAL/MOL
REMARK 923 INTER-LIGAND FREE ENERGY PREDICTED BY IDOCK:   -6.22 KCAL/MOL
REMARK 924 INTRA-LIGAND FREE ENERGY PREDICTED BY IDOCK:   -2.19 KCAL/MOL
REMARK 927      BINDING AFFINITY PREDICTED BY RF-SCORE:    0.00 PKD
ROOT
HETATM    1  C   UNL     1     -11.162   6.126  69.548  1.00  0.00    -0.482 C  
HETATM    2  C   UNL     1     -11.033   6.269  68.041  1.00  0.00    -0.418 C  
ENDROOT
BRANCH   2   3
HETATM    3  C   UNL     1     -10.305   7.521  67.640  1.00  0.00    -0.295 C  
HETATM    4  C   UNL     1      -9.108   7.563  67.029  1.00  0.00    -0.156 C  
BRANCH   4   5
HETATM    5  C   UNL     1      -8.244   6.373  66.722  1.00  0.00    -0.110 C  
BRANCH   5   6
HETATM    6  C   UNL     1      -8.457   5.872  65.320  1.00  0.00    -0.144 C  
HETATM    7  C   UNL     1      -7.595   5.988  64.294  1.00  0.00    -0.093 C  
BRANCH   7   8
HETATM    8  C   UNL     1      -6.266   6.680  64.375  1.00  0.00    -0.035 C  
BRANCH   8   9
HETATM    9  C   UNL     1      -6.097   7.726  63.313  1.00  0.00    -0.063 C  
HETATM   10  C   UNL     1      -6.665   8.944  63.289  1.00  0.00    -0.090 C  
BRANCH  10  11
HETATM   11  C   UNL     1      -7.534   9.559  64.353  1.00  0.00    -0.118 C  
BRANCH  11  12
HETATM   12  C   UNL     1      -8.987   9.622  63.969  1.00  0.00    -0.261 C  
HETATM   13  C   UNL     1      -9.958  10.289  64.612  1.00  0.00    -0.377 C  
BRANCH  13  14
HETATM   14  C   UNL     1      -9.790  11.043  65.889  1.00  0.00    -0.278 C  
BRANCH  14  15
HETATM   15  C   UNL     1     -11.082  11.239  66.632  1.00  0.00    -0.299 C  
HETATM   16  C   UNL     1     -11.484  12.430  67.110  1.00  0.00    -0.423 C  
BRANCH  16  17
HETATM   17  C   UNL     1     -10.675  13.689  67.018  1.00  0.00    -0.278 C  
BRANCH  17  18
HETATM   18  C   UNL     1     -10.972  14.497  65.785  1.00  0.00    -0.319 C  
HETATM   19  C   UNL     1     -10.736  15.819  65.707  1.00  0.00    -0.337 C  
BRANCH  19  20
HETATM   20  C   UNL     1     -10.139  16.585  66.857  1.00  0.00    -0.281 C  
BRANCH  20  21
HETATM   21  C   UNL     1      -9.405  17.862  66.468  1.00  0.00    -0.290 C  
HETATM   22  C   UNL     1      -9.883  18.992  67.354  1.00  0.00    -0.324 C  
HETATM   23  O   UNL     1      -9.739  20.211  66.780  1.00  0.00    -0.395 OA 
HETATM   24  O   UNL     1     -10.328  18.861  68.480  1.00  0.00    -0.358 OA 
ENDBRANCH  20  21
ENDBRANCH  19  20
ENDBRANCH  17  18
ENDBRANCH  16  17
ENDBRANCH  14  15
ENDBRANCH  13  14
ENDBRANCH  11  12
ENDBRANCH  10  11
ENDBRANCH   8   9
ENDBRANCH   7   8
ENDBRANCH   5   6
ENDBRANCH   4   5
ENDBRANCH   2   3
TORSDOF 13
ENDMDL
MODEL      347
REMARK 921   NORMALIZED FREE ENERGY PREDICTED BY IDOCK:   -3.20 KCAL/MOL
REMARK 922        TOTAL FREE ENERGY PREDICTED BY IDOCK:   -8.40 KCAL/MOL
REMARK 923 INTER-LIGAND FREE ENERGY PREDICTED BY IDOCK:   -5.52 KCAL/MOL
REMARK 924 INTRA-LIGAND FREE ENERGY PREDICTED BY IDOCK:   -2.88 KCAL/MOL
REMARK 927      BINDING AFFINITY PREDICTED BY RF-SCORE:    0.00 PKD
ROOT
HETATM    1  C   UNL     1      -9.077   2.561  65.609  1.00  0.00    -0.108 C  
HETATM    2  C   UNL     1      -9.644   3.699  64.776  1.00  0.00    -0.173 C  
ENDROOT
BRANCH   2   3
HETATM    3  C   UNL     1      -8.684   4.847  64.640  1.00  0.00    -0.152 C  
HETATM    4  C   UNL     1      -8.656   5.936  65.428  1.00  0.00    -0.138 C  
BRANCH   4   5
HETATM    5  C   UNL     1      -9.636   6.244  66.525  1.00  0.00    -0.183 C  
BRANCH   5   6
HETATM    6  C   UNL     1      -9.123   5.815  67.873  1.00  0.00    -0.109 C  
HETATM    7  C   UNL     1      -8.441   6.580  68.743  1.00  0.00    -0.122 C  
BRANCH   7   8
HETATM    8  C   UNL     1      -8.045   8.006  68.494  1.00  0.00    -0.125 C  
BRANCH   8   9
HETATM    9  C   UNL     1      -6.759   8.121  67.729  1.00  0.00    -0.065 C  
HETATM   10  C   UNL     1      -6.495   8.979  66.729  1.00  0.00    -0.064 C  
BRANCH  10  11
HETATM   11  C   UNL     1      -7.397  10.063  66.204  1.00  0.00    -0.109 C  
BRANCH  11  12
HETATM   12  C   UNL     1      -8.338   9.585  65.133  1.00  0.00    -0.148 C  
HETATM   13  C   UNL     1      -9.611   9.972  64.952  1.00  0.00    -0.375 C  
BRANCH  13  14
HETATM   14  C   UNL     1     -10.365  10.907  65.837  1.00  0.00    -0.310 C  
BRANCH  14  15
HETATM   15  C   UNL     1     -10.055  12.353  65.568  1.00  0.00    -0.287 C  
HETATM   16  C   UNL     1     -10.772  13.368  66.081  1.00  0.00    -0.288 C  
BRANCH  16  17
HETATM   17  C   UNL     1     -11.997  13.188  66.927  1.00  0.00    -0.421 C  
BRANCH  17  18
HETATM   18  C   UNL     1     -11.801  13.619  68.354  1.00  0.00    -0.407 C  
HETATM   19  C   UNL     1     -11.775  12.748  69.380  1.00  0.00    -0.380 C  
BRANCH  19  20
HETATM   20  C   UNL     1     -11.928  11.267  69.163  1.00  0.00    -0.405 C  
BRANCH  20  21
HETATM   21  C   UNL     1     -10.690  10.438  69.482  1.00  0.00    -0.284 C  
HETATM   22  C   UNL     1     -10.911   9.706  70.788  1.00  0.00    -0.327 C  
HETATM   23  O   UNL     1      -9.755   9.403  71.427  1.00  0.00    -0.236 OA 
HETATM   24  O   UNL     1     -11.997   9.381  71.234  1.00  0.00    -0.306 OA 
ENDBRANCH  20  21
ENDBRANCH  19  20
ENDBRANCH  17  18
ENDBRANCH  16  17
ENDBRANCH  14  15
ENDBRANCH  13  14
ENDBRANCH  11  12
ENDBRANCH  10  11
ENDBRANCH   8   9
ENDBRANCH   7   8
ENDBRANCH   5   6
ENDBRANCH   4   5
ENDBRANCH   2   3
TORSDOF 13
ENDMDL
MODEL      348
REMARK 921   NORMALIZED FREE ENERGY PREDICTED BY IDOCK:   -3.19 KCAL/MOL
REMARK 922        TOTAL FREE ENERGY PREDICTED BY IDOCK:   -8.39 KCAL/MOL
REMARK 923 INTER-LIGAND FREE ENERGY PREDICTED BY IDOCK:   -6.11 KCAL/MOL
REMARK 924 INTRA-LIGAND FREE ENERGY PREDICTED BY IDOCK:   -2.28 KCAL/MOL
REMARK 927      BINDING AFFINITY PREDICTED BY RF-SCORE:    0.00 PKD
ROOT
HETATM    1  C   UNL     1     -10.813  15.227  66.348  1.00  0.00    -0.317 C  
HETATM    2  C   UNL     1     -10.565  14.644  64.967  1.00  0.00    -0.461 C  
ENDROOT
BRANCH   2   3
HETATM    3  C   UNL     1     -11.645  13.689  64.543  1.00  0.00    -0.415 C  
HETATM    4  C   UNL     1     -11.764  12.416  64.957  1.00  0.00    -0.420 C  
BRANCH   4   5
HETATM    5  C   UNL     1     -10.789  11.692  65.843  1.00  0.00    -0.339 C  
BRANCH   5   6
HETATM    6  C   UNL     1     -11.383  11.373  67.188  1.00  0.00    -0.327 C  
HETATM    7  C   UNL     1     -11.008  10.373  68.005  1.00  0.00    -0.347 C  
BRANCH   7   8
HETATM    8  C   UNL     1      -9.935   9.373  67.689  1.00  0.00    -0.238 C  
BRANCH   8   9
HETATM    9  C   UNL     1     -10.492   8.052  67.249  1.00  0.00    -0.384 C  
HETATM   10  C   UNL     1     -10.761   6.994  68.033  1.00  0.00    -0.252 C  
BRANCH  10  11
HETATM   11  C   UNL     1     -10.636   6.921  69.531  1.00  0.00    -0.261 C  
BRANCH  11  12
HETATM   12  C   UNL     1     -11.964   6.919  70.237  1.00  0.00    -0.257 C  
HETATM   13  C   UNL     1     -12.180   6.668  71.538  1.00  0.00    -0.391 C  
BRANCH  13  14
HETATM   14  C   UNL     1     -11.137   6.264  72.526  1.00  0.00    -0.307 C  
BRANCH  14  15
HETATM   15  C   UNL     1     -10.615   7.417  73.338  1.00  0.00    -0.427 C  
HETATM   16  C   UNL     1      -9.366   7.898  73.218  1.00  0.00    -0.351 C  
BRANCH  16  17
HETATM   17  C   UNL     1      -8.323   7.311  72.314  1.00  0.00    -0.117 C  
BRANCH  17  18
HETATM   18  C   UNL     1      -6.981   7.977  72.446  1.00  0.00    -0.090 C  
HETATM   19  C   UNL     1      -6.546   8.915  71.585  1.00  0.00    -0.070 C  
BRANCH  19  20
HETATM   20  C   UNL     1      -7.389   9.376  70.426  1.00  0.00    -0.124 C  
BRANCH  20  21
HETATM   21  C   UNL     1      -6.644   9.517  69.104  1.00  0.00    -0.049 C  
HETATM   22  C   UNL     1      -6.426   8.140  68.515  1.00  0.00    -0.054 C  
HETATM   23  O   UNL     1      -5.356   8.083  67.685  1.00  0.00    -0.031 OA 
HETATM   24  O   UNL     1      -7.132   7.169  68.721  1.00  0.00    -0.082 OA 
ENDBRANCH  20  21
ENDBRANCH  19  20
ENDBRANCH  17  18
ENDBRANCH  16  17
ENDBRANCH  14  15
ENDBRANCH  13  14
ENDBRANCH  11  12
ENDBRANCH  10  11
ENDBRANCH   8   9
ENDBRANCH   7   8
ENDBRANCH   5   6
ENDBRANCH   4   5
ENDBRANCH   2   3
TORSDOF 13
ENDMDL
MODEL      349
REMARK 921   NORMALIZED FREE ENERGY PREDICTED BY IDOCK:   -3.18 KCAL/MOL
REMARK 922        TOTAL FREE ENERGY PREDICTED BY IDOCK:   -8.38 KCAL/MOL
REMARK 923 INTER-LIGAND FREE ENERGY PREDICTED BY IDOCK:   -5.81 KCAL/MOL
REMARK 924 INTRA-LIGAND FREE ENERGY PREDICTED BY IDOCK:   -2.56 KCAL/MOL
REMARK 927      BINDING AFFINITY PREDICTED BY RF-SCORE:    0.00 PKD
ROOT
HETATM    1  C   UNL     1      -8.964   2.348  65.989  1.00  0.00    -0.115 C  
HETATM    2  C   UNL     1      -9.633   3.630  65.519  1.00  0.00    -0.149 C  
ENDROOT
BRANCH   2   3
HETATM    3  C   UNL     1      -8.660   4.763  65.359  1.00  0.00    -0.134 C  
HETATM    4  C   UNL     1      -8.740   5.951  65.982  1.00  0.00    -0.148 C  
BRANCH   4   5
HETATM    5  C   UNL     1      -9.864   6.394  66.876  1.00  0.00    -0.202 C  
BRANCH   5   6
HETATM    6  C   UNL     1      -9.623   6.014  68.311  1.00  0.00    -0.126 C  
HETATM    7  C   UNL     1      -9.233   6.841  69.297  1.00  0.00    -0.141 C  
BRANCH   7   8
HETATM    8  C   UNL     1      -8.937   8.301  69.116  1.00  0.00    -0.147 C  
BRANCH   8   9
HETATM    9  C   UNL     1      -7.482   8.565  68.862  1.00  0.00    -0.091 C  
HETATM   10  C   UNL     1      -6.963   9.298  67.862  1.00  0.00    -0.077 C  
BRANCH  10  11
HETATM   11  C   UNL     1      -7.721  10.076  66.821  1.00  0.00    -0.103 C  
BRANCH  11  12
HETATM   12  C   UNL     1      -7.845   9.348  65.511  1.00  0.00    -0.103 C  
HETATM   13  C   UNL     1      -8.801   9.520  64.584  1.00  0.00    -0.250 C  
BRANCH  13  14
HETATM   14  C   UNL     1      -9.979  10.427  64.716  1.00  0.00    -0.409 C  
BRANCH  14  15
HETATM   15  C   UNL     1     -10.060  11.452  63.620  1.00  0.00    -0.421 C  
HETATM   16  C   UNL     1     -11.105  12.283  63.463  1.00  0.00    -0.533 C  
BRANCH  16  17
HETATM   17  C   UNL     1     -12.339  12.251  64.315  1.00  0.00    -0.519 C  
BRANCH  17  18
HETATM   18  C   UNL     1     -12.638  13.568  64.975  1.00  0.00    -0.441 C  
HETATM   19  C   UNL     1     -12.432  13.789  66.286  1.00  0.00    -0.441 C  
BRANCH  19  20
HETATM   20  C   UNL     1     -11.868  12.724  67.187  1.00  0.00    -0.415 C  
BRANCH  20  21
HETATM   21  C   UNL     1     -10.879  13.223  68.233  1.00  0.00    -0.276 C  
HETATM   22  C   UNL     1      -9.489  13.228  67.632  1.00  0.00    -0.211 C  
HETATM   23  O   UNL     1      -8.511  13.117  68.563  1.00  0.00    -0.144 OA 
HETATM   24  O   UNL     1      -9.239  13.345  66.446  1.00  0.00    -0.217 OA 
ENDBRANCH  20  21
ENDBRANCH  19  20
ENDBRANCH  17  18
ENDBRANCH  16  17
ENDBRANCH  14  15
ENDBRANCH  13  14
ENDBRANCH  11  12
ENDBRANCH  10  11
ENDBRANCH   8   9
ENDBRANCH   7   8
ENDBRANCH   5   6
ENDBRANCH   4   5
ENDBRANCH   2   3
TORSDOF 13
ENDMDL
MODEL      350
REMARK 921   NORMALIZED FREE ENERGY PREDICTED BY IDOCK:   -3.18 KCAL/MOL
REMARK 922        TOTAL FREE ENERGY PREDICTED BY IDOCK:   -8.38 KCAL/MOL
REMARK 923 INTER-LIGAND FREE ENERGY PREDICTED BY IDOCK:   -6.70 KCAL/MOL
REMARK 924 INTRA-LIGAND FREE ENERGY PREDICTED BY IDOCK:   -1.67 KCAL/MOL
REMARK 927      BINDING AFFINITY PREDICTED BY RF-SCORE:    0.00 PKD
ROOT
HETATM    1  C   UNL     1      -9.259   3.363  66.217  1.00  0.00    -0.168 C  
HETATM    2  C   UNL     1     -10.002   4.601  65.744  1.00  0.00    -0.246 C  
ENDROOT
BRANCH   2   3
HETATM    3  C   UNL     1      -9.434   5.868  66.318  1.00  0.00    -0.161 C  
HETATM    4  C   UNL     1      -9.807   6.432  67.480  1.00  0.00    -0.146 C  
BRANCH   4   5
HETATM    5  C   UNL     1     -10.920   5.949  68.366  1.00  0.00    -0.264 C  
BRANCH   5   6
HETATM    6  C   UNL     1     -10.404   5.150  69.531  1.00  0.00    -0.292 C  
HETATM    7  C   UNL     1     -10.394   5.539  70.818  1.00  0.00    -0.321 C  
BRANCH   7   8
HETATM    8  C   UNL     1     -10.876   6.873  71.308  1.00  0.00    -0.263 C  
BRANCH   8   9
HETATM    9  C   UNL     1      -9.886   7.972  71.053  1.00  0.00    -0.200 C  
HETATM   10  C   UNL     1     -10.132   9.293  71.076  1.00  0.00    -0.373 C  
BRANCH  10  11
HETATM   11  C   UNL     1     -11.428   9.968  71.434  1.00  0.00    -0.329 C  
BRANCH  11  12
HETATM   12  C   UNL     1     -12.367  10.106  70.267  1.00  0.00    -0.211 C  
HETATM   13  C   UNL     1     -12.398  11.110  69.377  1.00  0.00    -0.224 C  
BRANCH  13  14
HETATM   14  C   UNL     1     -11.543  12.333  69.422  1.00  0.00    -0.378 C  
BRANCH  14  15
HETATM   15  C   UNL     1     -10.298  12.213  68.589  1.00  0.00    -0.211 C  
HETATM   16  C   UNL     1     -10.144  12.824  67.401  1.00  0.00    -0.219 C  
BRANCH  16  17
HETATM   17  C   UNL     1     -11.208  13.644  66.734  1.00  0.00    -0.327 C  
BRANCH  17  18
HETATM   18  C   UNL     1     -10.762  14.247  65.431  1.00  0.00    -0.353 C  
HETATM   19  C   UNL     1     -10.244  15.486  65.342  1.00  0.00    -0.409 C  
BRANCH  19  20
HETATM   20  C   UNL     1     -10.062  16.356  66.556  1.00  0.00    -0.304 C  
BRANCH  20  21
HETATM   21  C   UNL     1      -8.700  16.245  67.229  1.00  0.00    -0.200 C  
HETATM   22  C   UNL     1      -7.671  16.957  66.377  1.00  0.00    -0.310 C  
HETATM   23  O   UNL     1      -6.415  16.482  66.558  1.00  0.00    -0.262 OA 
HETATM   24  O   UNL     1      -7.907  17.880  65.618  1.00  0.00    -0.534 OA 
ENDBRANCH  20  21
ENDBRANCH  19  20
ENDBRANCH  17  18
ENDBRANCH  16  17
ENDBRANCH  14  15
ENDBRANCH  13  14
ENDBRANCH  11  12
ENDBRANCH  10  11
ENDBRANCH   8   9
ENDBRANCH   7   8
ENDBRANCH   5   6
ENDBRANCH   4   5
ENDBRANCH   2   3
TORSDOF 13
ENDMDL
MODEL      351
REMARK 921   NORMALIZED FREE ENERGY PREDICTED BY IDOCK:   -3.18 KCAL/MOL
REMARK 922        TOTAL FREE ENERGY PREDICTED BY IDOCK:   -8.37 KCAL/MOL
REMARK 923 INTER-LIGAND FREE ENERGY PREDICTED BY IDOCK:   -5.87 KCAL/MOL
REMARK 924 INTRA-LIGAND FREE ENERGY PREDICTED BY IDOCK:   -2.50 KCAL/MOL
REMARK 927      BINDING AFFINITY PREDICTED BY RF-SCORE:    0.00 PKD
ROOT
HETATM    1  C   UNL     1     -10.484   6.468  71.104  1.00  0.00    -0.257 C  
HETATM    2  C   UNL     1     -10.657   5.469  69.973  1.00  0.00    -0.384 C  
ENDROOT
BRANCH   2   3
HETATM    3  C   UNL     1     -11.054   6.124  68.680  1.00  0.00    -0.378 C  
HETATM    4  C   UNL     1     -10.454   5.931  67.493  1.00  0.00    -0.306 C  
BRANCH   4   5
HETATM    5  C   UNL     1      -9.224   5.099  67.263  1.00  0.00    -0.119 C  
BRANCH   5   6
HETATM    6  C   UNL     1      -9.336   4.262  66.018  1.00  0.00    -0.163 C  
HETATM    7  C   UNL     1      -8.560   4.357  64.925  1.00  0.00    -0.130 C  
BRANCH   7   8
HETATM    8  C   UNL     1      -7.452   5.354  64.751  1.00  0.00    -0.070 C  
BRANCH   8   9
HETATM    9  C   UNL     1      -7.321   5.828  63.334  1.00  0.00    -0.062 C  
HETATM   10  C   UNL     1      -7.646   7.044  62.862  1.00  0.00    -0.103 C  
BRANCH  10  11
HETATM   11  C   UNL     1      -8.140   8.222  63.657  1.00  0.00    -0.126 C  
BRANCH  11  12
HETATM   12  C   UNL     1      -8.873   9.236  62.823  1.00  0.00    -0.198 C  
HETATM   13  C   UNL     1      -9.653  10.231  63.272  1.00  0.00    -0.305 C  
BRANCH  13  14
HETATM   14  C   UNL     1     -10.004  10.478  64.701  1.00  0.00    -0.415 C  
BRANCH  14  15
HETATM   15  C   UNL     1      -8.834  10.940  65.525  1.00  0.00    -0.199 C  
HETATM   16  C   UNL     1      -8.560  10.460  66.750  1.00  0.00    -0.125 C  
BRANCH  16  17
HETATM   17  C   UNL     1      -9.413   9.460  67.471  1.00  0.00    -0.154 C  
BRANCH  17  18
HETATM   18  C   UNL     1      -9.248   9.506  68.965  1.00  0.00    -0.155 C  
HETATM   19  C   UNL     1     -10.196   9.989  69.788  1.00  0.00    -0.286 C  
BRANCH  19  20
HETATM   20  C   UNL     1     -11.508  10.510  69.263  1.00  0.00    -0.323 C  
BRANCH  20  21
HETATM   21  C   UNL     1     -11.645  12.027  69.263  1.00  0.00    -0.380 C  
HETATM   22  C   UNL     1     -11.733  12.512  67.832  1.00  0.00    -0.359 C  
HETATM   23  O   UNL     1     -11.316  13.792  67.681  1.00  0.00    -0.279 OA 
HETATM   24  O   UNL     1     -12.156  11.859  66.895  1.00  0.00    -0.599 OA 
ENDBRANCH  20  21
ENDBRANCH  19  20
ENDBRANCH  17  18
ENDBRANCH  16  17
ENDBRANCH  14  15
ENDBRANCH  13  14
ENDBRANCH  11  12
ENDBRANCH  10  11
ENDBRANCH   8   9
ENDBRANCH   7   8
ENDBRANCH   5   6
ENDBRANCH   4   5
ENDBRANCH   2   3
TORSDOF 13
ENDMDL
MODEL      352
REMARK 921   NORMALIZED FREE ENERGY PREDICTED BY IDOCK:   -3.18 KCAL/MOL
REMARK 922        TOTAL FREE ENERGY PREDICTED BY IDOCK:   -8.37 KCAL/MOL
REMARK 923 INTER-LIGAND FREE ENERGY PREDICTED BY IDOCK:   -6.63 KCAL/MOL
REMARK 924 INTRA-LIGAND FREE ENERGY PREDICTED BY IDOCK:   -1.73 KCAL/MOL
REMARK 927      BINDING AFFINITY PREDICTED BY RF-SCORE:    0.00 PKD
ROOT
HETATM    1  C   UNL     1     -12.998  11.248  71.578  1.00  0.00    -0.520 C  
HETATM    2  C   UNL     1     -11.875  11.476  70.580  1.00  0.00    -0.363 C  
ENDROOT
BRANCH   2   3
HETATM    3  C   UNL     1     -12.309  11.241  69.160  1.00  0.00    -0.115 C  
HETATM    4  C   UNL     1     -11.506  10.855  68.155  1.00  0.00    -0.368 C  
BRANCH   4   5
HETATM    5  C   UNL     1     -10.016  10.680  68.247  1.00  0.00    -0.173 C  
BRANCH   5   6
HETATM    6  C   UNL     1      -9.351  10.813  66.904  1.00  0.00    -0.179 C  
HETATM    7  C   UNL     1      -9.298  11.924  66.150  1.00  0.00    -0.228 C  
BRANCH   7   8
HETATM    8  C   UNL     1      -9.935  13.232  66.517  1.00  0.00    -0.280 C  
BRANCH   8   9
HETATM    9  C   UNL     1     -10.450  13.978  65.321  1.00  0.00    -0.398 C  
HETATM   10  C   UNL     1     -10.430  15.309  65.136  1.00  0.00    -0.438 C  
BRANCH  10  11
HETATM   11  C   UNL     1      -9.823  16.341  66.048  1.00  0.00    -0.371 C  
BRANCH  11  12
HETATM   12  C   UNL     1     -10.288  17.741  65.752  1.00  0.00    -0.190 C  
HETATM   13  C   UNL     1     -10.456  18.735  66.638  1.00  0.00    -0.483 C  
BRANCH  13  14
HETATM   14  C   UNL     1     -10.283  18.615  68.115  1.00  0.00    -0.423 C  
BRANCH  14  15
HETATM   15  C   UNL     1      -9.257  19.565  68.668  1.00  0.00    -0.410 C  
HETATM   16  C   UNL     1      -7.942  19.291  68.702  1.00  0.00    -0.405 C  
BRANCH  16  17
HETATM   17  C   UNL     1      -7.342  17.992  68.255  1.00  0.00    -0.259 C  
BRANCH  17  18
HETATM   18  C   UNL     1      -6.170  17.561  69.093  1.00  0.00    -0.226 C  
HETATM   19  C   UNL     1      -5.875  16.268  69.320  1.00  0.00    -0.140 C  
BRANCH  19  20
HETATM   20  C   UNL     1      -6.699  15.153  68.733  1.00  0.00    -0.099 C  
BRANCH  20  21
HETATM   21  C   UNL     1      -6.524  13.799  69.407  1.00  0.00    -0.111 C  
HETATM   22  C   UNL     1      -6.349  12.738  68.342  1.00  0.00    -0.078 C  
HETATM   23  O   UNL     1      -6.725  11.504  68.757  1.00  0.00    -0.066 OA 
HETATM   24  O   UNL     1      -5.895  12.931  67.228  1.00  0.00    -0.308 OA 
ENDBRANCH  20  21
ENDBRANCH  19  20
ENDBRANCH  17  18
ENDBRANCH  16  17
ENDBRANCH  14  15
ENDBRANCH  13  14
ENDBRANCH  11  12
ENDBRANCH  10  11
ENDBRANCH   8   9
ENDBRANCH   7   8
ENDBRANCH   5   6
ENDBRANCH   4   5
ENDBRANCH   2   3
TORSDOF 13
ENDMDL
MODEL      353
REMARK 921   NORMALIZED FREE ENERGY PREDICTED BY IDOCK:   -3.17 KCAL/MOL
REMARK 922        TOTAL FREE ENERGY PREDICTED BY IDOCK:   -8.36 KCAL/MOL
REMARK 923 INTER-LIGAND FREE ENERGY PREDICTED BY IDOCK:   -6.72 KCAL/MOL
REMARK 924 INTRA-LIGAND FREE ENERGY PREDICTED BY IDOCK:   -1.64 KCAL/MOL
REMARK 927      BINDING AFFINITY PREDICTED BY RF-SCORE:    0.00 PKD
ROOT
HETATM    1  C   UNL     1     -14.263   8.079  71.613  1.00  0.00    -0.549 C  
HETATM    2  C   UNL     1     -13.895   9.550  71.722  1.00  0.00    -0.313 C  
ENDROOT
BRANCH   2   3
HETATM    3  C   UNL     1     -12.880   9.968  70.696  1.00  0.00    -0.263 C  
HETATM    4  C   UNL     1     -12.280  11.169  70.640  1.00  0.00    -0.492 C  
BRANCH   4   5
HETATM    5  C   UNL     1     -12.586  12.339  71.532  1.00  0.00    -0.258 C  
BRANCH   5   6
HETATM    6  C   UNL     1     -12.636  13.632  70.765  1.00  0.00    -0.397 C  
HETATM    7  C   UNL     1     -12.043  13.879  69.584  1.00  0.00    -0.404 C  
BRANCH   7   8
HETATM    8  C   UNL     1     -11.191  12.896  68.838  1.00  0.00    -0.327 C  
BRANCH   8   9
HETATM    9  C   UNL     1     -11.774  12.522  67.507  1.00  0.00    -0.439 C  
HETATM   10  C   UNL     1     -11.584  11.369  66.844  1.00  0.00    -0.088 C  
BRANCH  10  11
HETATM   11  C   UNL     1     -10.810  10.168  67.317  1.00  0.00    -0.295 C  
BRANCH  11  12
HETATM   12  C   UNL     1     -10.029   9.497  66.221  1.00  0.00    -0.344 C  
HETATM   13  C   UNL     1      -8.847   9.891  65.721  1.00  0.00    -0.171 C  
BRANCH  13  14
HETATM   14  C   UNL     1      -8.111  11.128  66.114  1.00  0.00    -0.111 C  
BRANCH  14  15
HETATM   15  C   UNL     1      -7.333  10.973  67.391  1.00  0.00    -0.105 C  
HETATM   16  C   UNL     1      -7.150  11.974  68.269  1.00  0.00    -0.086 C  
BRANCH  16  17
HETATM   17  C   UNL     1      -7.639  13.376  68.059  1.00  0.00    -0.143 C  
BRANCH  17  18
HETATM   18  C   UNL     1      -7.558  14.224  69.298  1.00  0.00     0.012 C  
HETATM   19  C   UNL     1      -8.231  15.381  69.433  1.00  0.00    -0.250 C  
BRANCH  19  20
HETATM   20  C   UNL     1      -9.131  15.904  68.346  1.00  0.00    -0.189 C  
BRANCH  20  21
HETATM   21  C   UNL     1      -8.847  17.335  67.907  1.00  0.00    -0.235 C  
HETATM   22  C   UNL     1      -8.924  17.410  66.397  1.00  0.00    -0.246 C  
HETATM   23  O   UNL     1      -8.188  18.423  65.881  1.00  0.00    -0.505 OA 
HETATM   24  O   UNL     1      -9.590  16.674  65.692  1.00  0.00    -0.519 OA 
ENDBRANCH  20  21
ENDBRANCH  19  20
ENDBRANCH  17  18
ENDBRANCH  16  17
ENDBRANCH  14  15
ENDBRANCH  13  14
ENDBRANCH  11  12
ENDBRANCH  10  11
ENDBRANCH   8   9
ENDBRANCH   7   8
ENDBRANCH   5   6
ENDBRANCH   4   5
ENDBRANCH   2   3
TORSDOF 13
ENDMDL
MODEL      354
REMARK 921   NORMALIZED FREE ENERGY PREDICTED BY IDOCK:   -3.17 KCAL/MOL
REMARK 922        TOTAL FREE ENERGY PREDICTED BY IDOCK:   -8.35 KCAL/MOL
REMARK 923 INTER-LIGAND FREE ENERGY PREDICTED BY IDOCK:   -6.83 KCAL/MOL
REMARK 924 INTRA-LIGAND FREE ENERGY PREDICTED BY IDOCK:   -1.52 KCAL/MOL
REMARK 927      BINDING AFFINITY PREDICTED BY RF-SCORE:    0.00 PKD
ROOT
HETATM    1  C   UNL     1     -12.750  15.415  73.563  1.00  0.00    -0.689 C  
HETATM    2  C   UNL     1     -12.475  14.751  72.224  1.00  0.00    -0.408 C  
ENDROOT
BRANCH   2   3
HETATM    3  C   UNL     1     -12.199  15.746  71.133  1.00  0.00    -0.473 C  
HETATM    4  C   UNL     1     -12.154  15.467  69.819  1.00  0.00    -0.373 C  
BRANCH   4   5
HETATM    5  C   UNL     1     -12.278  14.097  69.213  1.00  0.00    -0.308 C  
BRANCH   5   6
HETATM    6  C   UNL     1     -10.964  13.366  69.205  1.00  0.00    -0.213 C  
HETATM    7  C   UNL     1     -10.795  12.034  69.278  1.00  0.00    -0.130 C  
BRANCH   7   8
HETATM    8  C   UNL     1     -11.912  11.041  69.416  1.00  0.00    -0.408 C  
BRANCH   8   9
HETATM    9  C   UNL     1     -12.638  11.169  70.723  1.00  0.00    -0.445 C  
HETATM   10  C   UNL     1     -12.589  10.309  71.755  1.00  0.00    -0.488 C  
BRANCH  10  11
HETATM   11  C   UNL     1     -11.743   9.069  71.861  1.00  0.00    -0.445 C  
BRANCH  11  12
HETATM   12  C   UNL     1     -12.096   8.021  70.843  1.00  0.00    -0.164 C  
HETATM   13  C   UNL     1     -11.247   7.187  70.222  1.00  0.00    -0.309 C  
BRANCH  13  14
HETATM   14  C   UNL     1      -9.762   7.196  70.372  1.00  0.00    -0.176 C  
BRANCH  14  15
HETATM   15  C   UNL     1      -9.152   8.549  70.133  1.00  0.00    -0.154 C  
HETATM   16  C   UNL     1      -8.804   8.995  68.914  1.00  0.00    -0.139 C  
BRANCH  16  17
HETATM   17  C   UNL     1      -8.920   8.185  67.658  1.00  0.00    -0.135 C  
BRANCH  17  18
HETATM   18  C   UNL     1     -10.199   8.435  66.907  1.00  0.00    -0.383 C  
HETATM   19  C   UNL     1     -10.418   9.555  66.195  1.00  0.00    -0.077 C  
BRANCH  19  20
HETATM   20  C   UNL     1      -9.381  10.641  66.089  1.00  0.00    -0.207 C  
BRANCH  20  21
HETATM   21  C   UNL     1      -8.116  10.251  65.334  1.00  0.00    -0.147 C  
HETATM   22  C   UNL     1      -8.505   9.675  63.990  1.00  0.00    -0.185 C  
HETATM   23  O   UNL     1      -7.574   8.827  63.489  1.00  0.00    -0.107 OA 
HETATM   24  O   UNL     1      -9.524   9.944  63.380  1.00  0.00    -0.265 OA 
ENDBRANCH  20  21
ENDBRANCH  19  20
ENDBRANCH  17  18
ENDBRANCH  16  17
ENDBRANCH  14  15
ENDBRANCH  13  14
ENDBRANCH  11  12
ENDBRANCH  10  11
ENDBRANCH   8   9
ENDBRANCH   7   8
ENDBRANCH   5   6
ENDBRANCH   4   5
ENDBRANCH   2   3
TORSDOF 13
ENDMDL
MODEL      355
REMARK 921   NORMALIZED FREE ENERGY PREDICTED BY IDOCK:   -3.16 KCAL/MOL
REMARK 922        TOTAL FREE ENERGY PREDICTED BY IDOCK:   -8.33 KCAL/MOL
REMARK 923 INTER-LIGAND FREE ENERGY PREDICTED BY IDOCK:   -6.49 KCAL/MOL
REMARK 924 INTRA-LIGAND FREE ENERGY PREDICTED BY IDOCK:   -1.85 KCAL/MOL
REMARK 927      BINDING AFFINITY PREDICTED BY RF-SCORE:    0.00 PKD
ROOT
HETATM    1  C   UNL     1     -12.441  10.851  70.759  1.00  0.00    -0.489 C  
HETATM    2  C   UNL     1     -11.916   9.677  71.568  1.00  0.00    -0.485 C  
ENDROOT
BRANCH   2   3
HETATM    3  C   UNL     1     -10.481   9.359  71.257  1.00  0.00    -0.385 C  
HETATM    4  C   UNL     1     -10.062   8.416  70.395  1.00  0.00    -0.202 C  
BRANCH   4   5
HETATM    5  C   UNL     1     -10.949   7.450  69.661  1.00  0.00    -0.186 C  
BRANCH   5   6
HETATM    6  C   UNL     1     -10.617   6.020  69.992  1.00  0.00    -0.340 C  
HETATM    7  C   UNL     1      -9.705   5.252  69.372  1.00  0.00    -0.241 C  
BRANCH   7   8
HETATM    8  C   UNL     1      -8.875   5.693  68.202  1.00  0.00    -0.108 C  
BRANCH   8   9
HETATM    9  C   UNL     1      -7.438   5.920  68.570  1.00  0.00    -0.086 C  
HETATM   10  C   UNL     1      -6.796   7.100  68.607  1.00  0.00    -0.076 C  
BRANCH  10  11
HETATM   11  C   UNL     1      -7.389   8.461  68.361  1.00  0.00    -0.094 C  
BRANCH  11  12
HETATM   12  C   UNL     1      -6.910   9.095  67.084  1.00  0.00    -0.080 C  
HETATM   13  C   UNL     1      -7.635   9.845  66.240  1.00  0.00    -0.102 C  
BRANCH  13  14
HETATM   14  C   UNL     1      -9.094  10.133  66.373  1.00  0.00    -0.176 C  
BRANCH  14  15
HETATM   15  C   UNL     1      -9.800  10.228  65.050  1.00  0.00    -0.397 C  
HETATM   16  C   UNL     1     -10.765  11.127  64.792  1.00  0.00    -0.334 C  
BRANCH  16  17
HETATM   17  C   UNL     1     -11.298  12.100  65.801  1.00  0.00    -0.402 C  
BRANCH  17  18
HETATM   18  C   UNL     1     -12.454  12.914  65.287  1.00  0.00    -0.552 C  
HETATM   19  C   UNL     1     -12.292  14.093  64.660  1.00  0.00    -0.432 C  
BRANCH  19  20
HETATM   20  C   UNL     1     -10.927  14.677  64.415  1.00  0.00    -0.098 C  
BRANCH  20  21
HETATM   21  C   UNL     1     -10.677  16.028  65.074  1.00  0.00    -0.400 C  
HETATM   22  C   UNL     1      -9.857  15.818  66.329  1.00  0.00    -0.297 C  
HETATM   23  O   UNL     1     -10.035  16.799  67.247  1.00  0.00    -0.259 OA 
HETATM   24  O   UNL     1      -9.088  14.893  66.518  1.00  0.00    -0.265 OA 
ENDBRANCH  20  21
ENDBRANCH  19  20
ENDBRANCH  17  18
ENDBRANCH  16  17
ENDBRANCH  14  15
ENDBRANCH  13  14
ENDBRANCH  11  12
ENDBRANCH  10  11
ENDBRANCH   8   9
ENDBRANCH   7   8
ENDBRANCH   5   6
ENDBRANCH   4   5
ENDBRANCH   2   3
TORSDOF 13
ENDMDL
MODEL      356
REMARK 921   NORMALIZED FREE ENERGY PREDICTED BY IDOCK:   -3.16 KCAL/MOL
REMARK 922        TOTAL FREE ENERGY PREDICTED BY IDOCK:   -8.33 KCAL/MOL
REMARK 923 INTER-LIGAND FREE ENERGY PREDICTED BY IDOCK:   -6.76 KCAL/MOL
REMARK 924 INTRA-LIGAND FREE ENERGY PREDICTED BY IDOCK:   -1.57 KCAL/MOL
REMARK 927      BINDING AFFINITY PREDICTED BY RF-SCORE:    0.00 PKD
ROOT
HETATM    1  C   UNL     1      -7.653   6.785  70.688  1.00  0.00    -0.095 C  
HETATM    2  C   UNL     1      -8.836   5.951  70.225  1.00  0.00    -0.145 C  
ENDROOT
BRANCH   2   3
HETATM    3  C   UNL     1      -8.415   4.661  69.581  1.00  0.00    -0.088 C  
HETATM    4  C   UNL     1      -8.250   4.468  68.261  1.00  0.00    -0.090 C  
BRANCH   4   5
HETATM    5  C   UNL     1      -8.547   5.478  67.188  1.00  0.00    -0.109 C  
BRANCH   5   6
HETATM    6  C   UNL     1     -10.019   5.569  66.895  1.00  0.00    -0.204 C  
HETATM    7  C   UNL     1     -10.809   6.634  67.116  1.00  0.00    -0.471 C  
BRANCH   7   8
HETATM    8  C   UNL     1     -10.348   7.921  67.733  1.00  0.00    -0.289 C  
BRANCH   8   9
HETATM    9  C   UNL     1      -9.249   8.575  66.948  1.00  0.00    -0.197 C  
HETATM   10  C   UNL     1      -9.342   9.706  66.228  1.00  0.00    -0.238 C  
BRANCH  10  11
HETATM   11  C   UNL     1     -10.540  10.609  66.109  1.00  0.00    -0.211 C  
BRANCH  11  12
HETATM   12  C   UNL     1     -10.882  11.314  67.392  1.00  0.00    -0.311 C  
HETATM   13  C   UNL     1     -11.656  12.403  67.528  1.00  0.00    -0.431 C  
BRANCH  13  14
HETATM   14  C   UNL     1     -12.271  13.172  66.407  1.00  0.00    -0.396 C  
BRANCH  14  15
HETATM   15  C   UNL     1     -11.255  13.834  65.519  1.00  0.00    -0.303 C  
HETATM   16  C   UNL     1     -10.628  14.979  65.842  1.00  0.00    -0.338 C  
BRANCH  16  17
HETATM   17  C   UNL     1     -10.905  15.766  67.088  1.00  0.00    -0.289 C  
BRANCH  17  18
HETATM   18  C   UNL     1      -9.940  15.471  68.203  1.00  0.00    -0.217 C  
HETATM   19  C   UNL     1     -10.336  15.271  69.473  1.00  0.00    -0.267 C  
BRANCH  19  20
HETATM   20  C   UNL     1     -11.788  15.315  69.865  1.00  0.00    -0.363 C  
BRANCH  20  21
HETATM   21  C   UNL     1     -12.048  15.605  71.338  1.00  0.00    -0.476 C  
HETATM   22  C   UNL     1     -12.835  14.458  71.934  1.00  0.00    -0.349 C  
HETATM   23  O   UNL     1     -13.569  14.824  73.012  1.00  0.00    -0.526 OA 
HETATM   24  O   UNL     1     -12.814  13.309  71.530  1.00  0.00    -0.362 OA 
ENDBRANCH  20  21
ENDBRANCH  19  20
ENDBRANCH  17  18
ENDBRANCH  16  17
ENDBRANCH  14  15
ENDBRANCH  13  14
ENDBRANCH  11  12
ENDBRANCH  10  11
ENDBRANCH   8   9
ENDBRANCH   7   8
ENDBRANCH   5   6
ENDBRANCH   4   5
ENDBRANCH   2   3
TORSDOF 13
ENDMDL
MODEL      357
REMARK 921   NORMALIZED FREE ENERGY PREDICTED BY IDOCK:   -3.15 KCAL/MOL
REMARK 922        TOTAL FREE ENERGY PREDICTED BY IDOCK:   -8.32 KCAL/MOL
REMARK 923 INTER-LIGAND FREE ENERGY PREDICTED BY IDOCK:   -5.55 KCAL/MOL
REMARK 924 INTRA-LIGAND FREE ENERGY PREDICTED BY IDOCK:   -2.77 KCAL/MOL
REMARK 927      BINDING AFFINITY PREDICTED BY RF-SCORE:    0.00 PKD
ROOT
HETATM    1  C   UNL     1     -12.716  10.947  71.156  1.00  0.00    -0.530 C  
HETATM    2  C   UNL     1     -12.275   9.604  71.714  1.00  0.00    -0.464 C  
ENDROOT
BRANCH   2   3
HETATM    3  C   UNL     1     -10.838   9.295  71.402  1.00  0.00    -0.434 C  
HETATM    4  C   UNL     1     -10.410   8.287  70.622  1.00  0.00    -0.220 C  
BRANCH   4   5
HETATM    5  C   UNL     1     -11.284   7.236  69.998  1.00  0.00    -0.234 C  
BRANCH   5   6
HETATM    6  C   UNL     1     -10.740   5.851  70.218  1.00  0.00    -0.383 C  
HETATM    7  C   UNL     1     -10.290   5.013  69.268  1.00  0.00    -0.199 C  
BRANCH   7   8
HETATM    8  C   UNL     1     -10.287   5.317  67.798  1.00  0.00    -0.196 C  
BRANCH   8   9
HETATM    9  C   UNL     1      -8.983   4.968  67.142  1.00  0.00    -0.112 C  
HETATM   10  C   UNL     1      -8.012   5.825  66.784  1.00  0.00    -0.102 C  
BRANCH  10  11
HETATM   11  C   UNL     1      -7.979   7.310  67.027  1.00  0.00    -0.109 C  
BRANCH  11  12
HETATM   12  C   UNL     1      -8.671   8.103  65.953  1.00  0.00    -0.184 C  
HETATM   13  C   UNL     1      -9.436   9.192  66.126  1.00  0.00    -0.309 C  
BRANCH  13  14
HETATM   14  C   UNL     1      -9.809   9.786  67.444  1.00  0.00    -0.219 C  
BRANCH  14  15
HETATM   15  C   UNL     1     -11.246  10.220  67.510  1.00  0.00    -0.192 C  
HETATM   16  C   UNL     1     -11.637  11.400  68.021  1.00  0.00    -0.357 C  
BRANCH  16  17
HETATM   17  C   UNL     1     -10.705  12.398  68.641  1.00  0.00    -0.260 C  
BRANCH  17  18
HETATM   18  C   UNL     1     -10.680  13.716  67.916  1.00  0.00    -0.257 C  
HETATM   19  C   UNL     1      -9.616  14.136  67.208  1.00  0.00    -0.234 C  
BRANCH  19  20
HETATM   20  C   UNL     1      -8.371  13.300  67.079  1.00  0.00    -0.092 C  
BRANCH  20  21
HETATM   21  C   UNL     1      -7.084  13.991  67.511  1.00  0.00    -0.179 C  
HETATM   22  C   UNL     1      -6.554  13.311  68.755  1.00  0.00    -0.099 C  
HETATM   23  O   UNL     1      -5.780  14.124  69.513  1.00  0.00    -0.091 OA 
HETATM   24  O   UNL     1      -6.757  12.149  69.059  1.00  0.00    -0.092 OA 
ENDBRANCH  20  21
ENDBRANCH  19  20
ENDBRANCH  17  18
ENDBRANCH  16  17
ENDBRANCH  14  15
ENDBRANCH  13  14
ENDBRANCH  11  12
ENDBRANCH  10  11
ENDBRANCH   8   9
ENDBRANCH   7   8
ENDBRANCH   5   6
ENDBRANCH   4   5
ENDBRANCH   2   3
TORSDOF 13
ENDMDL
MODEL      358
REMARK 921   NORMALIZED FREE ENERGY PREDICTED BY IDOCK:   -3.15 KCAL/MOL
REMARK 922        TOTAL FREE ENERGY PREDICTED BY IDOCK:   -8.32 KCAL/MOL
REMARK 923 INTER-LIGAND FREE ENERGY PREDICTED BY IDOCK:   -6.36 KCAL/MOL
REMARK 924 INTRA-LIGAND FREE ENERGY PREDICTED BY IDOCK:   -1.95 KCAL/MOL
REMARK 927      BINDING AFFINITY PREDICTED BY RF-SCORE:    0.00 PKD
ROOT
HETATM    1  C   UNL     1     -11.648   7.064  70.915  1.00  0.00    -0.370 C  
HETATM    2  C   UNL     1     -11.587   7.977  72.128  1.00  0.00    -0.399 C  
ENDROOT
BRANCH   2   3
HETATM    3  C   UNL     1     -12.905   8.636  72.422  1.00  0.00    -0.413 C  
HETATM    4  C   UNL     1     -13.232   9.898  72.097  1.00  0.00    -0.511 C  
BRANCH   4   5
HETATM    5  C   UNL     1     -12.310  10.904  71.468  1.00  0.00    -0.344 C  
BRANCH   5   6
HETATM    6  C   UNL     1     -12.411  10.897  69.967  1.00  0.00    -0.385 C  
HETATM    7  C   UNL     1     -11.482  10.435  69.111  1.00  0.00    -0.261 C  
BRANCH   7   8
HETATM    8  C   UNL     1     -10.154   9.871  69.520  1.00  0.00    -0.240 C  
BRANCH   8   9
HETATM    9  C   UNL     1      -9.631   8.862  68.540  1.00  0.00    -0.165 C  
HETATM   10  C   UNL     1      -8.354   8.710  68.150  1.00  0.00    -0.127 C  
BRANCH  10  11
HETATM   11  C   UNL     1      -7.155   9.461  68.661  1.00  0.00    -0.070 C  
BRANCH  11  12
HETATM   12  C   UNL     1      -6.290  10.016  67.563  1.00  0.00    -0.059 C  
HETATM   13  C   UNL     1      -6.399  11.224  66.989  1.00  0.00    -0.111 C  
BRANCH  13  14
HETATM   14  C   UNL     1      -7.461  12.230  67.285  1.00  0.00    -0.147 C  
BRANCH  14  15
HETATM   15  C   UNL     1      -6.912  13.598  67.581  1.00  0.00    -0.183 C  
HETATM   16  C   UNL     1      -7.595  14.732  67.350  1.00  0.00    -0.228 C  
BRANCH  16  17
HETATM   17  C   UNL     1      -8.953  14.781  66.716  1.00  0.00    -0.292 C  
BRANCH  17  18
HETATM   18  C   UNL     1     -10.066  14.960  67.711  1.00  0.00    -0.234 C  
HETATM   19  C   UNL     1     -10.651  16.150  67.942  1.00  0.00    -0.309 C  
BRANCH  19  20
HETATM   20  C   UNL     1     -10.234  17.393  67.202  1.00  0.00    -0.323 C  
BRANCH  20  21
HETATM   21  C   UNL     1      -9.737  18.531  68.085  1.00  0.00    -0.367 C  
HETATM   22  C   UNL     1      -8.279  18.793  67.774  1.00  0.00    -0.263 C  
HETATM   23  O   UNL     1      -7.611  19.355  68.810  1.00  0.00    -0.343 OA 
HETATM   24  O   UNL     1      -7.737  18.563  66.708  1.00  0.00    -0.221 OA 
ENDBRANCH  20  21
ENDBRANCH  19  20
ENDBRANCH  17  18
ENDBRANCH  16  17
ENDBRANCH  14  15
ENDBRANCH  13  14
ENDBRANCH  11  12
ENDBRANCH  10  11
ENDBRANCH   8   9
ENDBRANCH   7   8
ENDBRANCH   5   6
ENDBRANCH   4   5
ENDBRANCH   2   3
TORSDOF 13
ENDMDL
MODEL      359
REMARK 921   NORMALIZED FREE ENERGY PREDICTED BY IDOCK:   -3.15 KCAL/MOL
REMARK 922        TOTAL FREE ENERGY PREDICTED BY IDOCK:   -8.31 KCAL/MOL
REMARK 923 INTER-LIGAND FREE ENERGY PREDICTED BY IDOCK:   -7.13 KCAL/MOL
REMARK 924 INTRA-LIGAND FREE ENERGY PREDICTED BY IDOCK:   -1.18 KCAL/MOL
REMARK 927      BINDING AFFINITY PREDICTED BY RF-SCORE:    0.00 PKD
ROOT
HETATM    1  C   UNL     1      -8.118   3.832  74.386  1.00  0.00    -0.082 C  
HETATM    2  C   UNL     1      -9.611   3.556  74.456  1.00  0.00    -0.140 C  
ENDROOT
BRANCH   2   3
HETATM    3  C   UNL     1     -10.431   4.814  74.438  1.00  0.00    -0.331 C  
HETATM    4  C   UNL     1     -10.954   5.387  73.339  1.00  0.00    -0.349 C  
BRANCH   4   5
HETATM    5  C   UNL     1     -10.734   4.925  71.926  1.00  0.00    -0.128 C  
BRANCH   5   6
HETATM    6  C   UNL     1      -9.671   5.730  71.231  1.00  0.00    -0.210 C  
HETATM    7  C   UNL     1      -9.839   6.491  70.136  1.00  0.00    -0.185 C  
BRANCH   7   8
HETATM    8  C   UNL     1     -11.135   6.639  69.394  1.00  0.00    -0.365 C  
BRANCH   8   9
HETATM    9  C   UNL     1     -10.992   6.364  67.926  1.00  0.00    -0.416 C  
HETATM   10  C   UNL     1     -10.672   7.254  66.971  1.00  0.00    -0.406 C  
BRANCH  10  11
HETATM   11  C   UNL     1     -10.314   8.703  67.166  1.00  0.00    -0.369 C  
BRANCH  11  12
HETATM   12  C   UNL     1      -9.897   9.387  65.893  1.00  0.00    -0.362 C  
HETATM   13  C   UNL     1     -10.047  10.687  65.595  1.00  0.00    -0.335 C  
BRANCH  13  14
HETATM   14  C   UNL     1     -10.731  11.698  66.454  1.00  0.00    -0.316 C  
BRANCH  14  15
HETATM   15  C   UNL     1     -10.067  11.884  67.790  1.00  0.00    -0.200 C  
HETATM   16  C   UNL     1     -10.639  12.545  68.811  1.00  0.00    -0.204 C  
BRANCH  16  17
HETATM   17  C   UNL     1     -11.971  13.228  68.729  1.00  0.00    -0.335 C  
BRANCH  17  18
HETATM   18  C   UNL     1     -12.019  14.527  69.486  1.00  0.00    -0.363 C  
HETATM   19  C   UNL     1     -11.554  15.683  68.977  1.00  0.00    -0.396 C  
BRANCH  19  20
HETATM   20  C   UNL     1     -10.961  15.756  67.595  1.00  0.00    -0.302 C  
BRANCH  20  21
HETATM   21  C   UNL     1      -9.594  16.425  67.516  1.00  0.00    -0.227 C  
HETATM   22  C   UNL     1      -9.670  17.586  66.548  1.00  0.00    -0.295 C  
HETATM   23  O   UNL     1      -8.472  17.892  65.994  1.00  0.00    -0.498 OA 
HETATM   24  O   UNL     1     -10.678  18.219  66.290  1.00  0.00    -0.323 OA 
ENDBRANCH  20  21
ENDBRANCH  19  20
ENDBRANCH  17  18
ENDBRANCH  16  17
ENDBRANCH  14  15
ENDBRANCH  13  14
ENDBRANCH  11  12
ENDBRANCH  10  11
ENDBRANCH   8   9
ENDBRANCH   7   8
ENDBRANCH   5   6
ENDBRANCH   4   5
ENDBRANCH   2   3
TORSDOF 13
ENDMDL
MODEL      360
REMARK 921   NORMALIZED FREE ENERGY PREDICTED BY IDOCK:   -3.15 KCAL/MOL
REMARK 922        TOTAL FREE ENERGY PREDICTED BY IDOCK:   -8.31 KCAL/MOL
REMARK 923 INTER-LIGAND FREE ENERGY PREDICTED BY IDOCK:   -6.63 KCAL/MOL
REMARK 924 INTRA-LIGAND FREE ENERGY PREDICTED BY IDOCK:   -1.68 KCAL/MOL
REMARK 927      BINDING AFFINITY PREDICTED BY RF-SCORE:    0.00 PKD
ROOT
HETATM    1  C   UNL     1     -10.403  12.446  63.713  1.00  0.00    -0.454 C  
HETATM    2  C   UNL     1     -10.845  12.102  65.125  1.00  0.00    -0.343 C  
ENDROOT
BRANCH   2   3
HETATM    3  C   UNL     1     -10.445  10.712  65.532  1.00  0.00    -0.246 C  
HETATM    4  C   UNL     1     -10.587  10.190  66.762  1.00  0.00    -0.239 C  
BRANCH   4   5
HETATM    5  C   UNL     1     -11.083  10.931  67.972  1.00  0.00    -0.351 C  
BRANCH   5   6
HETATM    6  C   UNL     1     -10.576  10.321  69.251  1.00  0.00    -0.254 C  
HETATM    7  C   UNL     1      -9.300   9.998  69.526  1.00  0.00    -0.247 C  
BRANCH   7   8
HETATM    8  C   UNL     1      -8.155  10.167  68.572  1.00  0.00    -0.106 C  
BRANCH   8   9
HETATM    9  C   UNL     1      -7.196  11.236  69.008  1.00  0.00    -0.119 C  
HETATM   10  C   UNL     1      -7.104  12.481  68.511  1.00  0.00    -0.107 C  
BRANCH  10  11
HETATM   11  C   UNL     1      -7.985  13.107  67.464  1.00  0.00    -0.179 C  
BRANCH  11  12
HETATM   12  C   UNL     1      -9.143  13.873  68.044  1.00  0.00    -0.192 C  
HETATM   13  C   UNL     1      -9.776  14.916  67.484  1.00  0.00    -0.212 C  
BRANCH  13  14
HETATM   14  C   UNL     1      -9.396  15.567  66.196  1.00  0.00    -0.380 C  
BRANCH  14  15
HETATM   15  C   UNL     1     -10.584  15.966  65.364  1.00  0.00    -0.439 C  
HETATM   16  C   UNL     1     -10.986  17.240  65.217  1.00  0.00     0.089 C  
BRANCH  16  17
HETATM   17  C   UNL     1     -10.346  18.408  65.906  1.00  0.00    -0.322 C  
BRANCH  17  18
HETATM   18  C   UNL     1     -10.668  18.481  67.373  1.00  0.00    -0.424 C  
HETATM   19  C   UNL     1     -10.245  19.485  68.162  1.00  0.00    -0.556 C  
BRANCH  19  20
HETATM   20  C   UNL     1      -9.423  20.624  67.620  1.00  0.00    -0.411 C  
BRANCH  20  21
HETATM   21  C   UNL     1      -8.095  20.217  66.992  1.00  0.00    -0.365 C  
HETATM   22  C   UNL     1      -7.041  20.145  68.075  1.00  0.00    -0.284 C  
HETATM   23  O   UNL     1      -5.785  20.336  67.604  1.00  0.00    -0.182 OA 
HETATM   24  O   UNL     1      -7.258  19.915  69.251  1.00  0.00    -0.309 OA 
ENDBRANCH  20  21
ENDBRANCH  19  20
ENDBRANCH  17  18
ENDBRANCH  16  17
ENDBRANCH  14  15
ENDBRANCH  13  14
ENDBRANCH  11  12
ENDBRANCH  10  11
ENDBRANCH   8   9
ENDBRANCH   7   8
ENDBRANCH   5   6
ENDBRANCH   4   5
ENDBRANCH   2   3
TORSDOF 13
ENDMDL
MODEL      361
REMARK 921   NORMALIZED FREE ENERGY PREDICTED BY IDOCK:   -3.15 KCAL/MOL
REMARK 922        TOTAL FREE ENERGY PREDICTED BY IDOCK:   -8.31 KCAL/MOL
REMARK 923 INTER-LIGAND FREE ENERGY PREDICTED BY IDOCK:   -7.03 KCAL/MOL
REMARK 924 INTRA-LIGAND FREE ENERGY PREDICTED BY IDOCK:   -1.28 KCAL/MOL
REMARK 927      BINDING AFFINITY PREDICTED BY RF-SCORE:    0.00 PKD
ROOT
HETATM    1  C   UNL     1      -9.874   4.692  72.639  1.00  0.00    -0.197 C  
HETATM    2  C   UNL     1     -11.348   5.064  72.628  1.00  0.00    -0.209 C  
ENDROOT
BRANCH   2   3
HETATM    3  C   UNL     1     -11.568   6.543  72.486  1.00  0.00    -0.243 C  
HETATM    4  C   UNL     1     -11.580   7.221  71.325  1.00  0.00    -0.316 C  
BRANCH   4   5
HETATM    5  C   UNL     1     -11.283   6.637  69.973  1.00  0.00    -0.425 C  
BRANCH   5   6
HETATM    6  C   UNL     1      -9.906   7.007  69.491  1.00  0.00    -0.161 C  
HETATM    7  C   UNL     1      -9.616   7.771  68.424  1.00  0.00    -0.157 C  
BRANCH   7   8
HETATM    8  C   UNL     1     -10.639   8.366  67.500  1.00  0.00    -0.285 C  
BRANCH   8   9
HETATM    9  C   UNL     1     -10.030   8.908  66.241  1.00  0.00    -0.337 C  
HETATM   10  C   UNL     1     -10.003  10.195  65.853  1.00  0.00    -0.334 C  
BRANCH  10  11
HETATM   11  C   UNL     1     -10.508  11.384  66.624  1.00  0.00    -0.285 C  
BRANCH  11  12
HETATM   12  C   UNL     1      -9.460  12.010  67.503  1.00  0.00    -0.178 C  
HETATM   13  C   UNL     1      -9.308  13.318  67.765  1.00  0.00    -0.209 C  
BRANCH  13  14
HETATM   14  C   UNL     1     -10.118  14.419  67.165  1.00  0.00    -0.253 C  
BRANCH  14  15
HETATM   15  C   UNL     1     -10.623  15.402  68.184  1.00  0.00    -0.263 C  
HETATM   16  C   UNL     1     -10.751  16.717  67.940  1.00  0.00    -0.347 C  
BRANCH  16  17
HETATM   17  C   UNL     1     -10.352  17.375  66.653  1.00  0.00    -0.306 C  
BRANCH  17  18
HETATM   18  C   UNL     1     -10.521  18.869  66.673  1.00  0.00    -0.496 C  
HETATM   19  C   UNL     1      -9.514  19.712  66.966  1.00  0.00    -0.450 C  
BRANCH  19  20
HETATM   20  C   UNL     1      -8.130  19.210  67.283  1.00  0.00    -0.286 C  
BRANCH  20  21
HETATM   21  C   UNL     1      -7.827  19.053  68.768  1.00  0.00    -0.378 C  
HETATM   22  C   UNL     1      -6.580  19.843  69.101  1.00  0.00    -0.333 C  
HETATM   23  O   UNL     1      -5.925  19.365  70.187  1.00  0.00    -0.252 OA 
HETATM   24  O   UNL     1      -6.190  20.826  68.497  1.00  0.00    -0.329 OA 
ENDBRANCH  20  21
ENDBRANCH  19  20
ENDBRANCH  17  18
ENDBRANCH  16  17
ENDBRANCH  14  15
ENDBRANCH  13  14
ENDBRANCH  11  12
ENDBRANCH  10  11
ENDBRANCH   8   9
ENDBRANCH   7   8
ENDBRANCH   5   6
ENDBRANCH   4   5
ENDBRANCH   2   3
TORSDOF 13
ENDMDL
MODEL      362
REMARK 921   NORMALIZED FREE ENERGY PREDICTED BY IDOCK:   -3.15 KCAL/MOL
REMARK 922        TOTAL FREE ENERGY PREDICTED BY IDOCK:   -8.31 KCAL/MOL
REMARK 923 INTER-LIGAND FREE ENERGY PREDICTED BY IDOCK:   -6.42 KCAL/MOL
REMARK 924 INTRA-LIGAND FREE ENERGY PREDICTED BY IDOCK:   -1.89 KCAL/MOL
REMARK 927      BINDING AFFINITY PREDICTED BY RF-SCORE:    0.00 PKD
ROOT
HETATM    1  C   UNL     1     -11.278   9.925  70.525  1.00  0.00    -0.399 C  
HETATM    2  C   UNL     1     -10.105   9.906  69.559  1.00  0.00    -0.240 C  
ENDROOT
BRANCH   2   3
HETATM    3  C   UNL     1     -10.533  10.082  68.129  1.00  0.00    -0.250 C  
HETATM    4  C   UNL     1     -10.624   9.098  67.218  1.00  0.00    -0.303 C  
BRANCH   4   5
HETATM    5  C   UNL     1     -10.226   7.666  67.438  1.00  0.00    -0.320 C  
BRANCH   5   6
HETATM    6  C   UNL     1      -8.741   7.517  67.623  1.00  0.00    -0.122 C  
HETATM    7  C   UNL     1      -7.831   7.353  66.646  1.00  0.00    -0.109 C  
BRANCH   7   8
HETATM    8  C   UNL     1      -8.159   7.257  65.185  1.00  0.00    -0.128 C  
BRANCH   8   9
HETATM    9  C   UNL     1      -6.932   7.235  64.321  1.00  0.00    -0.056 C  
HETATM   10  C   UNL     1      -6.545   8.186  63.454  1.00  0.00    -0.080 C  
BRANCH  10  11
HETATM   11  C   UNL     1      -7.209   9.515  63.211  1.00  0.00    -0.105 C  
BRANCH  11  12
HETATM   12  C   UNL     1      -8.429   9.417  62.336  1.00  0.00    -0.201 C  
HETATM   13  C   UNL     1      -9.525  10.189  62.399  1.00  0.00    -0.244 C  
BRANCH  13  14
HETATM   14  C   UNL     1      -9.774  11.256  63.412  1.00  0.00    -0.385 C  
BRANCH  14  15
HETATM   15  C   UNL     1     -11.236  11.528  63.634  1.00  0.00    -0.451 C  
HETATM   16  C   UNL     1     -11.699  12.285  64.645  1.00  0.00    -0.420 C  
BRANCH  16  17
HETATM   17  C   UNL     1     -10.831  12.896  65.703  1.00  0.00    -0.296 C  
BRANCH  17  18
HETATM   18  C   UNL     1     -11.606  13.391  66.893  1.00  0.00    -0.404 C  
HETATM   19  C   UNL     1     -11.075  14.213  67.816  1.00  0.00    -0.292 C  
BRANCH  19  20
HETATM   20  C   UNL     1      -9.658  14.710  67.712  1.00  0.00    -0.213 C  
BRANCH  20  21
HETATM   21  C   UNL     1      -9.513  16.222  67.601  1.00  0.00    -0.221 C  
HETATM   22  C   UNL     1      -9.370  16.596  66.141  1.00  0.00    -0.284 C  
HETATM   23  O   UNL     1      -8.711  17.765  65.956  1.00  0.00    -0.495 OA 
HETATM   24  O   UNL     1      -9.812  15.952  65.206  1.00  0.00    -0.408 OA 
ENDBRANCH  20  21
ENDBRANCH  19  20
ENDBRANCH  17  18
ENDBRANCH  16  17
ENDBRANCH  14  15
ENDBRANCH  13  14
ENDBRANCH  11  12
ENDBRANCH  10  11
ENDBRANCH   8   9
ENDBRANCH   7   8
ENDBRANCH   5   6
ENDBRANCH   4   5
ENDBRANCH   2   3
TORSDOF 13
ENDMDL
MODEL      363
REMARK 921   NORMALIZED FREE ENERGY PREDICTED BY IDOCK:   -3.14 KCAL/MOL
REMARK 922        TOTAL FREE ENERGY PREDICTED BY IDOCK:   -8.30 KCAL/MOL
REMARK 923 INTER-LIGAND FREE ENERGY PREDICTED BY IDOCK:   -5.69 KCAL/MOL
REMARK 924 INTRA-LIGAND FREE ENERGY PREDICTED BY IDOCK:   -2.61 KCAL/MOL
REMARK 927      BINDING AFFINITY PREDICTED BY RF-SCORE:    0.00 PKD
ROOT
HETATM    1  C   UNL     1     -12.134  14.194  64.735  1.00  0.00    -0.454 C  
HETATM    2  C   UNL     1     -12.395  13.346  65.968  1.00  0.00    -0.471 C  
ENDROOT
BRANCH   2   3
HETATM    3  C   UNL     1     -11.487  13.699  67.112  1.00  0.00    -0.367 C  
HETATM    4  C   UNL     1     -10.819  12.817  67.876  1.00  0.00    -0.242 C  
BRANCH   4   5
HETATM    5  C   UNL     1     -10.933  11.321  67.783  1.00  0.00    -0.305 C  
BRANCH   5   6
HETATM    6  C   UNL     1      -9.834  10.725  66.947  1.00  0.00    -0.224 C  
HETATM    7  C   UNL     1      -9.234   9.540  67.151  1.00  0.00    -0.158 C  
BRANCH   7   8
HETATM    8  C   UNL     1      -9.546   8.613  68.289  1.00  0.00    -0.160 C  
BRANCH   8   9
HETATM    9  C   UNL     1      -8.356   7.804  68.715  1.00  0.00    -0.128 C  
HETATM   10  C   UNL     1      -7.653   7.950  69.851  1.00  0.00    -0.089 C  
BRANCH  10  11
HETATM   11  C   UNL     1      -7.942   8.902  70.980  1.00  0.00    -0.183 C  
BRANCH  11  12
HETATM   12  C   UNL     1      -6.953   8.802  72.108  1.00  0.00    -0.019 C  
HETATM   13  C   UNL     1      -7.139   8.187  73.287  1.00  0.00    -0.153 C  
BRANCH  13  14
HETATM   14  C   UNL     1      -8.409   7.541  73.734  1.00  0.00    -0.220 C  
BRANCH  14  15
HETATM   15  C   UNL     1      -8.523   6.105  73.305  1.00  0.00    -0.116 C  
HETATM   16  C   UNL     1      -9.687   5.532  72.952  1.00  0.00    -0.170 C  
BRANCH  16  17
HETATM   17  C   UNL     1     -11.015   6.227  73.001  1.00  0.00    -0.271 C  
BRANCH  17  18
HETATM   18  C   UNL     1     -11.624   6.437  71.642  1.00  0.00    -0.363 C  
HETATM   19  C   UNL     1     -11.649   7.637  71.035  1.00  0.00    -0.301 C  
BRANCH  19  20
HETATM   20  C   UNL     1     -11.051   8.861  71.675  1.00  0.00    -0.420 C  
BRANCH  20  21
HETATM   21  C   UNL     1     -11.371  10.176  70.975  1.00  0.00    -0.385 C  
HETATM   22  C   UNL     1     -12.793  10.575  71.307  1.00  0.00    -0.431 C  
HETATM   23  O   UNL     1     -13.352  11.371  70.364  1.00  0.00     0.342 OA 
HETATM   24  O   UNL     1     -13.393  10.257  72.318  1.00  0.00    -0.407 OA 
ENDBRANCH  20  21
ENDBRANCH  19  20
ENDBRANCH  17  18
ENDBRANCH  16  17
ENDBRANCH  14  15
ENDBRANCH  13  14
ENDBRANCH  11  12
ENDBRANCH  10  11
ENDBRANCH   8   9
ENDBRANCH   7   8
ENDBRANCH   5   6
ENDBRANCH   4   5
ENDBRANCH   2   3
TORSDOF 13
ENDMDL
MODEL      364
REMARK 921   NORMALIZED FREE ENERGY PREDICTED BY IDOCK:   -3.14 KCAL/MOL
REMARK 922        TOTAL FREE ENERGY PREDICTED BY IDOCK:   -8.30 KCAL/MOL
REMARK 923 INTER-LIGAND FREE ENERGY PREDICTED BY IDOCK:   -5.60 KCAL/MOL
REMARK 924 INTRA-LIGAND FREE ENERGY PREDICTED BY IDOCK:   -2.70 KCAL/MOL
REMARK 927      BINDING AFFINITY PREDICTED BY RF-SCORE:    0.00 PKD
ROOT
HETATM    1  C   UNL     1      -9.952   5.410  71.381  1.00  0.00    -0.241 C  
HETATM    2  C   UNL     1     -10.225   5.110  69.917  1.00  0.00    -0.361 C  
ENDROOT
BRANCH   2   3
HETATM    3  C   UNL     1      -9.080   4.402  69.250  1.00  0.00    -0.174 C  
HETATM    4  C   UNL     1      -8.333   4.901  68.250  1.00  0.00    -0.091 C  
BRANCH   4   5
HETATM    5  C   UNL     1      -8.568   6.214  67.558  1.00  0.00    -0.106 C  
BRANCH   5   6
HETATM    6  C   UNL     1      -9.943   6.291  66.951  1.00  0.00    -0.215 C  
HETATM    7  C   UNL     1     -10.743   7.372  66.932  1.00  0.00    -0.324 C  
BRANCH   7   8
HETATM    8  C   UNL     1     -10.402   8.695  67.553  1.00  0.00    -0.336 C  
BRANCH   8   9
HETATM    9  C   UNL     1     -10.881   8.806  68.970  1.00  0.00    -0.052 C  
HETATM   10  C   UNL     1     -10.120   8.775  70.078  1.00  0.00    -0.200 C  
BRANCH  10  11
HETATM   11  C   UNL     1      -8.619   8.698  70.144  1.00  0.00    -0.138 C  
BRANCH  11  12
HETATM   12  C   UNL     1      -7.947  10.026  69.925  1.00  0.00    -0.184 C  
HETATM   13  C   UNL     1      -7.267  10.410  68.833  1.00  0.00    -0.082 C  
BRANCH  13  14
HETATM   14  C   UNL     1      -6.983   9.553  67.645  1.00  0.00    -0.080 C  
BRANCH  14  15
HETATM   15  C   UNL     1      -6.340  10.306  66.514  1.00  0.00    -0.078 C  
HETATM   16  C   UNL     1      -7.041  10.911  65.538  1.00  0.00     0.117 C  
BRANCH  16  17
HETATM   17  C   UNL     1      -8.535  10.858  65.420  1.00  0.00    -0.088 C  
BRANCH  17  18
HETATM   18  C   UNL     1      -9.007  10.348  64.087  1.00  0.00    -0.251 C  
HETATM   19  C   UNL     1      -9.815  11.060  63.280  1.00  0.00    -0.406 C  
BRANCH  19  20
HETATM   20  C   UNL     1     -10.295  12.436  63.657  1.00  0.00    -0.434 C  
BRANCH  20  21
HETATM   21  C   UNL     1     -11.770  12.524  64.027  1.00  0.00    -0.499 C  
HETATM   22  C   UNL     1     -12.070  13.923  64.520  1.00  0.00    -0.443 C  
HETATM   23  O   UNL     1     -13.136  13.972  65.355  1.00  0.00    -0.763 OA 
HETATM   24  O   UNL     1     -11.458  14.926  64.199  1.00  0.00    -0.168 OA 
ENDBRANCH  20  21
ENDBRANCH  19  20
ENDBRANCH  17  18
ENDBRANCH  16  17
ENDBRANCH  14  15
ENDBRANCH  13  14
ENDBRANCH  11  12
ENDBRANCH  10  11
ENDBRANCH   8   9
ENDBRANCH   7   8
ENDBRANCH   5   6
ENDBRANCH   4   5
ENDBRANCH   2   3
TORSDOF 13
ENDMDL
MODEL      365
REMARK 921   NORMALIZED FREE ENERGY PREDICTED BY IDOCK:   -3.13 KCAL/MOL
REMARK 922        TOTAL FREE ENERGY PREDICTED BY IDOCK:   -8.29 KCAL/MOL
REMARK 923 INTER-LIGAND FREE ENERGY PREDICTED BY IDOCK:   -5.87 KCAL/MOL
REMARK 924 INTRA-LIGAND FREE ENERGY PREDICTED BY IDOCK:   -2.42 KCAL/MOL
REMARK 927      BINDING AFFINITY PREDICTED BY RF-SCORE:    0.00 PKD
ROOT
HETATM    1  C   UNL     1      -9.669   6.194  66.537  1.00  0.00    -0.184 C  
HETATM    2  C   UNL     1      -8.155   6.294  66.446  1.00  0.00    -0.112 C  
ENDROOT
BRANCH   2   3
HETATM    3  C   UNL     1      -7.523   6.687  67.751  1.00  0.00    -0.098 C  
HETATM    4  C   UNL     1      -6.815   5.872  68.550  1.00  0.00    -0.070 C  
BRANCH   4   5
HETATM    5  C   UNL     1      -6.606   4.400  68.329  1.00  0.00    -0.046 C  
BRANCH   5   6
HETATM    6  C   UNL     1      -7.844   3.604  68.640  1.00  0.00    -0.055 C  
HETATM    7  C   UNL     1      -8.206   3.137  69.848  1.00  0.00    -0.067 C  
BRANCH   7   8
HETATM    8  C   UNL     1      -7.401   3.310  71.103  1.00  0.00    -0.033 C  
BRANCH   8   9
HETATM    9  C   UNL     1      -7.542   4.682  71.692  1.00  0.00    -0.082 C  
HETATM   10  C   UNL     1      -8.674   5.400  71.791  1.00  0.00    -0.138 C  
BRANCH  10  11
HETATM   11  C   UNL     1     -10.061   4.962  71.405  1.00  0.00    -0.268 C  
BRANCH  11  12
HETATM   12  C   UNL     1     -10.525   5.544  70.098  1.00  0.00    -0.370 C  
HETATM   13  C   UNL     1     -11.517   6.431  69.922  1.00  0.00    -0.483 C  
BRANCH  13  14
HETATM   14  C   UNL     1     -12.408   6.957  70.997  1.00  0.00    -0.401 C  
BRANCH  14  15
HETATM   15  C   UNL     1     -11.651   7.514  72.171  1.00  0.00    -0.340 C  
HETATM   16  C   UNL     1     -11.022   8.702  72.145  1.00  0.00    -0.434 C  
BRANCH  16  17
HETATM   17  C   UNL     1     -10.943   9.585  70.936  1.00  0.00    -0.407 C  
BRANCH  17  18
HETATM   18  C   UNL     1      -9.613   9.518  70.238  1.00  0.00    -0.314 C  
HETATM   19  C   UNL     1      -9.494   9.502  68.898  1.00  0.00    -0.155 C  
BRANCH  19  20
HETATM   20  C   UNL     1     -10.698   9.565  67.997  1.00  0.00    -0.266 C  
BRANCH  20  21
HETATM   21  C   UNL     1     -10.654  10.659  66.938  1.00  0.00    -0.311 C  
HETATM   22  C   UNL     1     -11.694  11.707  67.271  1.00  0.00    -0.175 C  
HETATM   23  O   UNL     1     -12.118  12.395  66.183  1.00  0.00    -0.611 OA 
HETATM   24  O   UNL     1     -12.109  11.953  68.389  1.00  0.00    -0.448 OA 
ENDBRANCH  20  21
ENDBRANCH  19  20
ENDBRANCH  17  18
ENDBRANCH  16  17
ENDBRANCH  14  15
ENDBRANCH  13  14
ENDBRANCH  11  12
ENDBRANCH  10  11
ENDBRANCH   8   9
ENDBRANCH   7   8
ENDBRANCH   5   6
ENDBRANCH   4   5
ENDBRANCH   2   3
TORSDOF 13
ENDMDL
MODEL      366
REMARK 921   NORMALIZED FREE ENERGY PREDICTED BY IDOCK:   -3.12 KCAL/MOL
REMARK 922        TOTAL FREE ENERGY PREDICTED BY IDOCK:   -8.27 KCAL/MOL
REMARK 923 INTER-LIGAND FREE ENERGY PREDICTED BY IDOCK:   -5.04 KCAL/MOL
REMARK 924 INTRA-LIGAND FREE ENERGY PREDICTED BY IDOCK:   -3.23 KCAL/MOL
REMARK 927      BINDING AFFINITY PREDICTED BY RF-SCORE:    0.00 PKD
ROOT
HETATM    1  C   UNL     1     -10.499   8.531  68.387  1.00  0.00    -0.215 C  
HETATM    2  C   UNL     1     -10.298   8.343  66.893  1.00  0.00    -0.378 C  
ENDROOT
BRANCH   2   3
HETATM    3  C   UNL     1     -10.032   9.638  66.179  1.00  0.00    -0.346 C  
HETATM    4  C   UNL     1      -9.232   9.788  65.109  1.00  0.00    -0.297 C  
BRANCH   4   5
HETATM    5  C   UNL     1      -8.390   8.707  64.493  1.00  0.00    -0.157 C  
BRANCH   5   6
HETATM    6  C   UNL     1      -6.920   8.948  64.708  1.00  0.00    -0.076 C  
HETATM    7  C   UNL     1      -6.152   8.379  65.654  1.00  0.00    -0.045 C  
BRANCH   7   8
HETATM    8  C   UNL     1      -6.651   7.415  66.689  1.00  0.00    -0.053 C  
BRANCH   8   9
HETATM    9  C   UNL     1      -6.816   8.053  68.037  1.00  0.00    -0.072 C  
HETATM   10  C   UNL     1      -7.084   7.424  69.194  1.00  0.00    -0.079 C  
BRANCH  10  11
HETATM   11  C   UNL     1      -7.205   5.940  69.412  1.00  0.00    -0.067 C  
BRANCH  11  12
HETATM   12  C   UNL     1      -8.606   5.425  69.226  1.00  0.00    -0.102 C  
HETATM   13  C   UNL     1      -9.356   4.791  70.141  1.00  0.00    -0.222 C  
BRANCH  13  14
HETATM   14  C   UNL     1      -8.907   4.406  71.511  1.00  0.00    -0.149 C  
BRANCH  14  15
HETATM   15  C   UNL     1      -9.825   3.420  72.178  1.00  0.00    -0.236 C  
HETATM   16  C   UNL     1     -10.854   3.785  72.961  1.00  0.00    -0.214 C  
BRANCH  16  17
HETATM   17  C   UNL     1     -11.177   5.206  73.318  1.00  0.00    -0.389 C  
BRANCH  17  18
HETATM   18  C   UNL     1     -12.013   5.902  72.280  1.00  0.00    -0.211 C  
HETATM   19  C   UNL     1     -11.850   7.200  71.965  1.00  0.00    -0.333 C  
BRANCH  19  20
HETATM   20  C   UNL     1     -10.798   8.048  72.628  1.00  0.00    -0.436 C  
BRANCH  20  21
HETATM   21  C   UNL     1      -9.453   8.081  71.914  1.00  0.00    -0.240 C  
HETATM   22  C   UNL     1      -8.366   8.367  72.928  1.00  0.00    -0.136 C  
HETATM   23  O   UNL     1      -7.269   8.943  72.378  1.00  0.00    -0.329 OA 
HETATM   24  O   UNL     1      -8.424   8.095  74.114  1.00  0.00    -0.262 OA 
ENDBRANCH  20  21
ENDBRANCH  19  20
ENDBRANCH  17  18
ENDBRANCH  16  17
ENDBRANCH  14  15
ENDBRANCH  13  14
ENDBRANCH  11  12
ENDBRANCH  10  11
ENDBRANCH   8   9
ENDBRANCH   7   8
ENDBRANCH   5   6
ENDBRANCH   4   5
ENDBRANCH   2   3
TORSDOF 13
ENDMDL
MODEL      367
REMARK 921   NORMALIZED FREE ENERGY PREDICTED BY IDOCK:   -3.12 KCAL/MOL
REMARK 922        TOTAL FREE ENERGY PREDICTED BY IDOCK:   -8.27 KCAL/MOL
REMARK 923 INTER-LIGAND FREE ENERGY PREDICTED BY IDOCK:   -5.68 KCAL/MOL
REMARK 924 INTRA-LIGAND FREE ENERGY PREDICTED BY IDOCK:   -2.59 KCAL/MOL
REMARK 927      BINDING AFFINITY PREDICTED BY RF-SCORE:    0.00 PKD
ROOT
HETATM    1  C   UNL     1      -9.037  16.922  66.167  1.00  0.00    -0.265 C  
HETATM    2  C   UNL     1     -10.236  16.130  65.673  1.00  0.00    -0.390 C  
ENDROOT
BRANCH   2   3
HETATM    3  C   UNL     1      -9.938  14.664  65.525  1.00  0.00    -0.384 C  
HETATM    4  C   UNL     1     -10.788  13.664  65.816  1.00  0.00    -0.274 C  
BRANCH   4   5
HETATM    5  C   UNL     1     -12.151  13.828  66.427  1.00  0.00    -0.483 C  
BRANCH   5   6
HETATM    6  C   UNL     1     -12.107  13.738  67.928  1.00  0.00    -0.322 C  
HETATM    7  C   UNL     1     -11.960  12.615  68.653  1.00  0.00    -0.264 C  
BRANCH   7   8
HETATM    8  C   UNL     1     -11.845  11.236  68.072  1.00  0.00    -0.244 C  
BRANCH   8   9
HETATM    9  C   UNL     1     -10.471  10.656  68.238  1.00  0.00    -0.214 C  
HETATM   10  C   UNL     1      -9.738  10.048  67.290  1.00  0.00    -0.206 C  
BRANCH  10  11
HETATM   11  C   UNL     1     -10.095   9.880  65.837  1.00  0.00    -0.316 C  
BRANCH  11  12
HETATM   12  C   UNL     1      -9.079  10.478  64.904  1.00  0.00    -0.235 C  
HETATM   13  C   UNL     1      -7.777  10.164  64.828  1.00  0.00    -0.141 C  
BRANCH  13  14
HETATM   14  C   UNL     1      -7.065   9.202  65.720  1.00  0.00    -0.085 C  
BRANCH  14  15
HETATM   15  C   UNL     1      -6.828   7.865  65.074  1.00  0.00    -0.051 C  
HETATM   16  C   UNL     1      -7.385   6.724  65.515  1.00  0.00    -0.079 C  
BRANCH  16  17
HETATM   17  C   UNL     1      -8.256   6.630  66.732  1.00  0.00    -0.114 C  
BRANCH  17  18
HETATM   18  C   UNL     1      -9.682   6.275  66.414  1.00  0.00    -0.146 C  
HETATM   19  C   UNL     1     -10.668   6.336  67.328  1.00  0.00    -0.424 C  
BRANCH  19  20
HETATM   20  C   UNL     1     -10.409   6.782  68.742  1.00  0.00    -0.211 C  
BRANCH  20  21
HETATM   21  C   UNL     1     -10.682   5.729  69.809  1.00  0.00    -0.418 C  
HETATM   22  C   UNL     1      -9.481   4.813  69.914  1.00  0.00    -0.161 C  
HETATM   23  O   UNL     1      -9.794   3.583  70.387  1.00  0.00    -0.156 OA 
HETATM   24  O   UNL     1      -8.336   5.124  69.639  1.00  0.00    -0.091 OA 
ENDBRANCH  20  21
ENDBRANCH  19  20
ENDBRANCH  17  18
ENDBRANCH  16  17
ENDBRANCH  14  15
ENDBRANCH  13  14
ENDBRANCH  11  12
ENDBRANCH  10  11
ENDBRANCH   8   9
ENDBRANCH   7   8
ENDBRANCH   5   6
ENDBRANCH   4   5
ENDBRANCH   2   3
TORSDOF 13
ENDMDL
MODEL      368
REMARK 921   NORMALIZED FREE ENERGY PREDICTED BY IDOCK:   -3.12 KCAL/MOL
REMARK 922        TOTAL FREE ENERGY PREDICTED BY IDOCK:   -8.27 KCAL/MOL
REMARK 923 INTER-LIGAND FREE ENERGY PREDICTED BY IDOCK:   -5.51 KCAL/MOL
REMARK 924 INTRA-LIGAND FREE ENERGY PREDICTED BY IDOCK:   -2.76 KCAL/MOL
REMARK 927      BINDING AFFINITY PREDICTED BY RF-SCORE:    0.00 PKD
ROOT
HETATM    1  C   UNL     1     -11.168   6.336  69.402  1.00  0.00    -0.489 C  
HETATM    2  C   UNL     1     -10.995   6.149  67.904  1.00  0.00    -0.399 C  
ENDROOT
BRANCH   2   3
HETATM    3  C   UNL     1     -10.572   7.413  67.210  1.00  0.00    -0.393 C  
HETATM    4  C   UNL     1      -9.431   7.577  66.519  1.00  0.00    -0.237 C  
BRANCH   4   5
HETATM    5  C   UNL     1      -8.333   6.558  66.393  1.00  0.00    -0.120 C  
BRANCH   5   6
HETATM    6  C   UNL     1      -8.616   5.559  65.305  1.00  0.00    -0.149 C  
HETATM    7  C   UNL     1      -7.798   5.239  64.287  1.00  0.00    -0.101 C  
BRANCH   7   8
HETATM    8  C   UNL     1      -6.454   5.863  64.047  1.00  0.00    -0.033 C  
BRANCH   8   9
HETATM    9  C   UNL     1      -6.387   6.602  62.743  1.00  0.00    -0.038 C  
HETATM   10  C   UNL     1      -6.766   7.872  62.520  1.00  0.00    -0.085 C  
BRANCH  10  11
HETATM   11  C   UNL     1      -7.270   8.859  63.538  1.00  0.00    -0.093 C  
BRANCH  11  12
HETATM   12  C   UNL     1      -6.221   9.272  64.533  1.00  0.00    -0.076 C  
HETATM   13  C   UNL     1      -6.415   9.984  65.655  1.00  0.00    -0.099 C  
BRANCH  13  14
HETATM   14  C   UNL     1      -7.715  10.570  66.093  1.00  0.00    -0.142 C  
BRANCH  14  15
HETATM   15  C   UNL     1      -7.552  11.716  67.052  1.00  0.00    -0.154 C  
HETATM   16  C   UNL     1      -8.349  11.904  68.118  1.00  0.00    -0.161 C  
BRANCH  16  17
HETATM   17  C   UNL     1      -9.527  11.038  68.449  1.00  0.00    -0.182 C  
BRANCH  17  18
HETATM   18  C   UNL     1      -9.188   9.902  69.375  1.00  0.00    -0.225 C  
HETATM   19  C   UNL     1      -9.962   9.561  70.421  1.00  0.00    -0.325 C  
BRANCH  19  20
HETATM   20  C   UNL     1     -11.241  10.292  70.731  1.00  0.00    -0.373 C  
BRANCH  20  21
HETATM   21  C   UNL     1     -12.446   9.398  70.994  1.00  0.00    -0.311 C  
HETATM   22  C   UNL     1     -13.307  10.035  72.063  1.00  0.00    -0.409 C  
HETATM   23  O   UNL     1     -14.055   9.135  72.746  1.00  0.00    -0.518 OA 
HETATM   24  O   UNL     1     -13.368  11.229  72.295  1.00  0.00    -0.394 OA 
ENDBRANCH  20  21
ENDBRANCH  19  20
ENDBRANCH  17  18
ENDBRANCH  16  17
ENDBRANCH  14  15
ENDBRANCH  13  14
ENDBRANCH  11  12
ENDBRANCH  10  11
ENDBRANCH   8   9
ENDBRANCH   7   8
ENDBRANCH   5   6
ENDBRANCH   4   5
ENDBRANCH   2   3
TORSDOF 13
ENDMDL
MODEL      369
REMARK 921   NORMALIZED FREE ENERGY PREDICTED BY IDOCK:   -3.12 KCAL/MOL
REMARK 922        TOTAL FREE ENERGY PREDICTED BY IDOCK:   -8.27 KCAL/MOL
REMARK 923 INTER-LIGAND FREE ENERGY PREDICTED BY IDOCK:   -7.13 KCAL/MOL
REMARK 924 INTRA-LIGAND FREE ENERGY PREDICTED BY IDOCK:   -1.13 KCAL/MOL
REMARK 927      BINDING AFFINITY PREDICTED BY RF-SCORE:    0.00 PKD
ROOT
HETATM    1  C   UNL     1      -9.183   8.645  68.335  1.00  0.00    -0.138 C  
HETATM    2  C   UNL     1     -10.102   8.981  67.171  1.00  0.00    -0.309 C  
ENDROOT
BRANCH   2   3
HETATM    3  C   UNL     1      -9.468   8.702  65.838  1.00  0.00    -0.243 C  
HETATM    4  C   UNL     1      -9.232   9.617  64.882  1.00  0.00    -0.306 C  
BRANCH   4   5
HETATM    5  C   UNL     1      -9.642  11.062  64.937  1.00  0.00    -0.289 C  
BRANCH   5   6
HETATM    6  C   UNL     1     -10.660  11.397  63.882  1.00  0.00    -0.452 C  
HETATM    7  C   UNL     1     -11.713  12.220  64.028  1.00  0.00    -0.506 C  
BRANCH   7   8
HETATM    8  C   UNL     1     -12.070  12.929  65.302  1.00  0.00    -0.496 C  
BRANCH   8   9
HETATM    9  C   UNL     1     -11.776  12.104  66.520  1.00  0.00    -0.392 C  
HETATM   10  C   UNL     1     -11.713  12.542  67.789  1.00  0.00    -0.419 C  
BRANCH  10  11
HETATM   11  C   UNL     1     -11.995  13.936  68.281  1.00  0.00    -0.392 C  
BRANCH  11  12
HETATM   12  C   UNL     1     -11.336  15.003  67.451  1.00  0.00    -0.338 C  
HETATM   13  C   UNL     1     -10.145  15.577  67.682  1.00  0.00    -0.243 C  
BRANCH  13  14
HETATM   14  C   UNL     1      -9.273  15.315  68.864  1.00  0.00    -0.211 C  
BRANCH  14  15
HETATM   15  C   UNL     1      -8.217  14.277  68.600  1.00  0.00    -0.139 C  
HETATM   16  C   UNL     1      -6.956  14.377  69.054  1.00  0.00    -0.114 C  
BRANCH  16  17
HETATM   17  C   UNL     1      -6.429  15.553  69.820  1.00  0.00    -0.167 C  
BRANCH  17  18
HETATM   18  C   UNL     1      -5.502  16.419  69.014  1.00  0.00    -0.119 C  
HETATM   19  C   UNL     1      -5.884  17.594  68.480  1.00  0.00    -0.171 C  
BRANCH  19  20
HETATM   20  C   UNL     1      -7.277  18.132  68.669  1.00  0.00    -0.288 C  
BRANCH  20  21
HETATM   21  C   UNL     1      -7.594  19.390  67.869  1.00  0.00    -0.316 C  
HETATM   22  C   UNL     1      -7.720  19.023  66.406  1.00  0.00    -0.274 C  
HETATM   23  O   UNL     1      -7.457  20.061  65.576  1.00  0.00    -0.323 OA 
HETATM   24  O   UNL     1      -8.047  17.929  65.983  1.00  0.00    -0.486 OA 
ENDBRANCH  20  21
ENDBRANCH  19  20
ENDBRANCH  17  18
ENDBRANCH  16  17
ENDBRANCH  14  15
ENDBRANCH  13  14
ENDBRANCH  11  12
ENDBRANCH  10  11
ENDBRANCH   8   9
ENDBRANCH   7   8
ENDBRANCH   5   6
ENDBRANCH   4   5
ENDBRANCH   2   3
TORSDOF 13
ENDMDL
MODEL      370
REMARK 921   NORMALIZED FREE ENERGY PREDICTED BY IDOCK:   -3.12 KCAL/MOL
REMARK 922        TOTAL FREE ENERGY PREDICTED BY IDOCK:   -8.27 KCAL/MOL
REMARK 923 INTER-LIGAND FREE ENERGY PREDICTED BY IDOCK:   -6.10 KCAL/MOL
REMARK 924 INTRA-LIGAND FREE ENERGY PREDICTED BY IDOCK:   -2.17 KCAL/MOL
REMARK 927      BINDING AFFINITY PREDICTED BY RF-SCORE:    0.00 PKD
ROOT
HETATM    1  C   UNL     1      -7.172  15.019  67.541  1.00  0.00    -0.228 C  
HETATM    2  C   UNL     1      -8.255  16.003  67.131  1.00  0.00    -0.226 C  
ENDROOT
BRANCH   2   3
HETATM    3  C   UNL     1      -9.179  16.349  68.265  1.00  0.00    -0.207 C  
HETATM    4  C   UNL     1     -10.468  15.980  68.358  1.00  0.00    -0.263 C  
BRANCH   4   5
HETATM    5  C   UNL     1     -11.241  15.237  67.305  1.00  0.00    -0.306 C  
BRANCH   5   6
HETATM    6  C   UNL     1     -11.170  13.747  67.503  1.00  0.00    -0.316 C  
HETATM    7  C   UNL     1     -11.625  12.810  66.653  1.00  0.00    -0.430 C  
BRANCH   7   8
HETATM    8  C   UNL     1     -12.321  13.103  65.356  1.00  0.00    -0.532 C  
BRANCH   8   9
HETATM    9  C   UNL     1     -11.360  13.388  64.240  1.00  0.00    -0.420 C  
HETATM   10  C   UNL     1     -10.487  12.523  63.694  1.00  0.00    -0.418 C  
BRANCH  10  11
HETATM   11  C   UNL     1     -10.330  11.064  64.025  1.00  0.00    -0.436 C  
BRANCH  11  12
HETATM   12  C   UNL     1      -9.091  10.768  64.824  1.00  0.00    -0.222 C  
HETATM   13  C   UNL     1      -9.015  10.031  65.943  1.00  0.00    -0.182 C  
BRANCH  13  14
HETATM   14  C   UNL     1     -10.175   9.421  66.657  1.00  0.00    -0.319 C  
BRANCH  14  15
HETATM   15  C   UNL     1     -10.129   7.918  66.681  1.00  0.00    -0.310 C  
HETATM   16  C   UNL     1     -10.422   7.189  67.771  1.00  0.00    -0.284 C  
BRANCH  16  17
HETATM   17  C   UNL     1     -10.767   7.776  69.107  1.00  0.00    -0.139 C  
BRANCH  17  18
HETATM   18  C   UNL     1      -9.869   7.299  70.215  1.00  0.00    -0.179 C  
HETATM   19  C   UNL     1      -8.960   8.094  70.808  1.00  0.00    -0.156 C  
BRANCH  19  20
HETATM   20  C   UNL     1      -8.789   9.535  70.408  1.00  0.00    -0.279 C  
BRANCH  20  21
HETATM   21  C   UNL     1      -7.350  10.035  70.403  1.00  0.00    -0.094 C  
HETATM   22  C   UNL     1      -6.573   9.286  69.342  1.00  0.00    -0.044 C  
HETATM   23  O   UNL     1      -5.243   9.234  69.599  1.00  0.00    -0.034 OA 
HETATM   24  O   UNL     1      -7.053   8.795  68.337  1.00  0.00    -0.074 OA 
ENDBRANCH  20  21
ENDBRANCH  19  20
ENDBRANCH  17  18
ENDBRANCH  16  17
ENDBRANCH  14  15
ENDBRANCH  13  14
ENDBRANCH  11  12
ENDBRANCH  10  11
ENDBRANCH   8   9
ENDBRANCH   7   8
ENDBRANCH   5   6
ENDBRANCH   4   5
ENDBRANCH   2   3
TORSDOF 13
ENDMDL
MODEL      371
REMARK 921   NORMALIZED FREE ENERGY PREDICTED BY IDOCK:   -3.12 KCAL/MOL
REMARK 922        TOTAL FREE ENERGY PREDICTED BY IDOCK:   -8.26 KCAL/MOL
REMARK 923 INTER-LIGAND FREE ENERGY PREDICTED BY IDOCK:   -5.70 KCAL/MOL
REMARK 924 INTRA-LIGAND FREE ENERGY PREDICTED BY IDOCK:   -2.56 KCAL/MOL
REMARK 927      BINDING AFFINITY PREDICTED BY RF-SCORE:    0.00 PKD
ROOT
HETATM    1  C   UNL     1     -13.991   8.319  72.088  1.00  0.00    -0.384 C  
HETATM    2  C   UNL     1     -12.955   9.357  71.689  1.00  0.00    -0.471 C  
ENDROOT
BRANCH   2   3
HETATM    3  C   UNL     1     -11.843   8.773  70.865  1.00  0.00    -0.267 C  
HETATM    4  C   UNL     1     -10.949   9.480  70.152  1.00  0.00    -0.302 C  
BRANCH   4   5
HETATM    5  C   UNL     1     -10.958  10.973  69.976  1.00  0.00    -0.152 C  
BRANCH   5   6
HETATM    6  C   UNL     1     -11.709  11.388  68.741  1.00  0.00    -0.404 C  
HETATM    7  C   UNL     1     -11.379  11.090  67.472  1.00  0.00    -0.332 C  
BRANCH   7   8
HETATM    8  C   UNL     1     -10.164  10.306  67.071  1.00  0.00    -0.282 C  
BRANCH   8   9
HETATM    9  C   UNL     1     -10.507   8.940  66.554  1.00  0.00    -0.175 C  
HETATM   10  C   UNL     1      -9.950   7.777  66.931  1.00  0.00    -0.331 C  
BRANCH  10  11
HETATM   11  C   UNL     1      -8.916   7.574  68.006  1.00  0.00    -0.129 C  
BRANCH  11  12
HETATM   12  C   UNL     1      -7.624   7.006  67.486  1.00  0.00    -0.109 C  
HETATM   13  C   UNL     1      -6.471   7.670  67.308  1.00  0.00    -0.058 C  
BRANCH  13  14
HETATM   14  C   UNL     1      -6.272   9.133  67.524  1.00  0.00    -0.058 C  
BRANCH  14  15
HETATM   15  C   UNL     1      -6.578   9.569  68.929  1.00  0.00    -0.047 C  
HETATM   16  C   UNL     1      -7.158  10.744  69.227  1.00  0.00    -0.116 C  
BRANCH  16  17
HETATM   17  C   UNL     1      -7.513  11.787  68.210  1.00  0.00    -0.103 C  
BRANCH  17  18
HETATM   18  C   UNL     1      -7.495  13.186  68.763  1.00  0.00    -0.050 C  
HETATM   19  C   UNL     1      -8.357  14.138  68.362  1.00  0.00    -0.161 C  
BRANCH  19  20
HETATM   20  C   UNL     1      -9.419  13.861  67.332  1.00  0.00    -0.226 C  
BRANCH  20  21
HETATM   21  C   UNL     1     -10.104  15.098  66.765  1.00  0.00    -0.261 C  
HETATM   22  C   UNL     1     -10.481  14.833  65.323  1.00  0.00    -0.404 C  
HETATM   23  O   UNL     1     -10.579  15.965  64.586  1.00  0.00    -0.525 OA 
HETATM   24  O   UNL     1     -10.709  13.735  64.848  1.00  0.00    -0.351 OA 
ENDBRANCH  20  21
ENDBRANCH  19  20
ENDBRANCH  17  18
ENDBRANCH  16  17
ENDBRANCH  14  15
ENDBRANCH  13  14
ENDBRANCH  11  12
ENDBRANCH  10  11
ENDBRANCH   8   9
ENDBRANCH   7   8
ENDBRANCH   5   6
ENDBRANCH   4   5
ENDBRANCH   2   3
TORSDOF 13
ENDMDL
MODEL      372
REMARK 921   NORMALIZED FREE ENERGY PREDICTED BY IDOCK:   -3.10 KCAL/MOL
REMARK 922        TOTAL FREE ENERGY PREDICTED BY IDOCK:   -8.24 KCAL/MOL
REMARK 923 INTER-LIGAND FREE ENERGY PREDICTED BY IDOCK:   -5.64 KCAL/MOL
REMARK 924 INTRA-LIGAND FREE ENERGY PREDICTED BY IDOCK:   -2.60 KCAL/MOL
REMARK 927      BINDING AFFINITY PREDICTED BY RF-SCORE:    0.00 PKD
ROOT
HETATM    1  C   UNL     1      -7.820  18.804  66.336  1.00  0.00    -0.297 C  
HETATM    2  C   UNL     1      -8.615  17.815  67.173  1.00  0.00    -0.242 C  
ENDROOT
BRANCH   2   3
HETATM    3  C   UNL     1      -7.874  17.377  68.405  1.00  0.00    -0.257 C  
HETATM    4  C   UNL     1      -7.097  16.285  68.498  1.00  0.00    -0.146 C  
BRANCH   4   5
HETATM    5  C   UNL     1      -6.903  15.258  67.419  1.00  0.00    -0.188 C  
BRANCH   5   6
HETATM    6  C   UNL     1      -8.004  14.233  67.415  1.00  0.00    -0.211 C  
HETATM    7  C   UNL     1      -7.855  12.906  67.568  1.00  0.00    -0.177 C  
BRANCH   7   8
HETATM    8  C   UNL     1      -6.535  12.212  67.739  1.00  0.00    -0.095 C  
BRANCH   8   9
HETATM    9  C   UNL     1      -5.842  11.963  66.432  1.00  0.00     0.337 C  
HETATM   10  C   UNL     1      -6.070  10.945  65.585  1.00  0.00    -0.040 C  
BRANCH  10  11
HETATM   11  C   UNL     1      -7.117   9.873  65.718  1.00  0.00    -0.110 C  
BRANCH  11  12
HETATM   12  C   UNL     1      -8.447  10.267  65.135  1.00  0.00    -0.173 C  
HETATM   13  C   UNL     1      -9.657  10.023  65.661  1.00  0.00    -0.313 C  
BRANCH  13  14
HETATM   14  C   UNL     1      -9.918   9.237  66.903  1.00  0.00    -0.298 C  
BRANCH  14  15
HETATM   15  C   UNL     1      -9.343   9.874  68.137  1.00  0.00    -0.138 C  
HETATM   16  C   UNL     1     -10.047  10.686  68.944  1.00  0.00    -0.215 C  
BRANCH  16  17
HETATM   17  C   UNL     1     -11.464  11.103  68.687  1.00  0.00    -0.363 C  
BRANCH  17  18
HETATM   18  C   UNL     1     -11.767  12.498  69.161  1.00  0.00    -0.375 C  
HETATM   19  C   UNL     1     -11.807  13.556  68.331  1.00  0.00    -0.408 C  
BRANCH  19  20
HETATM   20  C   UNL     1     -11.563  13.411  66.853  1.00  0.00    -0.404 C  
BRANCH  20  21
HETATM   21  C   UNL     1     -12.103  14.550  65.997  1.00  0.00    -0.298 C  
HETATM   22  C   UNL     1     -11.173  14.766  64.823  1.00  0.00    -0.385 C  
HETATM   23  O   UNL     1     -11.225  16.028  64.331  1.00  0.00    -0.531 OA 
HETATM   24  O   UNL     1     -10.459  13.912  64.327  1.00  0.00    -0.313 OA 
ENDBRANCH  20  21
ENDBRANCH  19  20
ENDBRANCH  17  18
ENDBRANCH  16  17
ENDBRANCH  14  15
ENDBRANCH  13  14
ENDBRANCH  11  12
ENDBRANCH  10  11
ENDBRANCH   8   9
ENDBRANCH   7   8
ENDBRANCH   5   6
ENDBRANCH   4   5
ENDBRANCH   2   3
TORSDOF 13
ENDMDL
MODEL      373
REMARK 921   NORMALIZED FREE ENERGY PREDICTED BY IDOCK:   -3.08 KCAL/MOL
REMARK 922        TOTAL FREE ENERGY PREDICTED BY IDOCK:   -8.20 KCAL/MOL
REMARK 923 INTER-LIGAND FREE ENERGY PREDICTED BY IDOCK:   -6.83 KCAL/MOL
REMARK 924 INTRA-LIGAND FREE ENERGY PREDICTED BY IDOCK:   -1.37 KCAL/MOL
REMARK 927      BINDING AFFINITY PREDICTED BY RF-SCORE:    0.00 PKD
ROOT
HETATM    1  C   UNL     1      -5.864  10.093  63.295  1.00  0.00    -0.136 C  
HETATM    2  C   UNL     1      -6.809   8.906  63.381  1.00  0.00    -0.089 C  
ENDROOT
BRANCH   2   3
HETATM    3  C   UNL     1      -7.081   8.487  64.798  1.00  0.00    -0.080 C  
HETATM    4  C   UNL     1      -8.221   8.716  65.472  1.00  0.00    -0.135 C  
BRANCH   4   5
HETATM    5  C   UNL     1      -9.390   9.511  64.963  1.00  0.00    -0.294 C  
BRANCH   5   6
HETATM    6  C   UNL     1      -9.096  10.986  64.933  1.00  0.00    -0.164 C  
HETATM    7  C   UNL     1      -9.924  11.969  65.327  1.00  0.00    -0.273 C  
BRANCH   7   8
HETATM    8  C   UNL     1     -11.317  11.754  65.841  1.00  0.00    -0.324 C  
BRANCH   8   9
HETATM    9  C   UNL     1     -12.161  12.991  65.750  1.00  0.00    -0.511 C  
HETATM   10  C   UNL     1     -12.122  14.051  66.575  1.00  0.00    -0.488 C  
BRANCH  10  11
HETATM   11  C   UNL     1     -11.177  14.269  67.725  1.00  0.00    -0.309 C  
BRANCH  11  12
HETATM   12  C   UNL     1     -11.682  15.270  68.727  1.00  0.00    -0.374 C  
HETATM   13  C   UNL     1     -11.362  16.572  68.792  1.00  0.00    -0.221 C  
BRANCH  13  14
HETATM   14  C   UNL     1     -10.372  17.264  67.915  1.00  0.00    -0.360 C  
BRANCH  14  15
HETATM   15  C   UNL     1     -10.785  18.662  67.547  1.00  0.00    -0.447 C  
HETATM   16  C   UNL     1      -9.972  19.725  67.662  1.00  0.00    -0.535 C  
BRANCH  16  17
HETATM   17  C   UNL     1      -8.583  19.665  68.225  1.00  0.00    -0.358 C  
BRANCH  17  18
HETATM   18  C   UNL     1      -7.627  20.609  67.550  1.00  0.00    -0.340 C  
HETATM   19  C   UNL     1      -6.892  20.257  66.479  1.00  0.00    -0.274 C  
BRANCH  19  20
HETATM   20  C   UNL     1      -6.989  18.884  65.870  1.00  0.00    -0.304 C  
BRANCH  20  21
HETATM   21  C   UNL     1      -5.944  17.889  66.358  1.00  0.00    -0.217 C  
HETATM   22  C   UNL     1      -6.645  16.636  66.839  1.00  0.00    -0.207 C  
HETATM   23  O   UNL     1      -5.925  15.947  67.757  1.00  0.00    -0.125 OA 
HETATM   24  O   UNL     1      -7.727  16.243  66.443  1.00  0.00    -0.262 OA 
ENDBRANCH  20  21
ENDBRANCH  19  20
ENDBRANCH  17  18
ENDBRANCH  16  17
ENDBRANCH  14  15
ENDBRANCH  13  14
ENDBRANCH  11  12
ENDBRANCH  10  11
ENDBRANCH   8   9
ENDBRANCH   7   8
ENDBRANCH   5   6
ENDBRANCH   4   5
ENDBRANCH   2   3
TORSDOF 13
ENDMDL
MODEL      374
REMARK 921   NORMALIZED FREE ENERGY PREDICTED BY IDOCK:   -3.07 KCAL/MOL
REMARK 922        TOTAL FREE ENERGY PREDICTED BY IDOCK:   -8.18 KCAL/MOL
REMARK 923 INTER-LIGAND FREE ENERGY PREDICTED BY IDOCK:   -6.13 KCAL/MOL
REMARK 924 INTRA-LIGAND FREE ENERGY PREDICTED BY IDOCK:   -2.05 KCAL/MOL
REMARK 927      BINDING AFFINITY PREDICTED BY RF-SCORE:    0.00 PKD
ROOT
HETATM    1  C   UNL     1      -6.848  19.626  68.745  1.00  0.00    -0.362 C  
HETATM    2  C   UNL     1      -7.863  19.449  67.628  1.00  0.00    -0.309 C  
ENDROOT
BRANCH   2   3
HETATM    3  C   UNL     1      -9.279  19.447  68.131  1.00  0.00    -0.395 C  
HETATM    4  C   UNL     1     -10.027  18.351  68.346  1.00  0.00    -0.406 C  
BRANCH   4   5
HETATM    5  C   UNL     1      -9.616  16.940  68.035  1.00  0.00    -0.247 C  
BRANCH   5   6
HETATM    6  C   UNL     1      -9.958  15.995  69.154  1.00  0.00    -0.246 C  
HETATM    7  C   UNL     1     -10.206  14.679  69.036  1.00  0.00    -0.222 C  
BRANCH   7   8
HETATM    8  C   UNL     1     -10.212  13.928  67.737  1.00  0.00    -0.237 C  
BRANCH   8   9
HETATM    9  C   UNL     1     -11.571  13.399  67.385  1.00  0.00    -0.394 C  
HETATM   10  C   UNL     1     -12.002  13.046  66.161  1.00  0.00    -0.488 C  
BRANCH  10  11
HETATM   11  C   UNL     1     -11.200  13.031  64.888  1.00  0.00    -0.329 C  
BRANCH  11  12
HETATM   12  C   UNL     1     -10.974  11.646  64.347  1.00  0.00    -0.399 C  
HETATM   13  C   UNL     1      -9.989  10.801  64.690  1.00  0.00    -0.386 C  
BRANCH  13  14
HETATM   14  C   UNL     1      -8.874  11.110  65.633  1.00  0.00    -0.165 C  
BRANCH  14  15
HETATM   15  C   UNL     1      -8.407   9.910  66.409  1.00  0.00    -0.125 C  
HETATM   16  C   UNL     1      -9.045   9.443  67.496  1.00  0.00    -0.136 C  
BRANCH  16  17
HETATM   17  C   UNL     1     -10.254  10.088  68.104  1.00  0.00    -0.205 C  
BRANCH  17  18
HETATM   18  C   UNL     1      -9.954  10.824  69.381  1.00  0.00    -0.137 C  
HETATM   19  C   UNL     1      -9.907  10.213  70.579  1.00  0.00     0.191 C  
BRANCH  19  20
HETATM   20  C   UNL     1     -10.140   8.733  70.721  1.00  0.00    -0.261 C  
BRANCH  20  21
HETATM   21  C   UNL     1      -9.046   7.978  71.466  1.00  0.00    -0.182 C  
HETATM   22  C   UNL     1      -9.555   7.609  72.843  1.00  0.00    -0.218 C  
HETATM   23  O   UNL     1      -8.559   7.446  73.748  1.00  0.00    -0.150 OA 
HETATM   24  O   UNL     1     -10.725   7.439  73.136  1.00  0.00    -0.323 OA 
ENDBRANCH  20  21
ENDBRANCH  19  20
ENDBRANCH  17  18
ENDBRANCH  16  17
ENDBRANCH  14  15
ENDBRANCH  13  14
ENDBRANCH  11  12
ENDBRANCH  10  11
ENDBRANCH   8   9
ENDBRANCH   7   8
ENDBRANCH   5   6
ENDBRANCH   4   5
ENDBRANCH   2   3
TORSDOF 13
ENDMDL
MODEL      375
REMARK 921   NORMALIZED FREE ENERGY PREDICTED BY IDOCK:   -3.06 KCAL/MOL
REMARK 922        TOTAL FREE ENERGY PREDICTED BY IDOCK:   -8.16 KCAL/MOL
REMARK 923 INTER-LIGAND FREE ENERGY PREDICTED BY IDOCK:   -5.57 KCAL/MOL
REMARK 924 INTRA-LIGAND FREE ENERGY PREDICTED BY IDOCK:   -2.59 KCAL/MOL
REMARK 927      BINDING AFFINITY PREDICTED BY RF-SCORE:    0.00 PKD
ROOT
HETATM    1  C   UNL     1      -8.711  16.293  66.053  1.00  0.00    -0.285 C  
HETATM    2  C   UNL     1     -10.159  16.593  66.406  1.00  0.00    -0.325 C  
ENDROOT
BRANCH   2   3
HETATM    3  C   UNL     1     -10.286  17.483  67.610  1.00  0.00    -0.343 C  
HETATM    4  C   UNL     1      -9.993  17.129  68.873  1.00  0.00    -0.304 C  
BRANCH   4   5
HETATM    5  C   UNL     1      -9.577  15.756  69.320  1.00  0.00    -0.270 C  
BRANCH   5   6
HETATM    6  C   UNL     1     -10.610  15.117  70.206  1.00  0.00    -0.195 C  
HETATM    7  C   UNL     1     -11.704  14.450  69.797  1.00  0.00    -0.361 C  
BRANCH   7   8
HETATM    8  C   UNL     1     -12.097  14.258  68.362  1.00  0.00    -0.297 C  
BRANCH   8   9
HETATM    9  C   UNL     1     -12.199  12.810  67.982  1.00  0.00     0.020 C  
HETATM   10  C   UNL     1     -11.864  12.267  66.799  1.00  0.00    -0.349 C  
BRANCH  10  11
HETATM   11  C   UNL     1     -11.244  12.970  65.622  1.00  0.00    -0.310 C  
BRANCH  11  12
HETATM   12  C   UNL     1     -11.626  12.362  64.300  1.00  0.00    -0.436 C  
HETATM   13  C   UNL     1     -10.866  11.563  63.535  1.00  0.00    -0.473 C  
BRANCH  13  14
HETATM   14  C   UNL     1      -9.451  11.182  63.820  1.00  0.00    -0.258 C  
BRANCH  14  15
HETATM   15  C   UNL     1      -9.331  10.063  64.816  1.00  0.00    -0.330 C  
HETATM   16  C   UNL     1      -8.763  10.210  66.025  1.00  0.00    -0.153 C  
BRANCH  16  17
HETATM   17  C   UNL     1      -8.126  11.479  66.506  1.00  0.00    -0.112 C  
BRANCH  17  18
HETATM   18  C   UNL     1      -6.631  11.489  66.352  1.00  0.00     0.042 C  
HETATM   19  C   UNL     1      -5.828  12.276  67.091  1.00  0.00    -0.111 C  
BRANCH  19  20
HETATM   20  C   UNL     1      -6.379  13.200  68.144  1.00  0.00    -0.106 C  
BRANCH  20  21
HETATM   21  C   UNL     1      -5.790  14.606  68.138  1.00  0.00    -0.138 C  
HETATM   22  C   UNL     1      -6.092  15.271  69.463  1.00  0.00    -0.125 C  
HETATM   23  O   UNL     1      -6.118  16.623  69.383  1.00  0.00    -0.173 OA 
HETATM   24  O   UNL     1      -6.270  14.686  70.517  1.00  0.00    -0.174 OA 
ENDBRANCH  20  21
ENDBRANCH  19  20
ENDBRANCH  17  18
ENDBRANCH  16  17
ENDBRANCH  14  15
ENDBRANCH  13  14
ENDBRANCH  11  12
ENDBRANCH  10  11
ENDBRANCH   8   9
ENDBRANCH   7   8
ENDBRANCH   5   6
ENDBRANCH   4   5
ENDBRANCH   2   3
TORSDOF 13
ENDMDL
MODEL      376
REMARK 921   NORMALIZED FREE ENERGY PREDICTED BY IDOCK:   -3.05 KCAL/MOL
REMARK 922        TOTAL FREE ENERGY PREDICTED BY IDOCK:   -8.15 KCAL/MOL
REMARK 923 INTER-LIGAND FREE ENERGY PREDICTED BY IDOCK:   -5.97 KCAL/MOL
REMARK 924 INTRA-LIGAND FREE ENERGY PREDICTED BY IDOCK:   -2.18 KCAL/MOL
REMARK 927      BINDING AFFINITY PREDICTED BY RF-SCORE:    0.00 PKD
ROOT
HETATM    1  C   UNL     1     -10.701   5.387  66.344  1.00  0.00    -0.284 C  
HETATM    2  C   UNL     1     -10.324   6.186  67.580  1.00  0.00    -0.250 C  
ENDROOT
BRANCH   2   3
HETATM    3  C   UNL     1     -10.021   5.310  68.763  1.00  0.00    -0.243 C  
HETATM    4  C   UNL     1     -10.613   5.395  69.966  1.00  0.00    -0.354 C  
BRANCH   4   5
HETATM    5  C   UNL     1     -11.615   6.439  70.373  1.00  0.00    -0.440 C  
BRANCH   5   6
HETATM    6  C   UNL     1     -11.066   7.832  70.226  1.00  0.00    -0.242 C  
HETATM    7  C   UNL     1     -10.618   8.619  71.219  1.00  0.00    -0.308 C  
BRANCH   7   8
HETATM    8  C   UNL     1     -10.622   8.241  72.671  1.00  0.00    -0.378 C  
BRANCH   8   9
HETATM    9  C   UNL     1      -9.595   7.197  72.997  1.00  0.00    -0.199 C  
HETATM   10  C   UNL     1      -8.280   7.253  72.724  1.00  0.00    -0.125 C  
BRANCH  10  11
HETATM   11  C   UNL     1      -7.532   8.401  72.102  1.00  0.00    -0.146 C  
BRANCH  11  12
HETATM   12  C   UNL     1      -6.780   8.015  70.858  1.00  0.00    -0.037 C  
HETATM   13  C   UNL     1      -6.940   8.534  69.631  1.00  0.00    -0.047 C  
BRANCH  13  14
HETATM   14  C   UNL     1      -7.961   9.553  69.249  1.00  0.00    -0.094 C  
BRANCH  14  15
HETATM   15  C   UNL     1      -8.580   9.293  67.904  1.00  0.00    -0.120 C  
HETATM   16  C   UNL     1      -9.648   9.966  67.441  1.00  0.00    -0.185 C  
BRANCH  16  17
HETATM   17  C   UNL     1     -10.389  11.008  68.225  1.00  0.00    -0.197 C  
BRANCH  17  18
HETATM   18  C   UNL     1     -11.634  11.495  67.536  1.00  0.00    -0.322 C  
HETATM   19  C   UNL     1     -11.897  12.801  67.347  1.00  0.00    -0.404 C  
BRANCH  19  20
HETATM   20  C   UNL     1     -10.946  13.874  67.805  1.00  0.00    -0.271 C  
BRANCH  20  21
HETATM   21  C   UNL     1     -10.051  14.448  66.715  1.00  0.00    -0.266 C  
HETATM   22  C   UNL     1     -10.070  15.959  66.809  1.00  0.00    -0.271 C  
HETATM   23  O   UNL     1      -9.788  16.566  65.631  1.00  0.00    -0.511 OA 
HETATM   24  O   UNL     1     -10.284  16.596  67.825  1.00  0.00    -0.273 OA 
ENDBRANCH  20  21
ENDBRANCH  19  20
ENDBRANCH  17  18
ENDBRANCH  16  17
ENDBRANCH  14  15
ENDBRANCH  13  14
ENDBRANCH  11  12
ENDBRANCH  10  11
ENDBRANCH   8   9
ENDBRANCH   7   8
ENDBRANCH   5   6
ENDBRANCH   4   5
ENDBRANCH   2   3
TORSDOF 13
ENDMDL
MODEL      377
REMARK 921   NORMALIZED FREE ENERGY PREDICTED BY IDOCK:   -3.05 KCAL/MOL
REMARK 922        TOTAL FREE ENERGY PREDICTED BY IDOCK:   -8.14 KCAL/MOL
REMARK 923 INTER-LIGAND FREE ENERGY PREDICTED BY IDOCK:   -7.10 KCAL/MOL
REMARK 924 INTRA-LIGAND FREE ENERGY PREDICTED BY IDOCK:   -1.04 KCAL/MOL
REMARK 927      BINDING AFFINITY PREDICTED BY RF-SCORE:    0.00 PKD
ROOT
HETATM    1  C   UNL     1      -9.753   5.933  73.991  1.00  0.00    -0.183 C  
HETATM    2  C   UNL     1     -10.576   5.068  73.050  1.00  0.00    -0.278 C  
ENDROOT
BRANCH   2   3
HETATM    3  C   UNL     1     -11.927   5.657  72.760  1.00  0.00    -0.088 C  
HETATM    4  C   UNL     1     -12.222   6.451  71.716  1.00  0.00    -0.312 C  
BRANCH   4   5
HETATM    5  C   UNL     1     -11.235   6.967  70.707  1.00  0.00    -0.323 C  
BRANCH   5   6
HETATM    6  C   UNL     1     -10.430   8.118  71.247  1.00  0.00    -0.254 C  
HETATM    7  C   UNL     1     -10.864   9.377  71.425  1.00  0.00    -0.430 C  
BRANCH   7   8
HETATM    8  C   UNL     1     -12.242   9.859  71.078  1.00  0.00    -0.446 C  
BRANCH   8   9
HETATM    9  C   UNL     1     -12.229  10.941  70.039  1.00  0.00    -0.422 C  
HETATM   10  C   UNL     1     -12.467  12.249  70.240  1.00  0.00    -0.159 C  
BRANCH  10  11
HETATM   11  C   UNL     1     -12.727  12.931  71.555  1.00  0.00    -0.339 C  
BRANCH  11  12
HETATM   12  C   UNL     1     -13.364  14.285  71.406  1.00  0.00    -0.411 C  
HETATM   13  C   UNL     1     -12.772  15.406  70.967  1.00  0.00    -0.510 C  
BRANCH  13  14
HETATM   14  C   UNL     1     -11.329  15.540  70.610  1.00  0.00    -0.367 C  
BRANCH  14  15
HETATM   15  C   UNL     1     -11.008  16.840  69.928  1.00  0.00    -0.063 C  
HETATM   16  C   UNL     1      -9.979  16.991  69.076  1.00  0.00    -0.269 C  
BRANCH  16  17
HETATM   17  C   UNL     1      -8.994  15.910  68.748  1.00  0.00    -0.216 C  
BRANCH  17  18
HETATM   18  C   UNL     1      -8.839  15.676  67.270  1.00  0.00    -0.215 C  
HETATM   19  C   UNL     1      -7.988  16.385  66.507  1.00  0.00    -0.342 C  
BRANCH  19  20
HETATM   20  C   UNL     1      -7.114  17.463  67.089  1.00  0.00    -0.203 C  
BRANCH  20  21
HETATM   21  C   UNL     1      -5.996  17.949  66.175  1.00  0.00    -0.248 C  
HETATM   22  C   UNL     1      -6.553  18.991  65.229  1.00  0.00    -0.235 C  
HETATM   23  O   UNL     1      -5.852  19.085  64.073  1.00  0.00    -0.401 OA 
HETATM   24  O   UNL     1      -7.511  19.707  65.460  1.00  0.00    -0.390 OA 
ENDBRANCH  20  21
ENDBRANCH  19  20
ENDBRANCH  17  18
ENDBRANCH  16  17
ENDBRANCH  14  15
ENDBRANCH  13  14
ENDBRANCH  11  12
ENDBRANCH  10  11
ENDBRANCH   8   9
ENDBRANCH   7   8
ENDBRANCH   5   6
ENDBRANCH   4   5
ENDBRANCH   2   3
TORSDOF 13
ENDMDL
MODEL      378
REMARK 921   NORMALIZED FREE ENERGY PREDICTED BY IDOCK:   -3.04 KCAL/MOL
REMARK 922        TOTAL FREE ENERGY PREDICTED BY IDOCK:   -8.13 KCAL/MOL
REMARK 923 INTER-LIGAND FREE ENERGY PREDICTED BY IDOCK:   -6.31 KCAL/MOL
REMARK 924 INTRA-LIGAND FREE ENERGY PREDICTED BY IDOCK:   -1.82 KCAL/MOL
REMARK 927      BINDING AFFINITY PREDICTED BY RF-SCORE:    0.00 PKD
ROOT
HETATM    1  C   UNL     1     -10.517   6.554  71.192  1.00  0.00    -0.257 C  
HETATM    2  C   UNL     1     -10.780   5.612  70.029  1.00  0.00    -0.390 C  
ENDROOT
BRANCH   2   3
HETATM    3  C   UNL     1     -11.349   6.319  68.832  1.00  0.00    -0.269 C  
HETATM    4  C   UNL     1     -10.837   6.281  67.590  1.00  0.00    -0.433 C  
BRANCH   4   5
HETATM    5  C   UNL     1      -9.555   5.605  67.195  1.00  0.00    -0.137 C  
BRANCH   5   6
HETATM    6  C   UNL     1      -9.611   5.070  65.790  1.00  0.00    -0.162 C  
HETATM    7  C   UNL     1      -8.873   5.493  64.749  1.00  0.00     0.017 C  
BRANCH   7   8
HETATM    8  C   UNL     1      -7.874   6.611  64.812  1.00  0.00    -0.115 C  
BRANCH   8   9
HETATM    9  C   UNL     1      -7.838   7.422  63.550  1.00  0.00    -0.111 C  
HETATM   10  C   UNL     1      -8.327   8.662  63.380  1.00  0.00    -0.131 C  
BRANCH  10  11
HETATM   11  C   UNL     1      -8.952   9.542  64.429  1.00  0.00    -0.255 C  
BRANCH  11  12
HETATM   12  C   UNL     1      -9.546  10.804  63.867  1.00  0.00    -0.339 C  
HETATM   13  C   UNL     1     -10.331  11.679  64.515  1.00  0.00    -0.349 C  
BRANCH  13  14
HETATM   14  C   UNL     1     -10.830  11.523  65.914  1.00  0.00    -0.316 C  
BRANCH  14  15
HETATM   15  C   UNL     1      -9.737  11.611  66.942  1.00  0.00    -0.211 C  
HETATM   16  C   UNL     1      -9.788  10.978  68.127  1.00  0.00    -0.185 C  
BRANCH  16  17
HETATM   17  C   UNL     1     -10.956  10.163  68.596  1.00  0.00    -0.273 C  
BRANCH  17  18
HETATM   18  C   UNL     1     -11.162  10.223  70.084  1.00  0.00    -0.387 C  
HETATM   19  C   UNL     1     -11.876  11.194  70.681  1.00  0.00    -0.403 C  
BRANCH  19  20
HETATM   20  C   UNL     1     -12.535  12.292  69.889  1.00  0.00     0.017 C  
BRANCH  20  21
HETATM   21  C   UNL     1     -12.008  13.694  70.170  1.00  0.00    -0.407 C  
HETATM   22  C   UNL     1     -12.904  14.361  71.190  1.00  0.00    -0.347 C  
HETATM   23  O   UNL     1     -12.881  15.713  71.111  1.00  0.00    -0.462 OA 
HETATM   24  O   UNL     1     -13.569  13.777  72.028  1.00  0.00    -0.401 OA 
ENDBRANCH  20  21
ENDBRANCH  19  20
ENDBRANCH  17  18
ENDBRANCH  16  17
ENDBRANCH  14  15
ENDBRANCH  13  14
ENDBRANCH  11  12
ENDBRANCH  10  11
ENDBRANCH   8   9
ENDBRANCH   7   8
ENDBRANCH   5   6
ENDBRANCH   4   5
ENDBRANCH   2   3
TORSDOF 13
ENDMDL
MODEL      379
REMARK 921   NORMALIZED FREE ENERGY PREDICTED BY IDOCK:   -3.04 KCAL/MOL
REMARK 922        TOTAL FREE ENERGY PREDICTED BY IDOCK:   -8.12 KCAL/MOL
REMARK 923 INTER-LIGAND FREE ENERGY PREDICTED BY IDOCK:   -6.16 KCAL/MOL
REMARK 924 INTRA-LIGAND FREE ENERGY PREDICTED BY IDOCK:   -1.96 KCAL/MOL
REMARK 927      BINDING AFFINITY PREDICTED BY RF-SCORE:    0.00 PKD
ROOT
HETATM    1  C   UNL     1     -10.948  15.210  65.753  1.00  0.00    -0.350 C  
HETATM    2  C   UNL     1     -10.032  14.073  66.175  1.00  0.00    -0.325 C  
ENDROOT
BRANCH   2   3
HETATM    3  C   UNL     1     -10.498  12.738  65.666  1.00  0.00    -0.297 C  
HETATM    4  C   UNL     1     -10.733  11.654  66.425  1.00  0.00    -0.316 C  
BRANCH   4   5
HETATM    5  C   UNL     1     -10.485  11.555  67.904  1.00  0.00    -0.211 C  
BRANCH   5   6
HETATM    6  C   UNL     1     -11.090  10.310  68.493  1.00  0.00    -0.294 C  
HETATM    7  C   UNL     1     -10.555   9.077  68.465  1.00  0.00    -0.196 C  
BRANCH   7   8
HETATM    8  C   UNL     1      -9.256   8.728  67.802  1.00  0.00    -0.146 C  
BRANCH   8   9
HETATM    9  C   UNL     1      -9.444   7.877  66.580  1.00  0.00    -0.277 C  
HETATM   10  C   UNL     1      -9.439   6.535  66.529  1.00  0.00    -0.190 C  
BRANCH  10  11
HETATM   11  C   UNL     1      -9.321   5.584  67.690  1.00  0.00    -0.116 C  
BRANCH  11  12
HETATM   12  C   UNL     1      -9.783   4.190  67.365  1.00  0.00    -0.202 C  
HETATM   13  C   UNL     1      -9.507   3.072  68.055  1.00  0.00    -0.217 C  
BRANCH  13  14
HETATM   14  C   UNL     1      -8.616   2.991  69.250  1.00  0.00    -0.113 C  
BRANCH  14  15
HETATM   15  C   UNL     1      -9.246   2.269  70.408  1.00  0.00    -0.189 C  
HETATM   16  C   UNL     1      -9.658   2.888  71.527  1.00  0.00    -0.225 C  
BRANCH  16  17
HETATM   17  C   UNL     1      -9.486   4.355  71.788  1.00  0.00    -0.206 C  
BRANCH  17  18
HETATM   18  C   UNL     1     -10.462   4.897  72.796  1.00  0.00    -0.257 C  
HETATM   19  C   UNL     1     -11.290   5.923  72.527  1.00  0.00    -0.352 C  
BRANCH  19  20
HETATM   20  C   UNL     1     -11.304   6.596  71.181  1.00  0.00    -0.355 C  
BRANCH  20  21
HETATM   21  C   UNL     1     -12.606   7.306  70.830  1.00  0.00    -0.237 C  
HETATM   22  C   UNL     1     -12.688   8.597  71.615  1.00  0.00    -0.341 C  
HETATM   23  O   UNL     1     -13.961   9.016  71.812  1.00  0.00    -0.392 OA 
HETATM   24  O   UNL     1     -11.732   9.235  72.017  1.00  0.00    -0.356 OA 
ENDBRANCH  20  21
ENDBRANCH  19  20
ENDBRANCH  17  18
ENDBRANCH  16  17
ENDBRANCH  14  15
ENDBRANCH  13  14
ENDBRANCH  11  12
ENDBRANCH  10  11
ENDBRANCH   8   9
ENDBRANCH   7   8
ENDBRANCH   5   6
ENDBRANCH   4   5
ENDBRANCH   2   3
TORSDOF 13
ENDMDL
MODEL      380
REMARK 921   NORMALIZED FREE ENERGY PREDICTED BY IDOCK:   -3.03 KCAL/MOL
REMARK 922        TOTAL FREE ENERGY PREDICTED BY IDOCK:   -8.10 KCAL/MOL
REMARK 923 INTER-LIGAND FREE ENERGY PREDICTED BY IDOCK:   -5.90 KCAL/MOL
REMARK 924 INTRA-LIGAND FREE ENERGY PREDICTED BY IDOCK:   -2.20 KCAL/MOL
REMARK 927      BINDING AFFINITY PREDICTED BY RF-SCORE:    0.00 PKD
ROOT
HETATM    1  C   UNL     1      -8.211   4.547  68.768  1.00  0.00    -0.082 C  
HETATM    2  C   UNL     1      -8.340   5.509  69.937  1.00  0.00    -0.105 C  
ENDROOT
BRANCH   2   3
HETATM    3  C   UNL     1      -9.497   5.173  70.835  1.00  0.00    -0.223 C  
HETATM    4  C   UNL     1     -10.763   5.593  70.663  1.00  0.00    -0.333 C  
BRANCH   4   5
HETATM    5  C   UNL     1     -11.229   6.546  69.599  1.00  0.00    -0.446 C  
BRANCH   5   6
HETATM    6  C   UNL     1     -10.870   7.970  69.924  1.00  0.00    -0.217 C  
HETATM    7  C   UNL     1     -10.155   8.805  69.149  1.00  0.00    -0.203 C  
BRANCH   7   8
HETATM    8  C   UNL     1      -9.561   8.437  67.822  1.00  0.00    -0.185 C  
BRANCH   8   9
HETATM    9  C   UNL     1     -10.380   8.932  66.667  1.00  0.00    -0.294 C  
HETATM   10  C   UNL     1     -10.030   9.884  65.786  1.00  0.00    -0.347 C  
BRANCH  10  11
HETATM   11  C   UNL     1      -8.715  10.611  65.712  1.00  0.00    -0.192 C  
BRANCH  11  12
HETATM   12  C   UNL     1      -8.336  11.284  67.003  1.00  0.00    -0.153 C  
HETATM   13  C   UNL     1      -8.998  12.280  67.612  1.00  0.00    -0.181 C  
BRANCH  13  14
HETATM   14  C   UNL     1     -10.211  12.967  67.078  1.00  0.00    -0.245 C  
BRANCH  14  15
HETATM   15  C   UNL     1     -11.457  12.656  67.858  1.00  0.00    -0.360 C  
HETATM   16  C   UNL     1     -11.918  13.434  68.853  1.00  0.00    -0.362 C  
BRANCH  16  17
HETATM   17  C   UNL     1     -11.221  14.666  69.348  1.00  0.00    -0.307 C  
BRANCH  17  18
HETATM   18  C   UNL     1     -11.605  15.909  68.594  1.00  0.00    -0.383 C  
HETATM   19  C   UNL     1     -10.728  16.889  68.312  1.00  0.00    -0.377 C  
BRANCH  19  20
HETATM   20  C   UNL     1      -9.284  16.801  68.726  1.00  0.00    -0.260 C  
BRANCH  20  21
HETATM   21  C   UNL     1      -8.327  16.348  67.631  1.00  0.00    -0.176 C  
HETATM   22  C   UNL     1      -7.208  15.543  68.257  1.00  0.00    -0.116 C  
HETATM   23  O   UNL     1      -6.069  15.561  67.524  1.00  0.00    -0.204 OA 
HETATM   24  O   UNL     1      -7.295  14.911  69.294  1.00  0.00    -0.152 OA 
ENDBRANCH  20  21
ENDBRANCH  19  20
ENDBRANCH  17  18
ENDBRANCH  16  17
ENDBRANCH  14  15
ENDBRANCH  13  14
ENDBRANCH  11  12
ENDBRANCH  10  11
ENDBRANCH   8   9
ENDBRANCH   7   8
ENDBRANCH   5   6
ENDBRANCH   4   5
ENDBRANCH   2   3
TORSDOF 13
ENDMDL
MODEL      381
REMARK 921   NORMALIZED FREE ENERGY PREDICTED BY IDOCK:   -3.02 KCAL/MOL
REMARK 922        TOTAL FREE ENERGY PREDICTED BY IDOCK:   -8.10 KCAL/MOL
REMARK 923 INTER-LIGAND FREE ENERGY PREDICTED BY IDOCK:   -5.90 KCAL/MOL
REMARK 924 INTRA-LIGAND FREE ENERGY PREDICTED BY IDOCK:   -2.20 KCAL/MOL
REMARK 927      BINDING AFFINITY PREDICTED BY RF-SCORE:    0.00 PKD
ROOT
HETATM    1  C   UNL     1     -11.248  16.236  68.627  1.00  0.00    -0.354 C  
HETATM    2  C   UNL     1     -11.393  16.100  70.134  1.00  0.00    -0.347 C  
ENDROOT
BRANCH   2   3
HETATM    3  C   UNL     1     -12.743  15.580  70.539  1.00  0.00    -0.436 C  
HETATM    4  C   UNL     1     -13.033  14.296  70.812  1.00  0.00    -0.368 C  
BRANCH   4   5
HETATM    5  C   UNL     1     -12.085  13.139  70.672  1.00  0.00    -0.346 C  
BRANCH   5   6
HETATM    6  C   UNL     1     -12.682  11.858  71.187  1.00  0.00    -0.384 C  
HETATM    7  C   UNL     1     -12.338  10.614  70.811  1.00  0.00    -0.472 C  
BRANCH   7   8
HETATM    8  C   UNL     1     -11.304  10.294  69.771  1.00  0.00    -0.334 C  
BRANCH   8   9
HETATM    9  C   UNL     1     -11.755  10.646  68.384  1.00  0.00    -0.168 C  
HETATM   10  C   UNL     1     -11.024  10.567  67.259  1.00  0.00    -0.325 C  
BRANCH  10  11
HETATM   11  C   UNL     1      -9.620  10.040  67.126  1.00  0.00    -0.202 C  
BRANCH  11  12
HETATM   12  C   UNL     1      -8.643  11.073  66.636  1.00  0.00    -0.157 C  
HETATM   13  C   UNL     1      -7.745  11.742  67.376  1.00  0.00    -0.151 C  
BRANCH  13  14
HETATM   14  C   UNL     1      -7.597  11.641  68.858  1.00  0.00    -0.087 C  
BRANCH  14  15
HETATM   15  C   UNL     1      -6.186  11.354  69.291  1.00  0.00    -0.073 C  
HETATM   16  C   UNL     1      -5.840  10.263  69.997  1.00  0.00    -0.057 C  
BRANCH  16  17
HETATM   17  C   UNL     1      -6.815   9.237  70.491  1.00  0.00    -0.087 C  
BRANCH  17  18
HETATM   18  C   UNL     1      -6.803   7.970  69.681  1.00  0.00    -0.042 C  
HETATM   19  C   UNL     1      -7.917   7.263  69.420  1.00  0.00    -0.125 C  
BRANCH  19  20
HETATM   20  C   UNL     1      -9.268   7.705  69.915  1.00  0.00    -0.147 C  
BRANCH  20  21
HETATM   21  C   UNL     1      -9.803   6.925  71.109  1.00  0.00    -0.184 C  
HETATM   22  C   UNL     1     -11.236   6.524  70.833  1.00  0.00    -0.311 C  
HETATM   23  O   UNL     1     -11.959   6.333  71.962  1.00  0.00    -0.330 OA 
HETATM   24  O   UNL     1     -11.716   6.354  69.726  1.00  0.00    -0.414 OA 
ENDBRANCH  20  21
ENDBRANCH  19  20
ENDBRANCH  17  18
ENDBRANCH  16  17
ENDBRANCH  14  15
ENDBRANCH  13  14
ENDBRANCH  11  12
ENDBRANCH  10  11
ENDBRANCH   8   9
ENDBRANCH   7   8
ENDBRANCH   5   6
ENDBRANCH   4   5
ENDBRANCH   2   3
TORSDOF 13
ENDMDL
MODEL      382
REMARK 921   NORMALIZED FREE ENERGY PREDICTED BY IDOCK:   -3.02 KCAL/MOL
REMARK 922        TOTAL FREE ENERGY PREDICTED BY IDOCK:   -8.10 KCAL/MOL
REMARK 923 INTER-LIGAND FREE ENERGY PREDICTED BY IDOCK:   -5.58 KCAL/MOL
REMARK 924 INTRA-LIGAND FREE ENERGY PREDICTED BY IDOCK:   -2.51 KCAL/MOL
REMARK 927      BINDING AFFINITY PREDICTED BY RF-SCORE:    0.00 PKD
ROOT
HETATM    1  C   UNL     1     -10.284   6.516  74.230  1.00  0.00    -0.373 C  
HETATM    2  C   UNL     1      -9.867   5.843  72.933  1.00  0.00    -0.179 C  
ENDROOT
BRANCH   2   3
HETATM    3  C   UNL     1     -10.872   6.037  71.834  1.00  0.00    -0.304 C  
HETATM    4  C   UNL     1     -10.582   6.172  70.528  1.00  0.00    -0.312 C  
BRANCH   4   5
HETATM    5  C   UNL     1      -9.199   6.248  69.946  1.00  0.00    -0.155 C  
BRANCH   5   6
HETATM    6  C   UNL     1      -8.471   7.488  70.388  1.00  0.00    -0.141 C  
HETATM    7  C   UNL     1      -8.903   8.754  70.251  1.00  0.00    -0.171 C  
BRANCH   7   8
HETATM    8  C   UNL     1     -10.193   9.147  69.594  1.00  0.00    -0.211 C  
BRANCH   8   9
HETATM    9  C   UNL     1     -11.117   9.873  70.527  1.00  0.00    -0.398 C  
HETATM   10  C   UNL     1     -11.844  10.967  70.244  1.00  0.00    -0.456 C  
BRANCH  10  11
HETATM   11  C   UNL     1     -11.955  11.663  68.915  1.00  0.00    -0.355 C  
BRANCH  11  12
HETATM   12  C   UNL     1     -11.573  13.117  68.973  1.00  0.00    -0.360 C  
HETATM   13  C   UNL     1     -10.585  13.715  68.289  1.00  0.00    -0.261 C  
BRANCH  13  14
HETATM   14  C   UNL     1      -9.617  13.025  67.386  1.00  0.00    -0.211 C  
BRANCH  14  15
HETATM   15  C   UNL     1      -8.413  12.490  68.110  1.00  0.00    -0.180 C  
HETATM   16  C   UNL     1      -7.634  11.510  67.621  1.00  0.00    -0.115 C  
BRANCH  16  17
HETATM   17  C   UNL     1      -7.900  10.789  66.334  1.00  0.00    -0.148 C  
BRANCH  17  18
HETATM   18  C   UNL     1      -6.876   9.731  66.024  1.00  0.00    -0.094 C  
HETATM   19  C   UNL     1      -7.132   8.415  66.140  1.00  0.00    -0.076 C  
BRANCH  19  20
HETATM   20  C   UNL     1      -8.479   7.907  66.578  1.00  0.00    -0.134 C  
BRANCH  20  21
HETATM   21  C   UNL     1      -8.796   6.477  66.159  1.00  0.00    -0.160 C  
HETATM   22  C   UNL     1     -10.181   6.116  66.650  1.00  0.00    -0.178 C  
HETATM   23  O   UNL     1     -10.349   4.783  66.826  1.00  0.00    -0.231 OA 
HETATM   24  O   UNL     1     -11.083   6.909  66.850  1.00  0.00    -0.379 OA 
ENDBRANCH  20  21
ENDBRANCH  19  20
ENDBRANCH  17  18
ENDBRANCH  16  17
ENDBRANCH  14  15
ENDBRANCH  13  14
ENDBRANCH  11  12
ENDBRANCH  10  11
ENDBRANCH   8   9
ENDBRANCH   7   8
ENDBRANCH   5   6
ENDBRANCH   4   5
ENDBRANCH   2   3
TORSDOF 13
ENDMDL
MODEL      383
REMARK 921   NORMALIZED FREE ENERGY PREDICTED BY IDOCK:   -3.02 KCAL/MOL
REMARK 922        TOTAL FREE ENERGY PREDICTED BY IDOCK:   -8.08 KCAL/MOL
REMARK 923 INTER-LIGAND FREE ENERGY PREDICTED BY IDOCK:   -5.95 KCAL/MOL
REMARK 924 INTRA-LIGAND FREE ENERGY PREDICTED BY IDOCK:   -2.13 KCAL/MOL
REMARK 927      BINDING AFFINITY PREDICTED BY RF-SCORE:    0.00 PKD
ROOT
HETATM    1  C   UNL     1      -8.669   3.908  70.123  1.00  0.00    -0.120 C  
HETATM    2  C   UNL     1      -9.478   3.160  69.076  1.00  0.00    -0.177 C  
ENDROOT
BRANCH   2   3
HETATM    3  C   UNL     1      -8.731   1.992  68.497  1.00  0.00    -0.118 C  
HETATM    4  C   UNL     1      -7.779   2.068  67.552  1.00  0.00    -0.060 C  
BRANCH   4   5
HETATM    5  C   UNL     1      -7.356   3.321  66.839  1.00  0.00    -0.070 C  
BRANCH   5   6
HETATM    6  C   UNL     1      -8.169   3.562  65.597  1.00  0.00    -0.097 C  
HETATM    7  C   UNL     1      -8.772   4.714  65.253  1.00  0.00    -0.137 C  
BRANCH   7   8
HETATM    8  C   UNL     1      -8.759   5.962  66.084  1.00  0.00    -0.141 C  
BRANCH   8   9
HETATM    9  C   UNL     1      -9.953   6.065  66.987  1.00  0.00    -0.197 C  
HETATM   10  C   UNL     1     -10.680   7.168  67.232  1.00  0.00    -0.399 C  
BRANCH  10  11
HETATM   11  C   UNL     1     -10.510   8.524  66.602  1.00  0.00    -0.235 C  
BRANCH  11  12
HETATM   12  C   UNL     1     -10.888   9.656  67.518  1.00  0.00    -0.265 C  
HETATM   13  C   UNL     1     -10.445  10.921  67.456  1.00  0.00    -0.252 C  
BRANCH  13  14
HETATM   14  C   UNL     1      -9.422  11.433  66.498  1.00  0.00    -0.218 C  
BRANCH  14  15
HETATM   15  C   UNL     1      -8.323  12.210  67.168  1.00  0.00    -0.183 C  
HETATM   16  C   UNL     1      -8.329  13.550  67.276  1.00  0.00    -0.188 C  
BRANCH  16  17
HETATM   17  C   UNL     1      -9.389  14.436  66.693  1.00  0.00    -0.297 C  
BRANCH  17  18
HETATM   18  C   UNL     1     -10.594  14.581  67.581  1.00  0.00    -0.251 C  
HETATM   19  C   UNL     1     -11.849  14.651  67.099  1.00  0.00    -0.367 C  
BRANCH  19  20
HETATM   20  C   UNL     1     -12.134  14.573  65.623  1.00  0.00    -0.295 C  
BRANCH  20  21
HETATM   21  C   UNL     1     -12.802  13.283  65.164  1.00  0.00    -0.376 C  
HETATM   22  C   UNL     1     -12.098  12.780  63.922  1.00  0.00    -0.486 C  
HETATM   23  O   UNL     1     -12.891  12.007  63.141  1.00  0.00    -0.661 OA 
HETATM   24  O   UNL     1     -10.936  13.004  63.636  1.00  0.00    -0.359 OA 
ENDBRANCH  20  21
ENDBRANCH  19  20
ENDBRANCH  17  18
ENDBRANCH  16  17
ENDBRANCH  14  15
ENDBRANCH  13  14
ENDBRANCH  11  12
ENDBRANCH  10  11
ENDBRANCH   8   9
ENDBRANCH   7   8
ENDBRANCH   5   6
ENDBRANCH   4   5
ENDBRANCH   2   3
TORSDOF 13
ENDMDL
MODEL      384
REMARK 921   NORMALIZED FREE ENERGY PREDICTED BY IDOCK:   -3.01 KCAL/MOL
REMARK 922        TOTAL FREE ENERGY PREDICTED BY IDOCK:   -8.07 KCAL/MOL
REMARK 923 INTER-LIGAND FREE ENERGY PREDICTED BY IDOCK:   -4.70 KCAL/MOL
REMARK 924 INTRA-LIGAND FREE ENERGY PREDICTED BY IDOCK:   -3.37 KCAL/MOL
REMARK 927      BINDING AFFINITY PREDICTED BY RF-SCORE:    0.00 PKD
ROOT
HETATM    1  C   UNL     1     -11.054  13.724  64.094  1.00  0.00    -0.192 C  
HETATM    2  C   UNL     1     -11.521  12.292  63.894  1.00  0.00    -0.512 C  
ENDROOT
BRANCH   2   3
HETATM    3  C   UNL     1     -11.528  11.504  65.173  1.00  0.00    -0.090 C  
HETATM    4  C   UNL     1     -10.481  10.828  65.677  1.00  0.00    -0.255 C  
BRANCH   4   5
HETATM    5  C   UNL     1      -9.146  10.663  65.007  1.00  0.00    -0.229 C  
BRANCH   5   6
HETATM    6  C   UNL     1      -8.367   9.513  65.584  1.00  0.00    -0.131 C  
HETATM    7  C   UNL     1      -7.307   9.604  66.407  1.00  0.00    -0.094 C  
BRANCH   7   8
HETATM    8  C   UNL     1      -6.696  10.895  66.867  1.00  0.00    -0.106 C  
BRANCH   8   9
HETATM    9  C   UNL     1      -7.016  11.204  68.300  1.00  0.00    -0.070 C  
HETATM   10  C   UNL     1      -7.256  12.417  68.825  1.00  0.00    -0.094 C  
BRANCH  10  11
HETATM   11  C   UNL     1      -7.334  13.725  68.084  1.00  0.00    -0.124 C  
BRANCH  11  12
HETATM   12  C   UNL     1      -8.515  13.813  67.157  1.00  0.00    -0.189 C  
HETATM   13  C   UNL     1      -9.811  13.813  67.507  1.00  0.00    -0.230 C  
BRANCH  13  14
HETATM   14  C   UNL     1     -10.332  13.648  68.896  1.00  0.00    -0.127 C  
BRANCH  14  15
HETATM   15  C   UNL     1     -11.569  12.796  68.965  1.00  0.00    -0.366 C  
HETATM   16  C   UNL     1     -11.539  11.471  69.189  1.00  0.00    -0.382 C  
BRANCH  16  17
HETATM   17  C   UNL     1     -10.279  10.671  69.333  1.00  0.00    -0.218 C  
BRANCH  17  18
HETATM   18  C   UNL     1     -10.425   9.246  68.874  1.00  0.00    -0.235 C  
HETATM   19  C   UNL     1     -10.058   8.197  69.630  1.00  0.00    -0.199 C  
BRANCH  19  20
HETATM   20  C   UNL     1      -9.482   8.379  71.009  1.00  0.00    -0.212 C  
BRANCH  20  21
HETATM   21  C   UNL     1      -8.025   7.957  71.160  1.00  0.00    -0.091 C  
HETATM   22  C   UNL     1      -7.509   8.440  72.498  1.00  0.00    -0.077 C  
HETATM   23  O   UNL     1      -6.166   8.614  72.515  1.00  0.00    -0.077 OA 
HETATM   24  O   UNL     1      -8.196   8.636  73.485  1.00  0.00    -0.404 OA 
ENDBRANCH  20  21
ENDBRANCH  19  20
ENDBRANCH  17  18
ENDBRANCH  16  17
ENDBRANCH  14  15
ENDBRANCH  13  14
ENDBRANCH  11  12
ENDBRANCH  10  11
ENDBRANCH   8   9
ENDBRANCH   7   8
ENDBRANCH   5   6
ENDBRANCH   4   5
ENDBRANCH   2   3
TORSDOF 13
ENDMDL
MODEL      385
REMARK 921   NORMALIZED FREE ENERGY PREDICTED BY IDOCK:   -3.01 KCAL/MOL
REMARK 922        TOTAL FREE ENERGY PREDICTED BY IDOCK:   -8.07 KCAL/MOL
REMARK 923 INTER-LIGAND FREE ENERGY PREDICTED BY IDOCK:   -6.17 KCAL/MOL
REMARK 924 INTRA-LIGAND FREE ENERGY PREDICTED BY IDOCK:   -1.90 KCAL/MOL
REMARK 927      BINDING AFFINITY PREDICTED BY RF-SCORE:    0.00 PKD
ROOT
HETATM    1  C   UNL     1      -9.233   8.875  66.189  1.00  0.00    -0.273 C  
HETATM    2  C   UNL     1      -9.861   8.170  67.380  1.00  0.00    -0.242 C  
ENDROOT
BRANCH   2   3
HETATM    3  C   UNL     1     -10.539   6.885  66.997  1.00  0.00    -0.403 C  
HETATM    4  C   UNL     1     -11.083   6.007  67.857  1.00  0.00    -0.220 C  
BRANCH   4   5
HETATM    5  C   UNL     1     -11.029   6.105  69.356  1.00  0.00    -0.454 C  
BRANCH   5   6
HETATM    6  C   UNL     1     -10.232   4.984  69.964  1.00  0.00    -0.339 C  
HETATM    7  C   UNL     1      -8.947   5.043  70.354  1.00  0.00    -0.159 C  
BRANCH   7   8
HETATM    8  C   UNL     1      -8.070   6.253  70.214  1.00  0.00    -0.116 C  
BRANCH   8   9
HETATM    9  C   UNL     1      -7.907   6.998  71.506  1.00  0.00    -0.098 C  
HETATM   10  C   UNL     1      -8.077   8.318  71.697  1.00  0.00    -0.167 C  
BRANCH  10  11
HETATM   11  C   UNL     1      -8.539   9.328  70.682  1.00  0.00    -0.270 C  
BRANCH  11  12
HETATM   12  C   UNL     1      -7.405  10.049  70.004  1.00  0.00    -0.172 C  
HETATM   13  C   UNL     1      -7.508  11.004  69.067  1.00  0.00    -0.129 C  
BRANCH  13  14
HETATM   14  C   UNL     1      -8.784  11.485  68.459  1.00  0.00    -0.138 C  
BRANCH  14  15
HETATM   15  C   UNL     1      -8.625  11.932  67.032  1.00  0.00    -0.176 C  
HETATM   16  C   UNL     1      -9.414  12.856  66.457  1.00  0.00    -0.251 C  
BRANCH  16  17
HETATM   17  C   UNL     1     -10.581  13.506  67.139  1.00  0.00    -0.264 C  
BRANCH  17  18
HETATM   18  C   UNL     1     -11.661  12.533  67.524  1.00  0.00    -0.424 C  
HETATM   19  C   UNL     1     -12.028  12.322  68.801  1.00  0.00    -0.281 C  
BRANCH  19  20
HETATM   20  C   UNL     1     -11.384  13.063  69.942  1.00  0.00    -0.037 C  
BRANCH  20  21
HETATM   21  C   UNL     1     -12.202  14.222  70.499  1.00  0.00    -0.427 C  
HETATM   22  C   UNL     1     -11.285  15.404  70.729  1.00  0.00    -0.346 C  
HETATM   23  O   UNL     1     -11.742  16.250  71.684  1.00  0.00    -0.480 OA 
HETATM   24  O   UNL     1     -10.253  15.620  70.120  1.00  0.00    -0.302 OA 
ENDBRANCH  20  21
ENDBRANCH  19  20
ENDBRANCH  17  18
ENDBRANCH  16  17
ENDBRANCH  14  15
ENDBRANCH  13  14
ENDBRANCH  11  12
ENDBRANCH  10  11
ENDBRANCH   8   9
ENDBRANCH   7   8
ENDBRANCH   5   6
ENDBRANCH   4   5
ENDBRANCH   2   3
TORSDOF 13
ENDMDL
MODEL      386
REMARK 921   NORMALIZED FREE ENERGY PREDICTED BY IDOCK:   -2.99 KCAL/MOL
REMARK 922        TOTAL FREE ENERGY PREDICTED BY IDOCK:   -8.04 KCAL/MOL
REMARK 923 INTER-LIGAND FREE ENERGY PREDICTED BY IDOCK:   -5.90 KCAL/MOL
REMARK 924 INTRA-LIGAND FREE ENERGY PREDICTED BY IDOCK:   -2.14 KCAL/MOL
REMARK 927      BINDING AFFINITY PREDICTED BY RF-SCORE:    0.00 PKD
ROOT
HETATM    1  C   UNL     1      -7.636   8.304  69.064  1.00  0.00    -0.089 C  
HETATM    2  C   UNL     1      -7.123   8.207  67.637  1.00  0.00    -0.087 C  
ENDROOT
BRANCH   2   3
HETATM    3  C   UNL     1      -5.993   9.158  67.365  1.00  0.00    -0.050 C  
HETATM    4  C   UNL     1      -6.065  10.249  66.583  1.00  0.00    -0.064 C  
BRANCH   4   5
HETATM    5  C   UNL     1      -7.259  10.661  65.768  1.00  0.00    -0.104 C  
BRANCH   5   6
HETATM    6  C   UNL     1      -7.252  10.029  64.403  1.00  0.00    -0.134 C  
HETATM    7  C   UNL     1      -8.224  10.123  63.479  1.00  0.00    -0.165 C  
BRANCH   7   8
HETATM    8  C   UNL     1      -9.516  10.861  63.675  1.00  0.00    -0.315 C  
BRANCH   8   9
HETATM    9  C   UNL     1     -10.280  10.377  64.872  1.00  0.00    -0.330 C  
HETATM   10  C   UNL     1     -11.033  11.123  65.699  1.00  0.00    -0.149 C  
BRANCH  10  11
HETATM   11  C   UNL     1     -11.339  12.590  65.568  1.00  0.00    -0.368 C  
BRANCH  11  12
HETATM   12  C   UNL     1     -10.238  13.474  66.086  1.00  0.00    -0.303 C  
HETATM   13  C   UNL     1      -9.860  13.620  67.365  1.00  0.00    -0.234 C  
BRANCH  13  14
HETATM   14  C   UNL     1     -10.521  12.979  68.540  1.00  0.00    -0.261 C  
BRANCH  14  15
HETATM   15  C   UNL     1      -9.974  11.614  68.853  1.00  0.00    -0.083 C  
HETATM   16  C   UNL     1     -10.735  10.599  69.297  1.00  0.00    -0.275 C  
BRANCH  16  17
HETATM   17  C   UNL     1     -12.200  10.715  69.593  1.00  0.00    -0.277 C  
BRANCH  17  18
HETATM   18  C   UNL     1     -12.528  10.526  71.049  1.00  0.00    -0.501 C  
HETATM   19  C   UNL     1     -12.997  11.520  71.824  1.00  0.00    -0.500 C  
BRANCH  19  20
HETATM   20  C   UNL     1     -13.242  12.901  71.277  1.00  0.00    -0.160 C  
BRANCH  20  21
HETATM   21  C   UNL     1     -12.419  14.006  71.927  1.00  0.00    -0.293 C  
HETATM   22  C   UNL     1     -12.650  15.298  71.174  1.00  0.00    -0.393 C  
HETATM   23  O   UNL     1     -11.618  16.169  71.289  1.00  0.00    -0.426 OA 
HETATM   24  O   UNL     1     -13.656  15.573  70.545  1.00  0.00    -0.335 OA 
ENDBRANCH  20  21
ENDBRANCH  19  20
ENDBRANCH  17  18
ENDBRANCH  16  17
ENDBRANCH  14  15
ENDBRANCH  13  14
ENDBRANCH  11  12
ENDBRANCH  10  11
ENDBRANCH   8   9
ENDBRANCH   7   8
ENDBRANCH   5   6
ENDBRANCH   4   5
ENDBRANCH   2   3
TORSDOF 13
ENDMDL
MODEL      387
REMARK 921   NORMALIZED FREE ENERGY PREDICTED BY IDOCK:   -2.98 KCAL/MOL
REMARK 922        TOTAL FREE ENERGY PREDICTED BY IDOCK:   -8.03 KCAL/MOL
REMARK 923 INTER-LIGAND FREE ENERGY PREDICTED BY IDOCK:   -4.99 KCAL/MOL
REMARK 924 INTRA-LIGAND FREE ENERGY PREDICTED BY IDOCK:   -3.04 KCAL/MOL
REMARK 927      BINDING AFFINITY PREDICTED BY RF-SCORE:    0.00 PKD
ROOT
HETATM    1  C   UNL     1     -10.645  14.149  64.713  1.00  0.00    -0.439 C  
HETATM    2  C   UNL     1     -11.218  12.942  63.990  1.00  0.00    -0.458 C  
ENDROOT
BRANCH   2   3
HETATM    3  C   UNL     1     -11.214  11.704  64.843  1.00  0.00    -0.287 C  
HETATM    4  C   UNL     1     -10.394  10.652  64.682  1.00  0.00    -0.353 C  
BRANCH   4   5
HETATM    5  C   UNL     1      -9.400  10.483  63.567  1.00  0.00    -0.326 C  
BRANCH   5   6
HETATM    6  C   UNL     1      -8.777   9.113  63.573  1.00  0.00    -0.148 C  
HETATM    7  C   UNL     1      -7.603   8.777  64.134  1.00  0.00    -0.122 C  
BRANCH   7   8
HETATM    8  C   UNL     1      -6.688   9.739  64.834  1.00  0.00    -0.112 C  
BRANCH   8   9
HETATM    9  C   UNL     1      -6.576   9.460  66.304  1.00  0.00    -0.070 C  
HETATM   10  C   UNL     1      -6.474  10.371  67.287  1.00  0.00    -0.067 C  
BRANCH  10  11
HETATM   11  C   UNL     1      -6.525  11.868  67.144  1.00  0.00    -0.146 C  
BRANCH  11  12
HETATM   12  C   UNL     1      -7.923  12.402  66.993  1.00  0.00    -0.106 C  
HETATM   13  C   UNL     1      -8.963  12.172  67.811  1.00  0.00    -0.179 C  
BRANCH  13  14
HETATM   14  C   UNL     1      -8.944  11.270  69.000  1.00  0.00     0.024 C  
BRANCH  14  15
HETATM   15  C   UNL     1     -10.282  10.649  69.290  1.00  0.00    -0.235 C  
HETATM   16  C   UNL     1     -10.613   9.401  68.915  1.00  0.00    -0.231 C  
BRANCH  16  17
HETATM   17  C   UNL     1      -9.721   8.501  68.113  1.00  0.00    -0.175 C  
BRANCH  17  18
HETATM   18  C   UNL     1     -10.462   7.701  67.077  1.00  0.00    -0.419 C  
HETATM   19  C   UNL     1     -10.874   6.438  67.290  1.00  0.00    -0.463 C  
BRANCH  19  20
HETATM   20  C   UNL     1     -10.630   5.737  68.599  1.00  0.00    -0.305 C  
BRANCH  20  21
HETATM   21  C   UNL     1      -9.869   4.421  68.493  1.00  0.00    -0.140 C  
HETATM   22  C   UNL     1      -8.387   4.699  68.624  1.00  0.00    -0.082 C  
HETATM   23  O   UNL     1      -7.617   3.759  68.024  1.00  0.00    -0.065 OA 
HETATM   24  O   UNL     1      -7.900   5.641  69.223  1.00  0.00    -0.086 OA 
ENDBRANCH  20  21
ENDBRANCH  19  20
ENDBRANCH  17  18
ENDBRANCH  16  17
ENDBRANCH  14  15
ENDBRANCH  13  14
ENDBRANCH  11  12
ENDBRANCH  10  11
ENDBRANCH   8   9
ENDBRANCH   7   8
ENDBRANCH   5   6
ENDBRANCH   4   5
ENDBRANCH   2   3
TORSDOF 13
ENDMDL
MODEL      388
REMARK 921   NORMALIZED FREE ENERGY PREDICTED BY IDOCK:   -2.98 KCAL/MOL
REMARK 922        TOTAL FREE ENERGY PREDICTED BY IDOCK:   -8.03 KCAL/MOL
REMARK 923 INTER-LIGAND FREE ENERGY PREDICTED BY IDOCK:   -5.82 KCAL/MOL
REMARK 924 INTRA-LIGAND FREE ENERGY PREDICTED BY IDOCK:   -2.21 KCAL/MOL
REMARK 927      BINDING AFFINITY PREDICTED BY RF-SCORE:    0.00 PKD
ROOT
HETATM    1  C   UNL     1     -12.329  11.053  70.500  1.00  0.00    -0.462 C  
HETATM    2  C   UNL     1     -11.265   9.975  70.627  1.00  0.00    -0.425 C  
ENDROOT
BRANCH   2   3
HETATM    3  C   UNL     1      -9.990  10.338  69.920  1.00  0.00    -0.183 C  
HETATM    4  C   UNL     1      -9.726  10.106  68.622  1.00  0.00    -0.167 C  
BRANCH   4   5
HETATM    5  C   UNL     1     -10.620   9.362  67.670  1.00  0.00    -0.333 C  
BRANCH   5   6
HETATM    6  C   UNL     1      -9.970   8.105  67.158  1.00  0.00    -0.304 C  
HETATM    7  C   UNL     1      -9.127   8.015  66.115  1.00  0.00    -0.224 C  
BRANCH   7   8
HETATM    8  C   UNL     1      -8.712   9.171  65.254  1.00  0.00    -0.219 C  
BRANCH   8   9
HETATM    9  C   UNL     1      -7.242   9.461  65.350  1.00  0.00    -0.092 C  
HETATM   10  C   UNL     1      -6.672  10.519  65.951  1.00  0.00    -0.130 C  
BRANCH  10  11
HETATM   11  C   UNL     1      -7.367  11.606  66.724  1.00  0.00    -0.083 C  
BRANCH  11  12
HETATM   12  C   UNL     1      -6.533  12.165  67.844  1.00  0.00    -0.078 C  
HETATM   13  C   UNL     1      -6.428  13.455  68.200  1.00  0.00    -0.119 C  
BRANCH  13  14
HETATM   14  C   UNL     1      -7.073  14.602  67.495  1.00  0.00    -0.203 C  
BRANCH  14  15
HETATM   15  C   UNL     1      -6.484  15.932  67.873  1.00  0.00    -0.163 C  
HETATM   16  C   UNL     1      -7.148  17.095  67.746  1.00  0.00    -0.165 C  
BRANCH  16  17
HETATM   17  C   UNL     1      -8.522  17.218  67.158  1.00  0.00    -0.223 C  
BRANCH  17  18
HETATM   18  C   UNL     1      -9.542  17.729  68.137  1.00  0.00    -0.303 C  
HETATM   19  C   UNL     1     -10.333  16.912  68.856  1.00  0.00    -0.333 C  
BRANCH  19  20
HETATM   20  C   UNL     1     -10.238  15.415  68.739  1.00  0.00    -0.217 C  
BRANCH  20  21
HETATM   21  C   UNL     1     -11.495  14.729  68.218  1.00  0.00    -0.338 C  
HETATM   22  C   UNL     1     -11.244  14.255  66.802  1.00  0.00    -0.332 C  
HETATM   23  O   UNL     1     -12.381  14.142  66.074  1.00  0.00    -0.444 OA 
HETATM   24  O   UNL     1     -10.154  13.968  66.342  1.00  0.00    -0.278 OA 
ENDBRANCH  20  21
ENDBRANCH  19  20
ENDBRANCH  17  18
ENDBRANCH  16  17
ENDBRANCH  14  15
ENDBRANCH  13  14
ENDBRANCH  11  12
ENDBRANCH  10  11
ENDBRANCH   8   9
ENDBRANCH   7   8
ENDBRANCH   5   6
ENDBRANCH   4   5
ENDBRANCH   2   3
TORSDOF 13
ENDMDL
MODEL      389
REMARK 921   NORMALIZED FREE ENERGY PREDICTED BY IDOCK:   -2.98 KCAL/MOL
REMARK 922        TOTAL FREE ENERGY PREDICTED BY IDOCK:   -8.02 KCAL/MOL
REMARK 923 INTER-LIGAND FREE ENERGY PREDICTED BY IDOCK:   -6.67 KCAL/MOL
REMARK 924 INTRA-LIGAND FREE ENERGY PREDICTED BY IDOCK:   -1.35 KCAL/MOL
REMARK 927      BINDING AFFINITY PREDICTED BY RF-SCORE:    0.00 PKD
ROOT
HETATM    1  C   UNL     1     -10.901  16.483  69.574  1.00  0.00    -0.315 C  
HETATM    2  C   UNL     1     -12.186  15.671  69.585  1.00  0.00    -0.264 C  
ENDROOT
BRANCH   2   3
HETATM    3  C   UNL     1     -12.789  15.566  70.957  1.00  0.00    -0.543 C  
HETATM    4  C   UNL     1     -12.972  14.423  71.642  1.00  0.00    -0.412 C  
BRANCH   4   5
HETATM    5  C   UNL     1     -12.692  13.041  71.122  1.00  0.00    -0.372 C  
BRANCH   5   6
HETATM    6  C   UNL     1     -13.533  12.001  71.811  1.00  0.00    -0.194 C  
HETATM    7  C   UNL     1     -13.356  10.670  71.751  1.00  0.00    -0.437 C  
BRANCH   7   8
HETATM    8  C   UNL     1     -12.291   9.988  70.944  1.00  0.00    -0.438 C  
BRANCH   8   9
HETATM    9  C   UNL     1     -11.946   8.629  71.477  1.00  0.00    -0.362 C  
HETATM   10  C   UNL     1     -10.903   7.865  71.112  1.00  0.00    -0.257 C  
BRANCH  10  11
HETATM   11  C   UNL     1      -9.808   8.229  70.146  1.00  0.00    -0.184 C  
BRANCH  11  12
HETATM   12  C   UNL     1     -10.317   8.885  68.892  1.00  0.00    -0.229 C  
HETATM   13  C   UNL     1      -9.867  10.023  68.341  1.00  0.00    -0.169 C  
BRANCH  13  14
HETATM   14  C   UNL     1      -8.810  10.904  68.920  1.00  0.00    -0.143 C  
BRANCH  14  15
HETATM   15  C   UNL     1      -7.651  11.126  67.988  1.00  0.00    -0.100 C  
HETATM   16  C   UNL     1      -7.530  12.215  67.209  1.00  0.00    -0.152 C  
BRANCH  16  17
HETATM   17  C   UNL     1      -8.555  13.306  67.124  1.00  0.00    -0.197 C  
BRANCH  17  18
HETATM   18  C   UNL     1      -8.216  14.505  67.966  1.00  0.00    -0.145 C  
HETATM   19  C   UNL     1      -8.276  15.764  67.496  1.00  0.00    -0.181 C  
BRANCH  19  20
HETATM   20  C   UNL     1      -8.704  16.062  66.084  1.00  0.00    -0.348 C  
BRANCH  20  21
HETATM   21  C   UNL     1      -9.948  16.933  65.959  1.00  0.00    -0.313 C  
HETATM   22  C   UNL     1      -9.540  18.388  66.041  1.00  0.00    -0.057 C  
HETATM   23  O   UNL     1     -10.536  19.193  66.481  1.00  0.00    -0.418 OA 
HETATM   24  O   UNL     1      -8.449  18.829  65.725  1.00  0.00    -0.436 OA 
ENDBRANCH  20  21
ENDBRANCH  19  20
ENDBRANCH  17  18
ENDBRANCH  16  17
ENDBRANCH  14  15
ENDBRANCH  13  14
ENDBRANCH  11  12
ENDBRANCH  10  11
ENDBRANCH   8   9
ENDBRANCH   7   8
ENDBRANCH   5   6
ENDBRANCH   4   5
ENDBRANCH   2   3
TORSDOF 13
ENDMDL
MODEL      390
REMARK 921   NORMALIZED FREE ENERGY PREDICTED BY IDOCK:   -2.97 KCAL/MOL
REMARK 922        TOTAL FREE ENERGY PREDICTED BY IDOCK:   -8.01 KCAL/MOL
REMARK 923 INTER-LIGAND FREE ENERGY PREDICTED BY IDOCK:   -6.02 KCAL/MOL
REMARK 924 INTRA-LIGAND FREE ENERGY PREDICTED BY IDOCK:   -1.99 KCAL/MOL
REMARK 927      BINDING AFFINITY PREDICTED BY RF-SCORE:    0.00 PKD
ROOT
HETATM    1  C   UNL     1      -6.486   6.929  71.399  1.00  0.00    -0.042 C  
HETATM    2  C   UNL     1      -7.863   7.051  72.029  1.00  0.00    -0.093 C  
ENDROOT
BRANCH   2   3
HETATM    3  C   UNL     1      -8.382   5.736  72.538  1.00  0.00    -0.117 C  
HETATM    4  C   UNL     1      -8.960   4.784  71.785  1.00  0.00    -0.154 C  
BRANCH   4   5
HETATM    5  C   UNL     1      -9.275   4.901  70.321  1.00  0.00    -0.192 C  
BRANCH   5   6
HETATM    6  C   UNL     1     -10.643   5.481  70.085  1.00  0.00    -0.367 C  
HETATM    7  C   UNL     1     -10.915   6.718  69.633  1.00  0.00    -0.336 C  
BRANCH   7   8
HETATM    8  C   UNL     1      -9.878   7.754  69.313  1.00  0.00    -0.173 C  
BRANCH   8   9
HETATM    9  C   UNL     1      -9.409   7.678  67.890  1.00  0.00    -0.146 C  
HETATM   10  C   UNL     1      -9.793   8.472  66.876  1.00  0.00    -0.310 C  
BRANCH  10  11
HETATM   11  C   UNL     1     -10.718   9.657  66.953  1.00  0.00    -0.185 C  
BRANCH  11  12
HETATM   12  C   UNL     1      -9.992  10.969  67.070  1.00  0.00    -0.223 C  
HETATM   13  C   UNL     1     -10.512  12.192  66.886  1.00  0.00    -0.250 C  
BRANCH  13  14
HETATM   14  C   UNL     1     -11.910  12.482  66.452  1.00  0.00    -0.445 C  
BRANCH  14  15
HETATM   15  C   UNL     1     -12.081  12.453  64.958  1.00  0.00    -0.468 C  
HETATM   16  C   UNL     1     -12.055  13.557  64.192  1.00  0.00    -0.488 C  
BRANCH  16  17
HETATM   17  C   UNL     1     -11.916  14.950  64.729  1.00  0.00    -0.364 C  
BRANCH  17  18
HETATM   18  C   UNL     1     -10.495  15.442  64.739  1.00  0.00    -0.186 C  
HETATM   19  C   UNL     1      -9.903  15.934  65.842  1.00  0.00    -0.383 C  
BRANCH  19  20
HETATM   20  C   UNL     1     -10.626  16.011  67.160  1.00  0.00    -0.305 C  
BRANCH  20  21
HETATM   21  C   UNL     1     -10.773  17.415  67.733  1.00  0.00    -0.332 C  
HETATM   22  C   UNL     1      -9.657  17.659  68.726  1.00  0.00    -0.280 C  
HETATM   23  O   UNL     1      -9.974  18.588  69.660  1.00  0.00     0.072 OA 
HETATM   24  O   UNL     1      -8.566  17.118  68.702  1.00  0.00    -0.257 OA 
ENDBRANCH  20  21
ENDBRANCH  19  20
ENDBRANCH  17  18
ENDBRANCH  16  17
ENDBRANCH  14  15
ENDBRANCH  13  14
ENDBRANCH  11  12
ENDBRANCH  10  11
ENDBRANCH   8   9
ENDBRANCH   7   8
ENDBRANCH   5   6
ENDBRANCH   4   5
ENDBRANCH   2   3
TORSDOF 13
ENDMDL
MODEL      391
REMARK 921   NORMALIZED FREE ENERGY PREDICTED BY IDOCK:   -2.97 KCAL/MOL
REMARK 922        TOTAL FREE ENERGY PREDICTED BY IDOCK:   -8.00 KCAL/MOL
REMARK 923 INTER-LIGAND FREE ENERGY PREDICTED BY IDOCK:   -5.96 KCAL/MOL
REMARK 924 INTRA-LIGAND FREE ENERGY PREDICTED BY IDOCK:   -2.04 KCAL/MOL
REMARK 927      BINDING AFFINITY PREDICTED BY RF-SCORE:    0.00 PKD
ROOT
HETATM    1  C   UNL     1      -8.890   9.540  63.919  1.00  0.00    -0.240 C  
HETATM    2  C   UNL     1      -9.124  10.846  64.660  1.00  0.00    -0.189 C  
ENDROOT
BRANCH   2   3
HETATM    3  C   UNL     1     -10.579  11.099  64.937  1.00  0.00    -0.356 C  
HETATM    4  C   UNL     1     -11.089  11.499  66.114  1.00  0.00    -0.302 C  
BRANCH   4   5
HETATM    5  C   UNL     1     -10.310  11.675  67.387  1.00  0.00    -0.231 C  
BRANCH   5   6
HETATM    6  C   UNL     1     -10.828  10.792  68.489  1.00  0.00    -0.270 C  
HETATM    7  C   UNL     1     -10.612   9.471  68.616  1.00  0.00    -0.239 C  
BRANCH   7   8
HETATM    8  C   UNL     1      -9.829   8.639  67.643  1.00  0.00    -0.229 C  
BRANCH   8   9
HETATM    9  C   UNL     1     -10.614   7.470  67.124  1.00  0.00    -0.415 C  
HETATM   10  C   UNL     1     -10.113   6.327  66.624  1.00  0.00    -0.214 C  
BRANCH  10  11
HETATM   11  C   UNL     1      -8.664   5.932  66.542  1.00  0.00    -0.126 C  
BRANCH  11  12
HETATM   12  C   UNL     1      -7.864   6.359  67.742  1.00  0.00    -0.104 C  
HETATM   13  C   UNL     1      -7.795   5.730  68.926  1.00  0.00    -0.097 C  
BRANCH  13  14
HETATM   14  C   UNL     1      -8.569   4.511  69.303  1.00  0.00    -0.101 C  
BRANCH  14  15
HETATM   15  C   UNL     1     -10.031   4.785  69.524  1.00  0.00    -0.287 C  
HETATM   16  C   UNL     1     -10.510   5.383  70.628  1.00  0.00    -0.329 C  
BRANCH  16  17
HETATM   17  C   UNL     1      -9.665   5.793  71.796  1.00  0.00    -0.185 C  
BRANCH  17  18
HETATM   18  C   UNL     1      -9.273   7.245  71.764  1.00  0.00    -0.153 C  
HETATM   19  C   UNL     1     -10.113   8.233  72.125  1.00  0.00    -0.344 C  
BRANCH  19  20
HETATM   20  C   UNL     1     -11.511   7.947  72.602  1.00  0.00    -0.454 C  
BRANCH  20  21
HETATM   21  C   UNL     1     -12.531   9.037  72.296  1.00  0.00    -0.427 C  
HETATM   22  C   UNL     1     -13.724   8.413  71.604  1.00  0.00    -0.364 C  
HETATM   23  O   UNL     1     -14.402   9.291  70.825  1.00  0.00     0.089 OA 
HETATM   24  O   UNL     1     -14.083   7.257  71.732  1.00  0.00    -0.394 OA 
ENDBRANCH  20  21
ENDBRANCH  19  20
ENDBRANCH  17  18
ENDBRANCH  16  17
ENDBRANCH  14  15
ENDBRANCH  13  14
ENDBRANCH  11  12
ENDBRANCH  10  11
ENDBRANCH   8   9
ENDBRANCH   7   8
ENDBRANCH   5   6
ENDBRANCH   4   5
ENDBRANCH   2   3
TORSDOF 13
ENDMDL
MODEL      392
REMARK 921   NORMALIZED FREE ENERGY PREDICTED BY IDOCK:   -2.94 KCAL/MOL
REMARK 922        TOTAL FREE ENERGY PREDICTED BY IDOCK:   -7.96 KCAL/MOL
REMARK 923 INTER-LIGAND FREE ENERGY PREDICTED BY IDOCK:   -5.51 KCAL/MOL
REMARK 924 INTRA-LIGAND FREE ENERGY PREDICTED BY IDOCK:   -2.44 KCAL/MOL
REMARK 927      BINDING AFFINITY PREDICTED BY RF-SCORE:    0.00 PKD
ROOT
HETATM    1  C   UNL     1      -9.144   9.607  62.338  1.00  0.00    -0.290 C  
HETATM    2  C   UNL     1      -7.872   9.071  62.973  1.00  0.00    -0.131 C  
ENDROOT
BRANCH   2   3
HETATM    3  C   UNL     1      -8.148   8.150  64.128  1.00  0.00    -0.128 C  
HETATM    4  C   UNL     1      -8.497   8.538  65.366  1.00  0.00    -0.190 C  
BRANCH   4   5
HETATM    5  C   UNL     1      -8.584   9.961  65.843  1.00  0.00    -0.149 C  
BRANCH   5   6
HETATM    6  C   UNL     1      -7.223  10.555  66.085  1.00  0.00    -0.136 C  
HETATM    7  C   UNL     1      -6.856  11.292  67.149  1.00  0.00    -0.114 C  
BRANCH   7   8
HETATM    8  C   UNL     1      -7.771  11.676  68.274  1.00  0.00    -0.128 C  
BRANCH   8   9
HETATM    9  C   UNL     1      -7.266  11.213  69.609  1.00  0.00    -0.016 C  
HETATM   10  C   UNL     1      -7.321   9.962  70.097  1.00  0.00    -0.166 C  
BRANCH  10  11
HETATM   11  C   UNL     1      -7.830   8.735  69.391  1.00  0.00    -0.095 C  
BRANCH  11  12
HETATM   12  C   UNL     1      -8.425   7.717  70.324  1.00  0.00    -0.134 C  
HETATM   13  C   UNL     1      -9.731   7.489  70.535  1.00  0.00    -0.179 C  
BRANCH  13  14
HETATM   14  C   UNL     1     -10.853   8.266  69.931  1.00  0.00    -0.213 C  
BRANCH  14  15
HETATM   15  C   UNL     1     -11.434   9.289  70.868  1.00  0.00    -0.367 C  
HETATM   16  C   UNL     1     -11.667  10.564  70.514  1.00  0.00    -0.443 C  
BRANCH  16  17
HETATM   17  C   UNL     1     -11.322  11.141  69.173  1.00  0.00    -0.340 C  
BRANCH  17  18
HETATM   18  C   UNL     1     -12.000  12.455  68.900  1.00  0.00    -0.289 C  
HETATM   19  C   UNL     1     -12.126  12.965  67.662  1.00  0.00    -0.239 C  
BRANCH  19  20
HETATM   20  C   UNL     1     -11.602  12.240  66.451  1.00  0.00    -0.445 C  
BRANCH  20  21
HETATM   21  C   UNL     1     -11.310  13.127  65.246  1.00  0.00    -0.321 C  
HETATM   22  C   UNL     1     -10.337  14.210  65.658  1.00  0.00    -0.333 C  
HETATM   23  O   UNL     1     -10.427  15.322  64.889  1.00  0.00    -0.392 OA 
HETATM   24  O   UNL     1      -9.525  14.117  66.561  1.00  0.00    -0.276 OA 
ENDBRANCH  20  21
ENDBRANCH  19  20
ENDBRANCH  17  18
ENDBRANCH  16  17
ENDBRANCH  14  15
ENDBRANCH  13  14
ENDBRANCH  11  12
ENDBRANCH  10  11
ENDBRANCH   8   9
ENDBRANCH   7   8
ENDBRANCH   5   6
ENDBRANCH   4   5
ENDBRANCH   2   3
TORSDOF 13
ENDMDL
MODEL      393
REMARK 921   NORMALIZED FREE ENERGY PREDICTED BY IDOCK:   -2.94 KCAL/MOL
REMARK 922        TOTAL FREE ENERGY PREDICTED BY IDOCK:   -7.96 KCAL/MOL
REMARK 923 INTER-LIGAND FREE ENERGY PREDICTED BY IDOCK:   -5.25 KCAL/MOL
REMARK 924 INTRA-LIGAND FREE ENERGY PREDICTED BY IDOCK:   -2.70 KCAL/MOL
REMARK 927      BINDING AFFINITY PREDICTED BY RF-SCORE:    0.00 PKD
ROOT
HETATM    1  C   UNL     1     -12.033  14.382  64.493  1.00  0.00    -0.487 C  
HETATM    2  C   UNL     1     -12.481  13.159  65.276  1.00  0.00    -0.550 C  
ENDROOT
BRANCH   2   3
HETATM    3  C   UNL     1     -12.158  13.262  66.740  1.00  0.00    -0.403 C  
HETATM    4  C   UNL     1     -11.217  12.547  67.381  1.00  0.00    -0.344 C  
BRANCH   4   5
HETATM    5  C   UNL     1     -10.386  11.453  66.772  1.00  0.00    -0.271 C  
BRANCH   5   6
HETATM    6  C   UNL     1      -9.032  11.950  66.342  1.00  0.00    -0.180 C  
HETATM    7  C   UNL     1      -7.969  11.188  66.032  1.00  0.00    -0.041 C  
BRANCH   7   8
HETATM    8  C   UNL     1      -7.948   9.689  66.095  1.00  0.00    -0.108 C  
BRANCH   8   9
HETATM    9  C   UNL     1      -6.559   9.138  66.236  1.00  0.00    -0.066 C  
HETATM   10  C   UNL     1      -6.113   8.330  67.212  1.00  0.00    -0.055 C  
BRANCH  10  11
HETATM   11  C   UNL     1      -6.919   7.736  68.336  1.00  0.00    -0.072 C  
BRANCH  11  12
HETATM   12  C   UNL     1      -6.140   6.758  69.172  1.00  0.00    -0.026 C  
HETATM   13  C   UNL     1      -6.626   5.682  69.810  1.00  0.00    -0.050 C  
BRANCH  13  14
HETATM   14  C   UNL     1      -8.065   5.289  69.870  1.00  0.00    -0.084 C  
BRANCH  14  15
HETATM   15  C   UNL     1      -8.529   4.557  68.642  1.00  0.00    -0.093 C  
HETATM   16  C   UNL     1      -9.707   4.799  68.041  1.00  0.00    -0.202 C  
BRANCH  16  17
HETATM   17  C   UNL     1     -10.725   5.775  68.550  1.00  0.00    -0.288 C  
BRANCH  17  18
HETATM   18  C   UNL     1     -10.848   7.004  67.693  1.00  0.00    -0.312 C  
HETATM   19  C   UNL     1     -10.556   8.238  68.144  1.00  0.00    -0.169 C  
BRANCH  19  20
HETATM   20  C   UNL     1     -10.068   8.471  69.549  1.00  0.00    -0.200 C  
BRANCH  20  21
HETATM   21  C   UNL     1     -10.092   9.924  70.006  1.00  0.00    -0.308 C  
HETATM   22  C   UNL     1     -11.492  10.273  70.463  1.00  0.00    -0.343 C  
HETATM   23  O   UNL     1     -11.766  11.596  70.367  1.00  0.00    -0.313 OA 
HETATM   24  O   UNL     1     -12.303   9.478  70.904  1.00  0.00    -0.288 OA 
ENDBRANCH  20  21
ENDBRANCH  19  20
ENDBRANCH  17  18
ENDBRANCH  16  17
ENDBRANCH  14  15
ENDBRANCH  13  14
ENDBRANCH  11  12
ENDBRANCH  10  11
ENDBRANCH   8   9
ENDBRANCH   7   8
ENDBRANCH   5   6
ENDBRANCH   4   5
ENDBRANCH   2   3
TORSDOF 13
ENDMDL
MODEL      394
REMARK 921   NORMALIZED FREE ENERGY PREDICTED BY IDOCK:   -2.94 KCAL/MOL
REMARK 922        TOTAL FREE ENERGY PREDICTED BY IDOCK:   -7.95 KCAL/MOL
REMARK 923 INTER-LIGAND FREE ENERGY PREDICTED BY IDOCK:   -7.09 KCAL/MOL
REMARK 924 INTRA-LIGAND FREE ENERGY PREDICTED BY IDOCK:   -0.87 KCAL/MOL
REMARK 927      BINDING AFFINITY PREDICTED BY RF-SCORE:    0.00 PKD
ROOT
HETATM    1  C   UNL     1      -7.217   9.166  70.702  1.00  0.00    -0.106 C  
HETATM    2  C   UNL     1      -8.660   9.458  70.326  1.00  0.00    -0.249 C  
ENDROOT
BRANCH   2   3
HETATM    3  C   UNL     1      -9.522   8.227  70.348  1.00  0.00    -0.172 C  
HETATM    4  C   UNL     1     -10.677   8.098  71.023  1.00  0.00    -0.248 C  
BRANCH   4   5
HETATM    5  C   UNL     1     -11.266   9.126  71.948  1.00  0.00    -0.400 C  
BRANCH   5   6
HETATM    6  C   UNL     1     -12.605   9.614  71.466  1.00  0.00    -0.483 C  
HETATM    7  C   UNL     1     -12.817  10.556  70.531  1.00  0.00    -0.339 C  
BRANCH   7   8
HETATM    8  C   UNL     1     -11.731  11.312  69.823  1.00  0.00    -0.422 C  
BRANCH   8   9
HETATM    9  C   UNL     1     -11.961  12.795  69.834  1.00  0.00    -0.368 C  
HETATM   10  C   UNL     1     -11.801  13.638  68.800  1.00  0.00    -0.395 C  
BRANCH  10  11
HETATM   11  C   UNL     1     -11.430  13.280  67.387  1.00  0.00    -0.371 C  
BRANCH  11  12
HETATM   12  C   UNL     1     -12.364  13.863  66.362  1.00  0.00    -0.468 C  
HETATM   13  C   UNL     1     -12.124  14.010  65.050  1.00  0.00    -0.427 C  
BRANCH  13  14
HETATM   14  C   UNL     1     -10.838  13.687  64.364  1.00  0.00    -0.374 C  
BRANCH  14  15
HETATM   15  C   UNL     1     -10.918  12.449  63.515  1.00  0.00    -0.506 C  
HETATM   16  C   UNL     1     -10.260  11.313  63.806  1.00  0.00    -0.431 C  
BRANCH  16  17
HETATM   17  C   UNL     1      -9.324  11.157  64.967  1.00  0.00    -0.232 C  
BRANCH  17  18
HETATM   18  C   UNL     1      -9.905  10.348  66.093  1.00  0.00    -0.278 C  
HETATM   19  C   UNL     1      -9.397   9.162  66.474  1.00  0.00    -0.244 C  
BRANCH  19  20
HETATM   20  C   UNL     1      -8.190   8.566  65.801  1.00  0.00    -0.125 C  
BRANCH  20  21
HETATM   21  C   UNL     1      -7.422   9.519  64.893  1.00  0.00    -0.111 C  
HETATM   22  C   UNL     1      -7.255   8.875  63.534  1.00  0.00    -0.093 C  
HETATM   23  O   UNL     1      -6.178   9.341  62.857  1.00  0.00    -0.093 OA 
HETATM   24  O   UNL     1      -8.005   8.043  63.055  1.00  0.00    -0.148 OA 
ENDBRANCH  20  21
ENDBRANCH  19  20
ENDBRANCH  17  18
ENDBRANCH  16  17
ENDBRANCH  14  15
ENDBRANCH  13  14
ENDBRANCH  11  12
ENDBRANCH  10  11
ENDBRANCH   8   9
ENDBRANCH   7   8
ENDBRANCH   5   6
ENDBRANCH   4   5
ENDBRANCH   2   3
TORSDOF 13
ENDMDL
MODEL      395
REMARK 921   NORMALIZED FREE ENERGY PREDICTED BY IDOCK:   -2.93 KCAL/MOL
REMARK 922        TOTAL FREE ENERGY PREDICTED BY IDOCK:   -7.94 KCAL/MOL
REMARK 923 INTER-LIGAND FREE ENERGY PREDICTED BY IDOCK:   -5.82 KCAL/MOL
REMARK 924 INTRA-LIGAND FREE ENERGY PREDICTED BY IDOCK:   -2.11 KCAL/MOL
REMARK 927      BINDING AFFINITY PREDICTED BY RF-SCORE:    0.00 PKD
ROOT
HETATM    1  C   UNL     1      -8.742  16.349  66.123  1.00  0.00    -0.347 C  
HETATM    2  C   UNL     1     -10.198  16.734  66.321  1.00  0.00    -0.341 C  
ENDROOT
BRANCH   2   3
HETATM    3  C   UNL     1     -10.372  17.832  67.332  1.00  0.00    -0.370 C  
HETATM    4  C   UNL     1     -10.197  17.702  68.659  1.00  0.00    -0.377 C  
BRANCH   4   5
HETATM    5  C   UNL     1      -9.890  16.418  69.377  1.00  0.00    -0.186 C  
BRANCH   5   6
HETATM    6  C   UNL     1     -11.065  15.928  70.179  1.00  0.00    -0.369 C  
HETATM    7  C   UNL     1     -12.043  15.117  69.740  1.00  0.00    -0.354 C  
BRANCH   7   8
HETATM    8  C   UNL     1     -12.143  14.583  68.341  1.00  0.00    -0.249 C  
BRANCH   8   9
HETATM    9  C   UNL     1     -12.021  13.088  68.286  1.00  0.00    -0.306 C  
HETATM   10  C   UNL     1     -11.307  12.375  67.400  1.00  0.00    -0.381 C  
BRANCH  10  11
HETATM   11  C   UNL     1     -10.412  12.911  66.315  1.00  0.00    -0.282 C  
BRANCH  11  12
HETATM   12  C   UNL     1     -10.931  12.640  64.930  1.00  0.00    -0.326 C  
HETATM   13  C   UNL     1     -10.528  11.666  64.099  1.00  0.00    -0.402 C  
BRANCH  13  14
HETATM   14  C   UNL     1      -9.422  10.701  64.369  1.00  0.00    -0.317 C  
BRANCH  14  15
HETATM   15  C   UNL     1      -9.877   9.476  65.112  1.00  0.00    -0.101 C  
HETATM   16  C   UNL     1      -9.436   9.153  66.341  1.00  0.00    -0.288 C  
BRANCH  16  17
HETATM   17  C   UNL     1      -8.398   9.932  67.092  1.00  0.00    -0.121 C  
BRANCH  17  18
HETATM   18  C   UNL     1      -7.043   9.280  67.081  1.00  0.00    -0.086 C  
HETATM   19  C   UNL     1      -6.739   8.220  67.852  1.00  0.00    -0.065 C  
BRANCH  19  20
HETATM   20  C   UNL     1      -7.751   7.600  68.778  1.00  0.00    -0.118 C  
BRANCH  20  21
HETATM   21  C   UNL     1      -7.245   7.315  70.187  1.00  0.00    -0.074 C  
HETATM   22  C   UNL     1      -8.197   6.353  70.866  1.00  0.00    -0.125 C  
HETATM   23  O   UNL     1      -8.175   6.453  72.217  1.00  0.00    -0.108 OA 
HETATM   24  O   UNL     1      -8.901   5.542  70.292  1.00  0.00    -0.126 OA 
ENDBRANCH  20  21
ENDBRANCH  19  20
ENDBRANCH  17  18
ENDBRANCH  16  17
ENDBRANCH  14  15
ENDBRANCH  13  14
ENDBRANCH  11  12
ENDBRANCH  10  11
ENDBRANCH   8   9
ENDBRANCH   7   8
ENDBRANCH   5   6
ENDBRANCH   4   5
ENDBRANCH   2   3
TORSDOF 13
ENDMDL
MODEL      396
REMARK 921   NORMALIZED FREE ENERGY PREDICTED BY IDOCK:   -2.92 KCAL/MOL
REMARK 922        TOTAL FREE ENERGY PREDICTED BY IDOCK:   -7.91 KCAL/MOL
REMARK 923 INTER-LIGAND FREE ENERGY PREDICTED BY IDOCK:   -5.15 KCAL/MOL
REMARK 924 INTRA-LIGAND FREE ENERGY PREDICTED BY IDOCK:   -2.76 KCAL/MOL
REMARK 927      BINDING AFFINITY PREDICTED BY RF-SCORE:    0.00 PKD
ROOT
HETATM    1  C   UNL     1      -9.021  16.085  66.111  1.00  0.00    -0.381 C  
HETATM    2  C   UNL     1      -9.680  14.998  66.944  1.00  0.00    -0.247 C  
ENDROOT
BRANCH   2   3
HETATM    3  C   UNL     1     -10.901  14.424  66.282  1.00  0.00    -0.313 C  
HETATM    4  C   UNL     1     -11.842  13.683  66.892  1.00  0.00    -0.451 C  
BRANCH   4   5
HETATM    5  C   UNL     1     -11.795  13.218  68.320  1.00  0.00    -0.389 C  
BRANCH   5   6
HETATM    6  C   UNL     1     -11.873  11.719  68.425  1.00  0.00    -0.347 C  
HETATM    7  C   UNL     1     -10.831  10.870  68.455  1.00  0.00    -0.266 C  
BRANCH   7   8
HETATM    8  C   UNL     1      -9.392  11.284  68.353  1.00  0.00    -0.181 C  
BRANCH   8   9
HETATM    9  C   UNL     1      -8.868  11.201  66.950  1.00  0.00    -0.157 C  
HETATM   10  C   UNL     1      -8.333  10.120  66.357  1.00  0.00    -0.125 C  
BRANCH  10  11
HETATM   11  C   UNL     1      -8.209   8.737  66.936  1.00  0.00    -0.108 C  
BRANCH  11  12
HETATM   12  C   UNL     1      -9.472   7.929  66.819  1.00  0.00    -0.257 C  
HETATM   13  C   UNL     1      -9.569   6.636  66.471  1.00  0.00    -0.187 C  
BRANCH  13  14
HETATM   14  C   UNL     1      -8.430   5.765  66.058  1.00  0.00    -0.135 C  
BRANCH  14  15
HETATM   15  C   UNL     1      -8.536   4.363  66.591  1.00  0.00    -0.105 C  
HETATM   16  C   UNL     1      -7.924   3.954  67.716  1.00  0.00    -0.089 C  
BRANCH  16  17
HETATM   17  C   UNL     1      -7.017   4.818  68.541  1.00  0.00    -0.056 C  
BRANCH  17  18
HETATM   18  C   UNL     1      -7.240   4.668  70.020  1.00  0.00    -0.053 C  
HETATM   19  C   UNL     1      -7.918   5.573  70.749  1.00  0.00    -0.111 C  
BRANCH  19  20
HETATM   20  C   UNL     1      -8.517   6.804  70.123  1.00  0.00    -0.139 C  
BRANCH  20  21
HETATM   21  C   UNL     1      -9.875   7.214  70.681  1.00  0.00    -0.184 C  
HETATM   22  C   UNL     1      -9.691   8.411  71.589  1.00  0.00    -0.219 C  
HETATM   23  O   UNL     1     -10.663   8.516  72.528  1.00  0.00    -0.332 OA 
HETATM   24  O   UNL     1      -8.793   9.229  71.499  1.00  0.00    -0.317 OA 
ENDBRANCH  20  21
ENDBRANCH  19  20
ENDBRANCH  17  18
ENDBRANCH  16  17
ENDBRANCH  14  15
ENDBRANCH  13  14
ENDBRANCH  11  12
ENDBRANCH  10  11
ENDBRANCH   8   9
ENDBRANCH   7   8
ENDBRANCH   5   6
ENDBRANCH   4   5
ENDBRANCH   2   3
TORSDOF 13
ENDMDL
MODEL      397
REMARK 921   NORMALIZED FREE ENERGY PREDICTED BY IDOCK:   -2.91 KCAL/MOL
REMARK 922        TOTAL FREE ENERGY PREDICTED BY IDOCK:   -7.89 KCAL/MOL
REMARK 923 INTER-LIGAND FREE ENERGY PREDICTED BY IDOCK:   -5.66 KCAL/MOL
REMARK 924 INTRA-LIGAND FREE ENERGY PREDICTED BY IDOCK:   -2.23 KCAL/MOL
REMARK 927      BINDING AFFINITY PREDICTED BY RF-SCORE:    0.00 PKD
ROOT
HETATM    1  C   UNL     1      -6.420  10.353  69.631  1.00  0.00    -0.076 C  
HETATM    2  C   UNL     1      -7.470   9.934  68.616  1.00  0.00    -0.075 C  
ENDROOT
BRANCH   2   3
HETATM    3  C   UNL     1      -6.951   9.960  67.206  1.00  0.00    -0.084 C  
HETATM    4  C   UNL     1      -7.689  10.202  66.109  1.00  0.00    -0.113 C  
BRANCH   4   5
HETATM    5  C   UNL     1      -9.179  10.397  66.087  1.00  0.00    -0.199 C  
BRANCH   5   6
HETATM    6  C   UNL     1      -9.776  10.008  64.762  1.00  0.00    -0.363 C  
HETATM    7  C   UNL     1     -10.228  10.850  63.816  1.00  0.00    -0.407 C  
BRANCH   7   8
HETATM    8  C   UNL     1     -10.241  12.345  63.944  1.00  0.00    -0.409 C  
BRANCH   8   9
HETATM    9  C   UNL     1     -11.630  12.911  63.946  1.00  0.00    -0.515 C  
HETATM   10  C   UNL     1     -12.019  14.079  64.485  1.00  0.00    -0.470 C  
BRANCH  10  11
HETATM   11  C   UNL     1     -11.141  15.113  65.136  1.00  0.00    -0.410 C  
BRANCH  11  12
HETATM   12  C   UNL     1     -11.137  15.027  66.638  1.00  0.00    -0.326 C  
HETATM   13  C   UNL     1     -10.161  14.524  67.410  1.00  0.00    -0.235 C  
BRANCH  13  14
HETATM   14  C   UNL     1      -8.911  13.878  66.912  1.00  0.00    -0.210 C  
BRANCH  14  15
HETATM   15  C   UNL     1      -8.045  13.340  68.017  1.00  0.00    -0.157 C  
HETATM   16  C   UNL     1      -6.975  13.995  68.500  1.00  0.00    -0.103 C  
BRANCH  16  17
HETATM   17  C   UNL     1      -6.476  15.303  67.962  1.00  0.00    -0.152 C  
BRANCH  17  18
HETATM   18  C   UNL     1      -5.371  15.902  68.787  1.00  0.00    -0.104 C  
HETATM   19  C   UNL     1      -5.295  17.218  69.056  1.00  0.00    -0.153 C  
BRANCH  19  20
HETATM   20  C   UNL     1      -6.330  18.188  68.555  1.00  0.00    -0.206 C  
BRANCH  20  21
HETATM   21  C   UNL     1      -5.863  19.106  67.433  1.00  0.00    -0.175 C  
HETATM   22  C   UNL     1      -6.347  20.513  67.714  1.00  0.00    -0.277 C  
HETATM   23  O   UNL     1      -6.476  21.262  66.593  1.00  0.00    -0.309 OA 
HETATM   24  O   UNL     1      -6.578  20.966  68.821  1.00  0.00    -0.137 OA 
ENDBRANCH  20  21
ENDBRANCH  19  20
ENDBRANCH  17  18
ENDBRANCH  16  17
ENDBRANCH  14  15
ENDBRANCH  13  14
ENDBRANCH  11  12
ENDBRANCH  10  11
ENDBRANCH   8   9
ENDBRANCH   7   8
ENDBRANCH   5   6
ENDBRANCH   4   5
ENDBRANCH   2   3
TORSDOF 13
ENDMDL
MODEL      398
REMARK 921   NORMALIZED FREE ENERGY PREDICTED BY IDOCK:   -2.88 KCAL/MOL
REMARK 922        TOTAL FREE ENERGY PREDICTED BY IDOCK:   -7.84 KCAL/MOL
REMARK 923 INTER-LIGAND FREE ENERGY PREDICTED BY IDOCK:   -6.60 KCAL/MOL
REMARK 924 INTRA-LIGAND FREE ENERGY PREDICTED BY IDOCK:   -1.24 KCAL/MOL
REMARK 927      BINDING AFFINITY PREDICTED BY RF-SCORE:    0.00 PKD
ROOT
HETATM    1  C   UNL     1      -6.355  17.407  66.216  1.00  0.00    -0.253 C  
HETATM    2  C   UNL     1      -6.700  18.310  67.388  1.00  0.00    -0.204 C  
ENDROOT
BRANCH   2   3
HETATM    3  C   UNL     1      -6.551  19.768  67.058  1.00  0.00    -0.215 C  
HETATM    4  C   UNL     1      -7.530  20.686  67.128  1.00  0.00    -0.381 C  
BRANCH   4   5
HETATM    5  C   UNL     1      -8.969  20.404  67.459  1.00  0.00    -0.419 C  
BRANCH   5   6
HETATM    6  C   UNL     1      -9.777  20.092  66.229  1.00  0.00    -0.546 C  
HETATM    7  C   UNL     1     -10.567  19.019  66.048  1.00  0.00    -0.499 C  
BRANCH   7   8
HETATM    8  C   UNL     1     -10.750  17.919  67.052  1.00  0.00    -0.219 C  
BRANCH   8   9
HETATM    9  C   UNL     1      -9.837  16.754  66.802  1.00  0.00    -0.282 C  
HETATM   10  C   UNL     1      -9.989  15.804  65.864  1.00  0.00    -0.380 C  
BRANCH  10  11
HETATM   11  C   UNL     1     -11.060  15.734  64.810  1.00  0.00    -0.413 C  
BRANCH  11  12
HETATM   12  C   UNL     1     -11.917  14.503  64.915  1.00  0.00    -0.425 C  
HETATM   13  C   UNL     1     -11.533  13.236  64.692  1.00  0.00    -0.373 C  
BRANCH  13  14
HETATM   14  C   UNL     1     -10.183  12.813  64.217  1.00  0.00    -0.352 C  
BRANCH  14  15
HETATM   15  C   UNL     1     -10.213  11.543  63.412  1.00  0.00    -0.462 C  
HETATM   16  C   UNL     1     -10.071  10.322  63.957  1.00  0.00    -0.076 C  
BRANCH  16  17
HETATM   17  C   UNL     1      -9.806  10.077  65.412  1.00  0.00    -0.384 C  
BRANCH  17  18
HETATM   18  C   UNL     1      -9.280   8.697  65.695  1.00  0.00    -0.204 C  
HETATM   19  C   UNL     1      -8.441   8.432  66.713  1.00  0.00    -0.114 C  
BRANCH  19  20
HETATM   20  C   UNL     1      -7.978   9.510  67.656  1.00  0.00    -0.106 C  
BRANCH  20  21
HETATM   21  C   UNL     1      -7.348  10.725  66.987  1.00  0.00    -0.110 C  
HETATM   22  C   UNL     1      -5.843  10.635  67.121  1.00  0.00    -0.048 C  
HETATM   23  O   UNL     1      -5.235  11.844  67.072  1.00  0.00    -0.104 OA 
HETATM   24  O   UNL     1      -5.210   9.600  67.234  1.00  0.00    -0.035 OA 
ENDBRANCH  20  21
ENDBRANCH  19  20
ENDBRANCH  17  18
ENDBRANCH  16  17
ENDBRANCH  14  15
ENDBRANCH  13  14
ENDBRANCH  11  12
ENDBRANCH  10  11
ENDBRANCH   8   9
ENDBRANCH   7   8
ENDBRANCH   5   6
ENDBRANCH   4   5
ENDBRANCH   2   3
TORSDOF 13
ENDMDL
MODEL      399
REMARK 921   NORMALIZED FREE ENERGY PREDICTED BY IDOCK:   -2.87 KCAL/MOL
REMARK 922        TOTAL FREE ENERGY PREDICTED BY IDOCK:   -7.83 KCAL/MOL
REMARK 923 INTER-LIGAND FREE ENERGY PREDICTED BY IDOCK:   -5.66 KCAL/MOL
REMARK 924 INTRA-LIGAND FREE ENERGY PREDICTED BY IDOCK:   -2.17 KCAL/MOL
REMARK 927      BINDING AFFINITY PREDICTED BY RF-SCORE:    0.00 PKD
ROOT
HETATM    1  C   UNL     1     -10.409   9.129  67.256  1.00  0.00    -0.338 C  
HETATM    2  C   UNL     1      -9.424   9.011  66.105  1.00  0.00    -0.318 C  
ENDROOT
BRANCH   2   3
HETATM    3  C   UNL     1      -8.716  10.305  65.817  1.00  0.00    -0.169 C  
HETATM    4  C   UNL     1      -7.411  10.428  65.521  1.00  0.00    -0.139 C  
BRANCH   4   5
HETATM    5  C   UNL     1      -6.408   9.309  65.518  1.00  0.00    -0.064 C  
BRANCH   5   6
HETATM    6  C   UNL     1      -5.316   9.531  66.529  1.00  0.00    -0.045 C  
HETATM    7  C   UNL     1      -5.157   8.864  67.685  1.00  0.00    -0.034 C  
BRANCH   7   8
HETATM    8  C   UNL     1      -6.079   7.790  68.182  1.00  0.00    -0.041 C  
BRANCH   8   9
HETATM    9  C   UNL     1      -7.235   8.340  68.964  1.00  0.00    -0.073 C  
HETATM   10  C   UNL     1      -8.100   7.639  69.716  1.00  0.00    -0.125 C  
BRANCH  10  11
HETATM   11  C   UNL     1      -8.062   6.162  70.003  1.00  0.00    -0.119 C  
BRANCH  11  12
HETATM   12  C   UNL     1      -9.380   5.478  69.768  1.00  0.00    -0.181 C  
HETATM   13  C   UNL     1      -9.936   4.523  70.531  1.00  0.00    -0.278 C  
BRANCH  13  14
HETATM   14  C   UNL     1      -9.305   3.900  71.732  1.00  0.00    -0.197 C  
BRANCH  14  15
HETATM   15  C   UNL     1     -10.307   3.450  72.758  1.00  0.00    -0.240 C  
HETATM   16  C   UNL     1     -11.278   4.246  73.240  1.00  0.00    -0.338 C  
BRANCH  16  17
HETATM   17  C   UNL     1     -11.444   5.688  72.866  1.00  0.00    -0.297 C  
BRANCH  17  18
HETATM   18  C   UNL     1     -10.553   6.611  73.650  1.00  0.00    -0.323 C  
HETATM   19  C   UNL     1     -10.216   7.840  73.218  1.00  0.00    -0.367 C  
BRANCH  19  20
HETATM   20  C   UNL     1     -10.726   8.385  71.910  1.00  0.00    -0.373 C  
BRANCH  20  21
HETATM   21  C   UNL     1     -12.140   8.952  71.957  1.00  0.00    -0.442 C  
HETATM   22  C   UNL     1     -12.140  10.324  71.318  1.00  0.00    -0.382 C  
HETATM   23  O   UNL     1     -13.141  11.117  71.770  1.00  0.00    -0.467 OA 
HETATM   24  O   UNL     1     -11.357  10.700  70.465  1.00  0.00    -0.314 OA 
ENDBRANCH  20  21
ENDBRANCH  19  20
ENDBRANCH  17  18
ENDBRANCH  16  17
ENDBRANCH  14  15
ENDBRANCH  13  14
ENDBRANCH  11  12
ENDBRANCH  10  11
ENDBRANCH   8   9
ENDBRANCH   7   8
ENDBRANCH   5   6
ENDBRANCH   4   5
ENDBRANCH   2   3
TORSDOF 13
ENDMDL
MODEL      400
REMARK 921   NORMALIZED FREE ENERGY PREDICTED BY IDOCK:   -2.87 KCAL/MOL
REMARK 922        TOTAL FREE ENERGY PREDICTED BY IDOCK:   -7.82 KCAL/MOL
REMARK 923 INTER-LIGAND FREE ENERGY PREDICTED BY IDOCK:   -4.32 KCAL/MOL
REMARK 924 INTRA-LIGAND FREE ENERGY PREDICTED BY IDOCK:   -3.50 KCAL/MOL
REMARK 927      BINDING AFFINITY PREDICTED BY RF-SCORE:    0.00 PKD
ROOT
HETATM    1  C   UNL     1      -8.206   8.813  64.069  1.00  0.00    -0.161 C  
HETATM    2  C   UNL     1      -7.055   8.955  65.050  1.00  0.00    -0.083 C  
ENDROOT
BRANCH   2   3
HETATM    3  C   UNL     1      -7.031   7.857  66.075  1.00  0.00    -0.061 C  
HETATM    4  C   UNL     1      -7.760   7.830  67.204  1.00  0.00    -0.105 C  
BRANCH   4   5
HETATM    5  C   UNL     1      -8.656   8.935  67.689  1.00  0.00    -0.124 C  
BRANCH   5   6
HETATM    6  C   UNL     1      -7.892   9.985  68.449  1.00  0.00    -0.089 C  
HETATM    7  C   UNL     1      -7.771  10.068  69.785  1.00  0.00    -0.173 C  
BRANCH   7   8
HETATM    8  C   UNL     1      -8.417   9.126  70.759  1.00  0.00    -0.256 C  
BRANCH   8   9
HETATM    9  C   UNL     1      -7.428   8.505  71.701  1.00  0.00    -0.128 C  
HETATM   10  C   UNL     1      -7.087   7.207  71.763  1.00  0.00    -0.068 C  
BRANCH  10  11
HETATM   11  C   UNL     1      -7.560   6.101  70.859  1.00  0.00    -0.097 C  
BRANCH  11  12
HETATM   12  C   UNL     1      -7.366   4.730  71.446  1.00  0.00    -0.068 C  
HETATM   13  C   UNL     1      -8.316   3.940  71.970  1.00  0.00    -0.100 C  
BRANCH  13  14
HETATM   14  C   UNL     1      -9.753   4.309  72.137  1.00  0.00    -0.221 C  
BRANCH  14  15
HETATM   15  C   UNL     1     -10.060   4.886  73.491  1.00  0.00    -0.197 C  
HETATM   16  C   UNL     1     -10.526   6.134  73.672  1.00  0.00    -0.289 C  
BRANCH  16  17
HETATM   17  C   UNL     1     -10.739   7.121  72.564  1.00  0.00    -0.285 C  
BRANCH  17  18
HETATM   18  C   UNL     1     -12.040   6.923  71.835  1.00  0.00    -0.370 C  
HETATM   19  C   UNL     1     -12.105   6.697  70.510  1.00  0.00    -0.302 C  
BRANCH  19  20
HETATM   20  C   UNL     1     -10.865   6.612  69.661  1.00  0.00    -0.336 C  
BRANCH  20  21
HETATM   21  C   UNL     1     -11.106   6.235  68.205  1.00  0.00    -0.364 C  
HETATM   22  C   UNL     1     -10.166   5.111  67.826  1.00  0.00    -0.132 C  
HETATM   23  O   UNL     1      -9.901   5.069  66.497  1.00  0.00    -0.159 OA 
HETATM   24  O   UNL     1      -9.699   4.296  68.600  1.00  0.00    -0.156 OA 
ENDBRANCH  20  21
ENDBRANCH  19  20
ENDBRANCH  17  18
ENDBRANCH  16  17
ENDBRANCH  14  15
ENDBRANCH  13  14
ENDBRANCH  11  12
ENDBRANCH  10  11
ENDBRANCH   8   9
ENDBRANCH   7   8
ENDBRANCH   5   6
ENDBRANCH   4   5
ENDBRANCH   2   3
TORSDOF 13
ENDMDL
MODEL      401
REMARK 921   NORMALIZED FREE ENERGY PREDICTED BY IDOCK:   -2.86 KCAL/MOL
REMARK 922        TOTAL FREE ENERGY PREDICTED BY IDOCK:   -7.81 KCAL/MOL
REMARK 923 INTER-LIGAND FREE ENERGY PREDICTED BY IDOCK:   -5.55 KCAL/MOL
REMARK 924 INTRA-LIGAND FREE ENERGY PREDICTED BY IDOCK:   -2.26 KCAL/MOL
REMARK 927      BINDING AFFINITY PREDICTED BY RF-SCORE:    0.00 PKD
ROOT
HETATM    1  C   UNL     1      -9.094  15.407  67.705  1.00  0.00    -0.178 C  
HETATM    2  C   UNL     1     -10.274  14.883  68.507  1.00  0.00    -0.235 C  
ENDROOT
BRANCH   2   3
HETATM    3  C   UNL     1     -11.517  14.739  67.676  1.00  0.00    -0.363 C  
HETATM    4  C   UNL     1     -11.904  13.618  67.042  1.00  0.00    -0.448 C  
BRANCH   4   5
HETATM    5  C   UNL     1     -11.119  12.339  66.975  1.00  0.00    -0.339 C  
BRANCH   5   6
HETATM    6  C   UNL     1     -11.536  11.367  68.045  1.00  0.00    -0.377 C  
HETATM    7  C   UNL     1     -10.951  10.187  68.318  1.00  0.00    -0.299 C  
BRANCH   7   8
HETATM    8  C   UNL     1      -9.783   9.622  67.565  1.00  0.00    -0.195 C  
BRANCH   8   9
HETATM    9  C   UNL     1     -10.167   8.461  66.694  1.00  0.00    -0.335 C  
HETATM   10  C   UNL     1      -9.893   7.165  66.919  1.00  0.00    -0.271 C  
BRANCH  10  11
HETATM   11  C   UNL     1      -9.209   6.580  68.125  1.00  0.00    -0.112 C  
BRANCH  11  12
HETATM   12  C   UNL     1      -7.820   6.082  67.835  1.00  0.00    -0.105 C  
HETATM   13  C   UNL     1      -6.680   6.785  67.926  1.00  0.00    -0.068 C  
BRANCH  13  14
HETATM   14  C   UNL     1      -6.583   8.235  68.263  1.00  0.00    -0.060 C  
BRANCH  14  15
HETATM   15  C   UNL     1      -5.842   8.494  69.545  1.00  0.00    -0.030 C  
HETATM   16  C   UNL     1      -6.455   8.655  70.731  1.00  0.00    -0.043 C  
BRANCH  16  17
HETATM   17  C   UNL     1      -7.943   8.659  70.915  1.00  0.00    -0.137 C  
BRANCH  17  18
HETATM   18  C   UNL     1      -8.363   8.686  72.359  1.00  0.00    -0.100 C  
HETATM   19  C   UNL     1      -9.330   7.890  72.850  1.00  0.00    -0.309 C  
BRANCH  19  20
HETATM   20  C   UNL     1     -10.055   6.898  71.981  1.00  0.00    -0.201 C  
BRANCH  20  21
HETATM   21  C   UNL     1     -11.505   6.639  72.372  1.00  0.00    -0.300 C  
HETATM   22  C   UNL     1     -12.379   6.791  71.146  1.00  0.00    -0.333 C  
HETATM   23  O   UNL     1     -13.658   7.123  71.446  1.00  0.00    -0.375 OA 
HETATM   24  O   UNL     1     -12.013   6.614  69.998  1.00  0.00    -0.340 OA 
ENDBRANCH  20  21
ENDBRANCH  19  20
ENDBRANCH  17  18
ENDBRANCH  16  17
ENDBRANCH  14  15
ENDBRANCH  13  14
ENDBRANCH  11  12
ENDBRANCH  10  11
ENDBRANCH   8   9
ENDBRANCH   7   8
ENDBRANCH   5   6
ENDBRANCH   4   5
ENDBRANCH   2   3
TORSDOF 13
ENDMDL
MODEL      402
REMARK 921   NORMALIZED FREE ENERGY PREDICTED BY IDOCK:   -2.85 KCAL/MOL
REMARK 922        TOTAL FREE ENERGY PREDICTED BY IDOCK:   -7.79 KCAL/MOL
REMARK 923 INTER-LIGAND FREE ENERGY PREDICTED BY IDOCK:   -6.17 KCAL/MOL
REMARK 924 INTRA-LIGAND FREE ENERGY PREDICTED BY IDOCK:   -1.62 KCAL/MOL
REMARK 927      BINDING AFFINITY PREDICTED BY RF-SCORE:    0.00 PKD
ROOT
HETATM    1  C   UNL     1     -10.641  16.949  68.049  1.00  0.00    -0.367 C  
HETATM    2  C   UNL     1     -10.262  16.166  69.294  1.00  0.00    -0.257 C  
ENDROOT
BRANCH   2   3
HETATM    3  C   UNL     1     -11.384  16.091  70.292  1.00  0.00    -0.391 C  
HETATM    4  C   UNL     1     -12.103  14.991  70.573  1.00  0.00    -0.379 C  
BRANCH   4   5
HETATM    5  C   UNL     1     -11.977  13.665  69.876  1.00  0.00    -0.415 C  
BRANCH   5   6
HETATM    6  C   UNL     1     -12.253  12.514  70.805  1.00  0.00    -0.332 C  
HETATM    7  C   UNL     1     -11.991  11.218  70.562  1.00  0.00    -0.467 C  
BRANCH   7   8
HETATM    8  C   UNL     1     -11.400  10.693  69.287  1.00  0.00    -0.346 C  
BRANCH   8   9
HETATM    9  C   UNL     1     -10.432   9.570  69.521  1.00  0.00    -0.234 C  
HETATM   10  C   UNL     1     -10.568   8.565  70.403  1.00  0.00    -0.242 C  
BRANCH  10  11
HETATM   11  C   UNL     1     -11.749   8.298  71.297  1.00  0.00    -0.318 C  
BRANCH  11  12
HETATM   12  C   UNL     1     -12.086   6.837  71.414  1.00  0.00    -0.415 C  
HETATM   13  C   UNL     1     -11.621   5.977  72.334  1.00  0.00    -0.349 C  
BRANCH  13  14
HETATM   14  C   UNL     1     -10.611   6.298  73.385  1.00  0.00    -0.293 C  
BRANCH  14  15
HETATM   15  C   UNL     1      -9.781   5.111  73.787  1.00  0.00    -0.149 C  
HETATM   16  C   UNL     1      -8.527   4.905  73.348  1.00  0.00    -0.106 C  
BRANCH  16  17
HETATM   17  C   UNL     1      -7.826   5.791  72.362  1.00  0.00    -0.103 C  
BRANCH  17  18
HETATM   18  C   UNL     1      -7.172   5.031  71.242  1.00  0.00    -0.068 C  
HETATM   19  C   UNL     1      -7.754   4.859  70.042  1.00  0.00    -0.059 C  
BRANCH  19  20
HETATM   20  C   UNL     1      -9.110   5.434  69.731  1.00  0.00    -0.157 C  
BRANCH  20  21
HETATM   21  C   UNL     1      -9.777   4.872  68.482  1.00  0.00    -0.218 C  
HETATM   22  C   UNL     1      -9.745   5.922  67.393  1.00  0.00    -0.117 C  
HETATM   23  O   UNL     1     -10.735   5.769  66.481  1.00  0.00    -0.276 OA 
HETATM   24  O   UNL     1      -8.915   6.808  67.298  1.00  0.00    -0.116 OA 
ENDBRANCH  20  21
ENDBRANCH  19  20
ENDBRANCH  17  18
ENDBRANCH  16  17
ENDBRANCH  14  15
ENDBRANCH  13  14
ENDBRANCH  11  12
ENDBRANCH  10  11
ENDBRANCH   8   9
ENDBRANCH   7   8
ENDBRANCH   5   6
ENDBRANCH   4   5
ENDBRANCH   2   3
TORSDOF 13
ENDMDL
MODEL      403
REMARK 921   NORMALIZED FREE ENERGY PREDICTED BY IDOCK:   -2.85 KCAL/MOL
REMARK 922        TOTAL FREE ENERGY PREDICTED BY IDOCK:   -7.79 KCAL/MOL
REMARK 923 INTER-LIGAND FREE ENERGY PREDICTED BY IDOCK:   -6.13 KCAL/MOL
REMARK 924 INTRA-LIGAND FREE ENERGY PREDICTED BY IDOCK:   -1.66 KCAL/MOL
REMARK 927      BINDING AFFINITY PREDICTED BY RF-SCORE:    0.00 PKD
ROOT
HETATM    1  C   UNL     1     -12.169  14.459  64.497  1.00  0.00    -0.483 C  
HETATM    2  C   UNL     1     -11.019  13.783  65.225  1.00  0.00    -0.322 C  
ENDROOT
BRANCH   2   3
HETATM    3  C   UNL     1     -10.530  14.584  66.398  1.00  0.00    -0.295 C  
HETATM    4  C   UNL     1     -10.697  14.253  67.690  1.00  0.00    -0.259 C  
BRANCH   4   5
HETATM    5  C   UNL     1     -11.484  13.076  68.195  1.00  0.00    -0.356 C  
BRANCH   5   6
HETATM    6  C   UNL     1     -12.029  13.315  69.576  1.00  0.00    -0.366 C  
HETATM    7  C   UNL     1     -12.403  12.371  70.457  1.00  0.00    -0.346 C  
BRANCH   7   8
HETATM    8  C   UNL     1     -12.367  10.895  70.189  1.00  0.00    -0.399 C  
BRANCH   8   9
HETATM    9  C   UNL     1     -11.814  10.114  71.344  1.00  0.00    -0.414 C  
HETATM   10  C   UNL     1     -10.963   9.076  71.276  1.00  0.00    -0.384 C  
BRANCH  10  11
HETATM   11  C   UNL     1     -10.318   8.513  70.038  1.00  0.00    -0.213 C  
BRANCH  11  12
HETATM   12  C   UNL     1      -9.104   9.286  69.599  1.00  0.00    -0.173 C  
HETATM   13  C   UNL     1      -7.821   8.939  69.787  1.00  0.00    -0.090 C  
BRANCH  13  14
HETATM   14  C   UNL     1      -7.351   7.742  70.544  1.00  0.00    -0.072 C  
BRANCH  14  15
HETATM   15  C   UNL     1      -7.870   7.694  71.954  1.00  0.00    -0.096 C  
HETATM   16  C   UNL     1      -8.075   6.547  72.625  1.00  0.00    -0.103 C  
BRANCH  16  17
HETATM   17  C   UNL     1      -7.873   5.182  72.038  1.00  0.00    -0.111 C  
BRANCH  17  18
HETATM   18  C   UNL     1      -9.102   4.318  72.110  1.00  0.00    -0.150 C  
HETATM   19  C   UNL     1      -9.878   4.067  71.041  1.00  0.00    -0.230 C  
BRANCH  19  20
HETATM   20  C   UNL     1      -9.559   4.630  69.682  1.00  0.00    -0.262 C  
BRANCH  20  21
HETATM   21  C   UNL     1     -10.663   5.475  69.058  1.00  0.00    -0.231 C  
HETATM   22  C   UNL     1     -10.473   5.502  67.557  1.00  0.00    -0.204 C  
HETATM   23  O   UNL     1     -11.012   6.600  66.976  1.00  0.00    -0.376 OA 
HETATM   24  O   UNL     1      -9.923   4.633  66.904  1.00  0.00    -0.199 OA 
ENDBRANCH  20  21
ENDBRANCH  19  20
ENDBRANCH  17  18
ENDBRANCH  16  17
ENDBRANCH  14  15
ENDBRANCH  13  14
ENDBRANCH  11  12
ENDBRANCH  10  11
ENDBRANCH   8   9
ENDBRANCH   7   8
ENDBRANCH   5   6
ENDBRANCH   4   5
ENDBRANCH   2   3
TORSDOF 13
ENDMDL
MODEL      404
REMARK 921   NORMALIZED FREE ENERGY PREDICTED BY IDOCK:   -2.85 KCAL/MOL
REMARK 922        TOTAL FREE ENERGY PREDICTED BY IDOCK:   -7.79 KCAL/MOL
REMARK 923 INTER-LIGAND FREE ENERGY PREDICTED BY IDOCK:   -5.42 KCAL/MOL
REMARK 924 INTRA-LIGAND FREE ENERGY PREDICTED BY IDOCK:   -2.36 KCAL/MOL
REMARK 927      BINDING AFFINITY PREDICTED BY RF-SCORE:    0.00 PKD
ROOT
HETATM    1  C   UNL     1      -9.892  14.897  66.429  1.00  0.00    -0.292 C  
HETATM    2  C   UNL     1     -11.207  14.450  67.045  1.00  0.00    -0.336 C  
ENDROOT
BRANCH   2   3
HETATM    3  C   UNL     1     -12.061  13.673  66.082  1.00  0.00    -0.477 C  
HETATM    4  C   UNL     1     -11.957  12.356  65.838  1.00  0.00    -0.434 C  
BRANCH   4   5
HETATM    5  C   UNL     1     -10.910  11.442  66.413  1.00  0.00    -0.323 C  
BRANCH   5   6
HETATM    6  C   UNL     1     -11.327  10.879  67.744  1.00  0.00    -0.366 C  
HETATM    7  C   UNL     1     -10.903   9.723  68.285  1.00  0.00    -0.256 C  
BRANCH   7   8
HETATM    8  C   UNL     1      -9.951   8.771  67.622  1.00  0.00    -0.247 C  
BRANCH   8   9
HETATM    9  C   UNL     1     -10.646   7.577  67.037  1.00  0.00    -0.409 C  
HETATM   10  C   UNL     1     -10.945   6.432  67.675  1.00  0.00    -0.441 C  
BRANCH  10  11
HETATM   11  C   UNL     1     -10.720   6.120  69.130  1.00  0.00    -0.381 C  
BRANCH  11  12
HETATM   12  C   UNL     1      -9.745   4.997  69.351  1.00  0.00    -0.254 C  
HETATM   13  C   UNL     1      -8.431   5.010  69.078  1.00  0.00    -0.084 C  
BRANCH  13  14
HETATM   14  C   UNL     1      -7.694   6.131  68.424  1.00  0.00    -0.103 C  
BRANCH  14  15
HETATM   15  C   UNL     1      -6.325   6.355  69.003  1.00  0.00    -0.038 C  
HETATM   16  C   UNL     1      -5.770   7.572  69.134  1.00  0.00    -0.026 C  
BRANCH  16  17
HETATM   17  C   UNL     1      -6.413   8.844  68.666  1.00  0.00    -0.054 C  
BRANCH  17  18
HETATM   18  C   UNL     1      -6.913   9.705  69.793  1.00  0.00    -0.078 C  
HETATM   19  C   UNL     1      -7.418  10.937  69.598  1.00  0.00    -0.030 C  
BRANCH  19  20
HETATM   20  C   UNL     1      -7.529  11.537  68.222  1.00  0.00    -0.103 C  
BRANCH  20  21
HETATM   21  C   UNL     1      -6.389  12.470  67.833  1.00  0.00    -0.103 C  
HETATM   22  C   UNL     1      -6.784  13.893  68.165  1.00  0.00    -0.125 C  
HETATM   23  O   UNL     1      -6.141  14.812  67.404  1.00  0.00    -0.338 OA 
HETATM   24  O   UNL     1      -7.570  14.217  69.037  1.00  0.00    -0.126 OA 
ENDBRANCH  20  21
ENDBRANCH  19  20
ENDBRANCH  17  18
ENDBRANCH  16  17
ENDBRANCH  14  15
ENDBRANCH  13  14
ENDBRANCH  11  12
ENDBRANCH  10  11
ENDBRANCH   8   9
ENDBRANCH   7   8
ENDBRANCH   5   6
ENDBRANCH   4   5
ENDBRANCH   2   3
TORSDOF 13
ENDMDL
MODEL      405
REMARK 921   NORMALIZED FREE ENERGY PREDICTED BY IDOCK:   -2.82 KCAL/MOL
REMARK 922        TOTAL FREE ENERGY PREDICTED BY IDOCK:   -7.74 KCAL/MOL
REMARK 923 INTER-LIGAND FREE ENERGY PREDICTED BY IDOCK:   -5.22 KCAL/MOL
REMARK 924 INTRA-LIGAND FREE ENERGY PREDICTED BY IDOCK:   -2.51 KCAL/MOL
REMARK 927      BINDING AFFINITY PREDICTED BY RF-SCORE:    0.00 PKD
ROOT
HETATM    1  C   UNL     1      -8.629   9.001  64.093  1.00  0.00    -0.165 C  
HETATM    2  C   UNL     1      -7.380   8.958  64.956  1.00  0.00    -0.095 C  
ENDROOT
BRANCH   2   3
HETATM    3  C   UNL     1      -7.416   7.849  65.969  1.00  0.00    -0.078 C  
HETATM    4  C   UNL     1      -7.920   7.945  67.211  1.00  0.00    -0.118 C  
BRANCH   4   5
HETATM    5  C   UNL     1      -8.452   9.202  67.841  1.00  0.00    -0.117 C  
BRANCH   5   6
HETATM    6  C   UNL     1      -7.378   9.961  68.571  1.00  0.00    -0.078 C  
HETATM    7  C   UNL     1      -7.127   9.911  69.891  1.00  0.00    -0.118 C  
BRANCH   7   8
HETATM    8  C   UNL     1      -7.913   9.097  70.877  1.00  0.00    -0.192 C  
BRANCH   8   9
HETATM    9  C   UNL     1      -7.145   7.915  71.390  1.00  0.00    -0.060 C  
HETATM   10  C   UNL     1      -7.406   6.620  71.141  1.00  0.00    -0.079 C  
BRANCH  10  11
HETATM   11  C   UNL     1      -8.474   6.069  70.237  1.00  0.00    -0.124 C  
BRANCH  11  12
HETATM   12  C   UNL     1      -8.835   4.642  70.546  1.00  0.00    -0.141 C  
HETATM   13  C   UNL     1      -9.884   4.218  71.269  1.00  0.00    -0.257 C  
BRANCH  13  14
HETATM   14  C   UNL     1     -10.861   5.099  71.974  1.00  0.00    -0.194 C  
BRANCH  14  15
HETATM   15  C   UNL     1     -10.388   5.535  73.333  1.00  0.00    -0.243 C  
HETATM   16  C   UNL     1     -10.313   6.823  73.709  1.00  0.00    -0.397 C  
BRANCH  16  17
HETATM   17  C   UNL     1     -10.627   7.981  72.809  1.00  0.00    -0.420 C  
BRANCH  17  18
HETATM   18  C   UNL     1     -12.084   8.353  72.807  1.00  0.00    -0.187 C  
HETATM   19  C   UNL     1     -12.611   9.225  71.930  1.00  0.00    -0.468 C  
BRANCH  19  20
HETATM   20  C   UNL     1     -11.771   9.885  70.869  1.00  0.00    -0.449 C  
BRANCH  20  21
HETATM   21  C   UNL     1     -12.431  11.065  70.167  1.00  0.00    -0.344 C  
HETATM   22  C   UNL     1     -11.694  11.342  68.874  1.00  0.00    -0.343 C  
HETATM   23  O   UNL     1     -11.815  12.627  68.461  1.00  0.00    -0.306 OA 
HETATM   24  O   UNL     1     -11.073  10.516  68.230  1.00  0.00    -0.249 OA 
ENDBRANCH  20  21
ENDBRANCH  19  20
ENDBRANCH  17  18
ENDBRANCH  16  17
ENDBRANCH  14  15
ENDBRANCH  13  14
ENDBRANCH  11  12
ENDBRANCH  10  11
ENDBRANCH   8   9
ENDBRANCH   7   8
ENDBRANCH   5   6
ENDBRANCH   4   5
ENDBRANCH   2   3
TORSDOF 13
ENDMDL
MODEL      406
REMARK 921   NORMALIZED FREE ENERGY PREDICTED BY IDOCK:   -2.81 KCAL/MOL
REMARK 922        TOTAL FREE ENERGY PREDICTED BY IDOCK:   -7.71 KCAL/MOL
REMARK 923 INTER-LIGAND FREE ENERGY PREDICTED BY IDOCK:   -6.29 KCAL/MOL
REMARK 924 INTRA-LIGAND FREE ENERGY PREDICTED BY IDOCK:   -1.43 KCAL/MOL
REMARK 927      BINDING AFFINITY PREDICTED BY RF-SCORE:    0.00 PKD
ROOT
HETATM    1  C   UNL     1     -11.044  15.822  66.123  1.00  0.00    -0.078 C  
HETATM    2  C   UNL     1     -10.707  15.170  64.793  1.00  0.00    -0.344 C  
ENDROOT
BRANCH   2   3
HETATM    3  C   UNL     1     -11.688  14.096  64.413  1.00  0.00    -0.409 C  
HETATM    4  C   UNL     1     -11.589  12.798  64.747  1.00  0.00    -0.368 C  
BRANCH   4   5
HETATM    5  C   UNL     1     -10.435  12.172  65.479  1.00  0.00    -0.300 C  
BRANCH   5   6
HETATM    6  C   UNL     1     -10.754  11.933  66.929  1.00  0.00    -0.285 C  
HETATM    7  C   UNL     1     -10.350  10.885  67.669  1.00  0.00    -0.232 C  
BRANCH   7   8
HETATM    8  C   UNL     1      -9.527   9.743  67.150  1.00  0.00    -0.189 C  
BRANCH   8   9
HETATM    9  C   UNL     1     -10.368   8.580  66.713  1.00  0.00    -0.346 C  
HETATM   10  C   UNL     1     -10.607   7.457  67.412  1.00  0.00    -0.371 C  
BRANCH  10  11
HETATM   11  C   UNL     1     -10.152   7.147  68.812  1.00  0.00    -0.175 C  
BRANCH  11  12
HETATM   12  C   UNL     1     -11.193   6.432  69.629  1.00  0.00    -0.483 C  
HETATM   13  C   UNL     1     -11.904   6.942  70.647  1.00  0.00    -0.418 C  
BRANCH  13  14
HETATM   14  C   UNL     1     -11.739   8.312  71.215  1.00  0.00    -0.318 C  
BRANCH  14  15
HETATM   15  C   UNL     1     -10.371   8.888  70.981  1.00  0.00    -0.321 C  
HETATM   16  C   UNL     1      -9.355   8.751  71.850  1.00  0.00    -0.343 C  
BRANCH  16  17
HETATM   17  C   UNL     1      -9.472   8.068  73.180  1.00  0.00    -0.349 C  
BRANCH  17  18
HETATM   18  C   UNL     1      -8.296   7.189  73.501  1.00  0.00    -0.149 C  
HETATM   19  C   UNL     1      -8.250   5.886  73.170  1.00  0.00    -0.117 C  
BRANCH  19  20
HETATM   20  C   UNL     1      -9.380   5.216  72.435  1.00  0.00    -0.155 C  
BRANCH  20  21
HETATM   21  C   UNL     1     -10.575   4.836  73.300  1.00  0.00    -0.287 C  
HETATM   22  C   UNL     1     -10.526   3.349  73.580  1.00  0.00    -0.174 C  
HETATM   23  O   UNL     1     -11.746   2.820  73.842  1.00  0.00     0.006 OA 
HETATM   24  O   UNL     1      -9.513   2.673  73.602  1.00  0.00    -0.083 OA 
ENDBRANCH  20  21
ENDBRANCH  19  20
ENDBRANCH  17  18
ENDBRANCH  16  17
ENDBRANCH  14  15
ENDBRANCH  13  14
ENDBRANCH  11  12
ENDBRANCH  10  11
ENDBRANCH   8   9
ENDBRANCH   7   8
ENDBRANCH   5   6
ENDBRANCH   4   5
ENDBRANCH   2   3
TORSDOF 13
ENDMDL
MODEL      407
REMARK 921   NORMALIZED FREE ENERGY PREDICTED BY IDOCK:   -2.81 KCAL/MOL
REMARK 922        TOTAL FREE ENERGY PREDICTED BY IDOCK:   -7.71 KCAL/MOL
REMARK 923 INTER-LIGAND FREE ENERGY PREDICTED BY IDOCK:   -6.48 KCAL/MOL
REMARK 924 INTRA-LIGAND FREE ENERGY PREDICTED BY IDOCK:   -1.24 KCAL/MOL
REMARK 927      BINDING AFFINITY PREDICTED BY RF-SCORE:    0.00 PKD
ROOT
HETATM    1  C   UNL     1      -7.086  19.360  65.531  1.00  0.00    -0.238 C  
HETATM    2  C   UNL     1      -6.821  20.125  66.817  1.00  0.00    -0.265 C  
ENDROOT
BRANCH   2   3
HETATM    3  C   UNL     1      -8.085  20.463  67.557  1.00  0.00    -0.331 C  
HETATM    4  C   UNL     1      -9.096  19.612  67.800  1.00  0.00    -0.397 C  
BRANCH   4   5
HETATM    5  C   UNL     1      -9.186  18.199  67.296  1.00  0.00    -0.252 C  
BRANCH   5   6
HETATM    6  C   UNL     1     -10.501  17.560  67.650  1.00  0.00    -0.370 C  
HETATM    7  C   UNL     1     -10.678  16.308  68.107  1.00  0.00    -0.322 C  
BRANCH   7   8
HETATM    8  C   UNL     1      -9.574  15.313  68.312  1.00  0.00    -0.206 C  
BRANCH   8   9
HETATM    9  C   UNL     1      -8.578  15.762  69.340  1.00  0.00    -0.225 C  
HETATM   10  C   UNL     1      -7.522  15.065  69.791  1.00  0.00    -0.102 C  
BRANCH  10  11
HETATM   11  C   UNL     1      -7.057  13.715  69.315  1.00  0.00     0.018 C  
BRANCH  11  12
HETATM   12  C   UNL     1      -6.220  13.781  68.067  1.00  0.00    -0.141 C  
HETATM   13  C   UNL     1      -5.888  12.755  67.268  1.00  0.00    -0.019 C  
BRANCH  13  14
HETATM   14  C   UNL     1      -6.231  11.323  67.512  1.00  0.00    -0.064 C  
BRANCH  14  15
HETATM   15  C   UNL     1      -6.969  10.690  66.366  1.00  0.00    -0.129 C  
HETATM   16  C   UNL     1      -8.252  10.966  66.073  1.00  0.00    -0.155 C  
BRANCH  16  17
HETATM   17  C   UNL     1      -9.119  11.884  66.881  1.00  0.00    -0.196 C  
BRANCH  17  18
HETATM   18  C   UNL     1     -10.266  11.180  67.552  1.00  0.00    -0.216 C  
HETATM   19  C   UNL     1     -11.501  11.707  67.625  1.00  0.00    -0.373 C  
BRANCH  19  20
HETATM   20  C   UNL     1     -11.826  13.047  67.022  1.00  0.00    -0.437 C  
BRANCH  20  21
HETATM   21  C   UNL     1     -12.364  12.998  65.597  1.00  0.00    -0.504 C  
HETATM   22  C   UNL     1     -11.921  14.245  64.862  1.00  0.00    -0.425 C  
HETATM   23  O   UNL     1     -12.745  14.575  63.837  1.00  0.00    -0.782 OA 
HETATM   24  O   UNL     1     -10.922  14.892  65.117  1.00  0.00    -0.350 OA 
ENDBRANCH  20  21
ENDBRANCH  19  20
ENDBRANCH  17  18
ENDBRANCH  16  17
ENDBRANCH  14  15
ENDBRANCH  13  14
ENDBRANCH  11  12
ENDBRANCH  10  11
ENDBRANCH   8   9
ENDBRANCH   7   8
ENDBRANCH   5   6
ENDBRANCH   4   5
ENDBRANCH   2   3
TORSDOF 13
ENDMDL
MODEL      408
REMARK 921   NORMALIZED FREE ENERGY PREDICTED BY IDOCK:   -2.79 KCAL/MOL
REMARK 922        TOTAL FREE ENERGY PREDICTED BY IDOCK:   -7.69 KCAL/MOL
REMARK 923 INTER-LIGAND FREE ENERGY PREDICTED BY IDOCK:   -6.49 KCAL/MOL
REMARK 924 INTRA-LIGAND FREE ENERGY PREDICTED BY IDOCK:   -1.19 KCAL/MOL
REMARK 927      BINDING AFFINITY PREDICTED BY RF-SCORE:    0.00 PKD
ROOT
HETATM    1  C   UNL     1      -6.912   6.625  73.587  1.00  0.00    -0.076 C  
HETATM    2  C   UNL     1      -6.498   7.813  72.736  1.00  0.00    -0.066 C  
ENDROOT
BRANCH   2   3
HETATM    3  C   UNL     1      -5.757   7.403  71.495  1.00  0.00    -0.036 C  
HETATM    4  C   UNL     1      -6.192   7.580  70.235  1.00  0.00    -0.034 C  
BRANCH   4   5
HETATM    5  C   UNL     1      -7.533   8.134  69.845  1.00  0.00    -0.069 C  
BRANCH   5   6
HETATM    6  C   UNL     1      -8.663   7.303  70.388  1.00  0.00    -0.146 C  
HETATM    7  C   UNL     1      -9.951   7.368  70.008  1.00  0.00    -0.185 C  
BRANCH   7   8
HETATM    8  C   UNL     1     -10.488   8.322  68.982  1.00  0.00    -0.212 C  
BRANCH   8   9
HETATM    9  C   UNL     1     -10.476   7.743  67.597  1.00  0.00    -0.308 C  
HETATM   10  C   UNL     1     -10.035   8.346  66.480  1.00  0.00    -0.335 C  
BRANCH  10  11
HETATM   11  C   UNL     1      -9.388   9.701  66.377  1.00  0.00    -0.224 C  
BRANCH  11  12
HETATM   12  C   UNL     1      -9.678  10.400  65.077  1.00  0.00    -0.362 C  
HETATM   13  C   UNL     1     -10.507  11.439  64.893  1.00  0.00    -0.363 C  
BRANCH  13  14
HETATM   14  C   UNL     1     -11.366  12.058  65.946  1.00  0.00    -0.391 C  
BRANCH  14  15
HETATM   15  C   UNL     1     -12.424  12.967  65.385  1.00  0.00    -0.531 C  
HETATM   16  C   UNL     1     -12.238  14.285  65.196  1.00  0.00    -0.422 C  
BRANCH  16  17
HETATM   17  C   UNL     1     -10.987  15.020  65.575  1.00  0.00    -0.364 C  
BRANCH  17  18
HETATM   18  C   UNL     1     -11.024  15.573  66.973  1.00  0.00    -0.283 C  
HETATM   19  C   UNL     1     -10.769  16.864  67.253  1.00  0.00    -0.208 C  
BRANCH  19  20
HETATM   20  C   UNL     1     -10.438  17.856  66.170  1.00  0.00    -0.321 C  
BRANCH  20  21
HETATM   21  C   UNL     1      -9.966  19.217  66.668  1.00  0.00    -0.461 C  
HETATM   22  C   UNL     1      -8.456  19.274  66.584  1.00  0.00    -0.316 C  
HETATM   23  O   UNL     1      -7.911  20.150  67.462  1.00  0.00    -0.290 OA 
HETATM   24  O   UNL     1      -7.773  18.636  65.803  1.00  0.00    -0.491 OA 
ENDBRANCH  20  21
ENDBRANCH  19  20
ENDBRANCH  17  18
ENDBRANCH  16  17
ENDBRANCH  14  15
ENDBRANCH  13  14
ENDBRANCH  11  12
ENDBRANCH  10  11
ENDBRANCH   8   9
ENDBRANCH   7   8
ENDBRANCH   5   6
ENDBRANCH   4   5
ENDBRANCH   2   3
TORSDOF 13
ENDMDL
MODEL      409
REMARK 921   NORMALIZED FREE ENERGY PREDICTED BY IDOCK:   -2.79 KCAL/MOL
REMARK 922        TOTAL FREE ENERGY PREDICTED BY IDOCK:   -7.68 KCAL/MOL
REMARK 923 INTER-LIGAND FREE ENERGY PREDICTED BY IDOCK:   -5.28 KCAL/MOL
REMARK 924 INTRA-LIGAND FREE ENERGY PREDICTED BY IDOCK:   -2.40 KCAL/MOL
REMARK 927      BINDING AFFINITY PREDICTED BY RF-SCORE:    0.00 PKD
ROOT
HETATM    1  C   UNL     1      -9.287   8.725  65.756  1.00  0.00    -0.259 C  
HETATM    2  C   UNL     1     -10.378   8.559  66.801  1.00  0.00    -0.346 C  
ENDROOT
BRANCH   2   3
HETATM    3  C   UNL     1     -10.653   7.118  67.124  1.00  0.00    -0.417 C  
HETATM    4  C   UNL     1     -10.992   6.642  68.335  1.00  0.00    -0.313 C  
BRANCH   4   5
HETATM    5  C   UNL     1     -11.067   7.450  69.599  1.00  0.00    -0.129 C  
BRANCH   5   6
HETATM    6  C   UNL     1     -10.308   6.802  70.725  1.00  0.00    -0.227 C  
HETATM    7  C   UNL     1      -8.992   6.927  70.972  1.00  0.00    -0.151 C  
BRANCH   7   8
HETATM    8  C   UNL     1      -8.040   7.724  70.128  1.00  0.00    -0.117 C  
BRANCH   8   9
HETATM    9  C   UNL     1      -7.611   8.998  70.793  1.00  0.00    -0.131 C  
HETATM   10  C   UNL     1      -7.648  10.232  70.262  1.00  0.00     0.076 C  
BRANCH  10  11
HETATM   11  C   UNL     1      -8.197  10.622  68.916  1.00  0.00    -0.145 C  
BRANCH  11  12
HETATM   12  C   UNL     1      -7.135  10.756  67.859  1.00  0.00    -0.085 C  
HETATM   13  C   UNL     1      -6.667  11.898  67.332  1.00  0.00    -0.126 C  
BRANCH  13  14
HETATM   14  C   UNL     1      -7.172  13.267  67.646  1.00  0.00    -0.165 C  
BRANCH  14  15
HETATM   15  C   UNL     1      -6.612  13.823  68.926  1.00  0.00    -0.104 C  
HETATM   16  C   UNL     1      -7.191  14.825  69.609  1.00  0.00    -0.136 C  
BRANCH  16  17
HETATM   17  C   UNL     1      -8.422  15.551  69.155  1.00  0.00    -0.248 C  
BRANCH  17  18
HETATM   18  C   UNL     1      -8.144  16.951  68.682  1.00  0.00    -0.253 C  
HETATM   19  C   UNL     1      -8.214  17.308  67.386  1.00  0.00    -0.204 C  
BRANCH  19  20
HETATM   20  C   UNL     1      -8.592  16.322  66.314  1.00  0.00    -0.374 C  
BRANCH  20  21
HETATM   21  C   UNL     1     -10.067  16.324  65.929  1.00  0.00    -0.381 C  
HETATM   22  C   UNL     1     -10.439  14.953  65.405  1.00  0.00    -0.384 C  
HETATM   23  O   UNL     1     -11.498  14.981  64.560  1.00  0.00    -0.373 OA 
HETATM   24  O   UNL     1      -9.887  13.912  65.710  1.00  0.00    -0.291 OA 
ENDBRANCH  20  21
ENDBRANCH  19  20
ENDBRANCH  17  18
ENDBRANCH  16  17
ENDBRANCH  14  15
ENDBRANCH  13  14
ENDBRANCH  11  12
ENDBRANCH  10  11
ENDBRANCH   8   9
ENDBRANCH   7   8
ENDBRANCH   5   6
ENDBRANCH   4   5
ENDBRANCH   2   3
TORSDOF 13
ENDMDL
MODEL      410
REMARK 921   NORMALIZED FREE ENERGY PREDICTED BY IDOCK:   -2.78 KCAL/MOL
REMARK 922        TOTAL FREE ENERGY PREDICTED BY IDOCK:   -7.67 KCAL/MOL
REMARK 923 INTER-LIGAND FREE ENERGY PREDICTED BY IDOCK:   -5.89 KCAL/MOL
REMARK 924 INTRA-LIGAND FREE ENERGY PREDICTED BY IDOCK:   -1.78 KCAL/MOL
REMARK 927      BINDING AFFINITY PREDICTED BY RF-SCORE:    0.00 PKD
ROOT
HETATM    1  C   UNL     1      -7.051  14.932  67.572  1.00  0.00    -0.215 C  
HETATM    2  C   UNL     1      -8.170  15.825  67.062  1.00  0.00    -0.262 C  
ENDROOT
BRANCH   2   3
HETATM    3  C   UNL     1      -9.215  16.094  68.109  1.00  0.00    -0.193 C  
HETATM    4  C   UNL     1     -10.454  15.575  68.122  1.00  0.00    -0.259 C  
BRANCH   4   5
HETATM    5  C   UNL     1     -11.049  14.710  67.046  1.00  0.00    -0.333 C  
BRANCH   5   6
HETATM    6  C   UNL     1     -10.742  13.253  67.264  1.00  0.00    -0.262 C  
HETATM    7  C   UNL     1     -11.034  12.245  66.423  1.00  0.00    -0.326 C  
BRANCH   7   8
HETATM    8  C   UNL     1     -11.757  12.408  65.118  1.00  0.00    -0.430 C  
BRANCH   8   9
HETATM    9  C   UNL     1     -10.836  12.779  63.993  1.00  0.00    -0.458 C  
HETATM   10  C   UNL     1      -9.925  11.984  63.408  1.00  0.00    -0.384 C  
BRANCH  10  11
HETATM   11  C   UNL     1      -9.675  10.528  63.695  1.00  0.00    -0.375 C  
BRANCH  11  12
HETATM   12  C   UNL     1      -8.463  10.293  64.555  1.00  0.00    -0.183 C  
HETATM   13  C   UNL     1      -8.407   9.559  65.678  1.00  0.00    -0.131 C  
BRANCH  13  14
HETATM   14  C   UNL     1      -9.569   8.890  66.334  1.00  0.00    -0.304 C  
BRANCH  14  15
HETATM   15  C   UNL     1      -9.493   7.390  66.280  1.00  0.00    -0.144 C  
HETATM   16  C   UNL     1      -9.929   6.594  67.272  1.00  0.00    -0.199 C  
BRANCH  16  17
HETATM   17  C   UNL     1     -10.483   7.097  68.571  1.00  0.00    -0.229 C  
BRANCH  17  18
HETATM   18  C   UNL     1     -10.971   5.998  69.473  1.00  0.00    -0.467 C  
HETATM   19  C   UNL     1     -10.399   5.722  70.659  1.00  0.00    -0.310 C  
BRANCH  19  20
HETATM   20  C   UNL     1      -9.226   6.513  71.175  1.00  0.00    -0.156 C  
BRANCH  20  21
HETATM   21  C   UNL     1      -8.042   5.678  71.644  1.00  0.00    -0.118 C  
HETATM   22  C   UNL     1      -7.397   5.021  70.442  1.00  0.00    -0.055 C  
HETATM   23  O   UNL     1      -6.732   3.883  70.755  1.00  0.00    -0.031 OA 
HETATM   24  O   UNL     1      -7.427   5.456  69.305  1.00  0.00    -0.070 OA 
ENDBRANCH  20  21
ENDBRANCH  19  20
ENDBRANCH  17  18
ENDBRANCH  16  17
ENDBRANCH  14  15
ENDBRANCH  13  14
ENDBRANCH  11  12
ENDBRANCH  10  11
ENDBRANCH   8   9
ENDBRANCH   7   8
ENDBRANCH   5   6
ENDBRANCH   4   5
ENDBRANCH   2   3
TORSDOF 13
ENDMDL
MODEL      411
REMARK 921   NORMALIZED FREE ENERGY PREDICTED BY IDOCK:   -2.77 KCAL/MOL
REMARK 922        TOTAL FREE ENERGY PREDICTED BY IDOCK:   -7.64 KCAL/MOL
REMARK 923 INTER-LIGAND FREE ENERGY PREDICTED BY IDOCK:   -4.86 KCAL/MOL
REMARK 924 INTRA-LIGAND FREE ENERGY PREDICTED BY IDOCK:   -2.79 KCAL/MOL
REMARK 927      BINDING AFFINITY PREDICTED BY RF-SCORE:    0.00 PKD
ROOT
HETATM    1  C   UNL     1     -12.137   9.092  71.419  1.00  0.00    -0.392 C  
HETATM    2  C   UNL     1     -12.001  10.585  71.172  1.00  0.00    -0.435 C  
ENDROOT
BRANCH   2   3
HETATM    3  C   UNL     1     -12.483  10.990  69.808  1.00  0.00    -0.251 C  
HETATM    4  C   UNL     1     -11.780  10.873  68.668  1.00  0.00    -0.334 C  
BRANCH   4   5
HETATM    5  C   UNL     1     -10.356  10.403  68.565  1.00  0.00    -0.197 C  
BRANCH   5   6
HETATM    6  C   UNL     1     -10.167   9.428  67.436  1.00  0.00    -0.298 C  
HETATM    7  C   UNL     1      -9.437   9.631  66.325  1.00  0.00    -0.255 C  
BRANCH   7   8
HETATM    8  C   UNL     1      -8.704  10.901  66.009  1.00  0.00    -0.192 C  
BRANCH   8   9
HETATM    9  C   UNL     1      -7.228  10.791  66.254  1.00  0.00    -0.137 C  
HETATM   10  C   UNL     1      -6.547  11.307  67.292  1.00  0.00    -0.093 C  
BRANCH  10  11
HETATM   11  C   UNL     1      -7.118  12.044  68.473  1.00  0.00    -0.098 C  
BRANCH  11  12
HETATM   12  C   UNL     1      -6.398  11.748  69.760  1.00  0.00    -0.125 C  
HETATM   13  C   UNL     1      -6.534  10.651  70.522  1.00  0.00    -0.045 C  
BRANCH  13  14
HETATM   14  C   UNL     1      -7.494   9.537  70.268  1.00  0.00    -0.148 C  
BRANCH  14  15
HETATM   15  C   UNL     1      -7.178   8.296  71.056  1.00  0.00    -0.061 C  
HETATM   16  C   UNL     1      -7.671   7.083  70.750  1.00  0.00    -0.095 C  
BRANCH  16  17
HETATM   17  C   UNL     1      -8.637   6.826  69.633  1.00  0.00    -0.133 C  
BRANCH  17  18
HETATM   18  C   UNL     1      -9.903   6.153  70.087  1.00  0.00    -0.209 C  
HETATM   19  C   UNL     1     -10.846   5.723  69.229  1.00  0.00    -0.374 C  
BRANCH  19  20
HETATM   20  C   UNL     1     -10.690   5.877  67.740  1.00  0.00    -0.346 C  
BRANCH  20  21
HETATM   21  C   UNL     1     -10.210   4.628  67.011  1.00  0.00    -0.174 C  
HETATM   22  C   UNL     1      -9.444   5.045  65.774  1.00  0.00    -0.157 C  
HETATM   23  O   UNL     1      -9.449   4.099  64.805  1.00  0.00    -0.153 OA 
HETATM   24  O   UNL     1      -8.849   6.100  65.640  1.00  0.00    -0.153 OA 
ENDBRANCH  20  21
ENDBRANCH  19  20
ENDBRANCH  17  18
ENDBRANCH  16  17
ENDBRANCH  14  15
ENDBRANCH  13  14
ENDBRANCH  11  12
ENDBRANCH  10  11
ENDBRANCH   8   9
ENDBRANCH   7   8
ENDBRANCH   5   6
ENDBRANCH   4   5
ENDBRANCH   2   3
TORSDOF 13
ENDMDL
MODEL      412
REMARK 921   NORMALIZED FREE ENERGY PREDICTED BY IDOCK:   -2.76 KCAL/MOL
REMARK 922        TOTAL FREE ENERGY PREDICTED BY IDOCK:   -7.63 KCAL/MOL
REMARK 923 INTER-LIGAND FREE ENERGY PREDICTED BY IDOCK:   -6.32 KCAL/MOL
REMARK 924 INTRA-LIGAND FREE ENERGY PREDICTED BY IDOCK:   -1.31 KCAL/MOL
REMARK 927      BINDING AFFINITY PREDICTED BY RF-SCORE:    0.00 PKD
ROOT
HETATM    1  C   UNL     1      -7.181  20.261  67.495  1.00  0.00    -0.333 C  
HETATM    2  C   UNL     1      -8.086  19.196  66.898  1.00  0.00    -0.277 C  
ENDROOT
BRANCH   2   3
HETATM    3  C   UNL     1      -9.543  19.489  67.116  1.00  0.00    -0.430 C  
HETATM    4  C   UNL     1     -10.415  18.680  67.742  1.00  0.00    -0.457 C  
BRANCH   4   5
HETATM    5  C   UNL     1     -10.111  17.299  68.253  1.00  0.00    -0.321 C  
BRANCH   5   6
HETATM    6  C   UNL     1     -11.288  16.693  68.968  1.00  0.00    -0.090 C  
HETATM    7  C   UNL     1     -11.795  15.465  68.764  1.00  0.00    -0.339 C  
BRANCH   7   8
HETATM    8  C   UNL     1     -11.280  14.490  67.747  1.00  0.00    -0.312 C  
BRANCH   8   9
HETATM    9  C   UNL     1     -12.115  14.465  66.500  1.00  0.00    -0.395 C  
HETATM   10  C   UNL     1     -11.797  13.875  65.335  1.00  0.00    -0.363 C  
BRANCH  10  11
HETATM   11  C   UNL     1     -10.575  13.048  65.041  1.00  0.00    -0.336 C  
BRANCH  11  12
HETATM   12  C   UNL     1     -10.894  11.721  64.409  1.00  0.00    -0.389 C  
HETATM   13  C   UNL     1     -10.315  10.542  64.682  1.00  0.00    -0.290 C  
BRANCH  13  14
HETATM   14  C   UNL     1      -9.177  10.335  65.626  1.00  0.00    -0.225 C  
BRANCH  14  15
HETATM   15  C   UNL     1      -9.618  10.162  67.053  1.00  0.00    -0.209 C  
HETATM   16  C   UNL     1      -9.454   9.019  67.742  1.00  0.00    -0.162 C  
BRANCH  16  17
HETATM   17  C   UNL     1      -8.873   7.765  67.162  1.00  0.00    -0.130 C  
BRANCH  17  18
HETATM   18  C   UNL     1      -9.894   6.900  66.475  1.00  0.00    -0.168 C  
HETATM   19  C   UNL     1     -10.539   5.900  67.102  1.00  0.00    -0.373 C  
BRANCH  19  20
HETATM   20  C   UNL     1     -10.291   5.585  68.553  1.00  0.00    -0.247 C  
BRANCH  20  21
HETATM   21  C   UNL     1      -9.348   4.415  68.805  1.00  0.00    -0.213 C  
HETATM   22  C   UNL     1      -8.735   4.565  70.181  1.00  0.00    -0.077 C  
HETATM   23  O   UNL     1      -7.536   3.945  70.297  1.00  0.00    -0.044 OA 
HETATM   24  O   UNL     1      -9.250   5.150  71.117  1.00  0.00    -0.139 OA 
ENDBRANCH  20  21
ENDBRANCH  19  20
ENDBRANCH  17  18
ENDBRANCH  16  17
ENDBRANCH  14  15
ENDBRANCH  13  14
ENDBRANCH  11  12
ENDBRANCH  10  11
ENDBRANCH   8   9
ENDBRANCH   7   8
ENDBRANCH   5   6
ENDBRANCH   4   5
ENDBRANCH   2   3
TORSDOF 13
ENDMDL
MODEL      413
REMARK 921   NORMALIZED FREE ENERGY PREDICTED BY IDOCK:   -2.74 KCAL/MOL
REMARK 922        TOTAL FREE ENERGY PREDICTED BY IDOCK:   -7.60 KCAL/MOL
REMARK 923 INTER-LIGAND FREE ENERGY PREDICTED BY IDOCK:   -6.77 KCAL/MOL
REMARK 924 INTRA-LIGAND FREE ENERGY PREDICTED BY IDOCK:   -0.82 KCAL/MOL
REMARK 927      BINDING AFFINITY PREDICTED BY RF-SCORE:    0.00 PKD
ROOT
HETATM    1  C   UNL     1      -7.984   7.145  62.787  1.00  0.00    -0.107 C  
HETATM    2  C   UNL     1      -7.574   7.586  64.182  1.00  0.00    -0.109 C  
ENDROOT
BRANCH   2   3
HETATM    3  C   UNL     1      -6.925   8.942  64.191  1.00  0.00    -0.089 C  
HETATM    4  C   UNL     1      -7.510  10.082  64.597  1.00  0.00    -0.143 C  
BRANCH   4   5
HETATM    5  C   UNL     1      -8.944  10.221  65.027  1.00  0.00    -0.225 C  
BRANCH   5   6
HETATM    6  C   UNL     1      -9.865  10.418  63.853  1.00  0.00    -0.332 C  
HETATM    7  C   UNL     1     -10.474  11.565  63.506  1.00  0.00    -0.486 C  
BRANCH   7   8
HETATM    8  C   UNL     1     -10.359  12.854  64.264  1.00  0.00    -0.396 C  
BRANCH   8   9
HETATM    9  C   UNL     1     -11.653  13.263  64.905  1.00  0.00    -0.353 C  
HETATM   10  C   UNL     1     -12.115  12.865  66.103  1.00  0.00    -0.458 C  
BRANCH  10  11
HETATM   11  C   UNL     1     -11.409  11.986  67.100  1.00  0.00    -0.396 C  
BRANCH  11  12
HETATM   12  C   UNL     1     -11.737  12.326  68.527  1.00  0.00    -0.381 C  
HETATM   13  C   UNL     1     -11.570  11.536  69.599  1.00  0.00    -0.403 C  
BRANCH  13  14
HETATM   14  C   UNL     1     -11.090  10.123  69.566  1.00  0.00    -0.295 C  
BRANCH  14  15
HETATM   15  C   UNL     1     -10.861   9.611  68.171  1.00  0.00    -0.241 C  
HETATM   16  C   UNL     1     -10.108   8.531  67.897  1.00  0.00    -0.258 C  
BRANCH  16  17
HETATM   17  C   UNL     1      -9.358   7.745  68.930  1.00  0.00    -0.146 C  
BRANCH  17  18
HETATM   18  C   UNL     1      -9.484   6.257  68.751  1.00  0.00    -0.124 C  
HETATM   19  C   UNL     1     -10.330   5.506  69.479  1.00  0.00    -0.357 C  
BRANCH  19  20
HETATM   20  C   UNL     1     -11.227   6.113  70.525  1.00  0.00    -0.403 C  
BRANCH  20  21
HETATM   21  C   UNL     1     -10.507   6.902  71.611  1.00  0.00    -0.224 C  
HETATM   22  C   UNL     1     -10.735   6.223  72.944  1.00  0.00    -0.247 C  
HETATM   23  O   UNL     1     -10.632   7.072  73.995  1.00  0.00    -0.341 OA 
HETATM   24  O   UNL     1     -10.960   5.035  73.097  1.00  0.00    -0.257 OA 
ENDBRANCH  20  21
ENDBRANCH  19  20
ENDBRANCH  17  18
ENDBRANCH  16  17
ENDBRANCH  14  15
ENDBRANCH  13  14
ENDBRANCH  11  12
ENDBRANCH  10  11
ENDBRANCH   8   9
ENDBRANCH   7   8
ENDBRANCH   5   6
ENDBRANCH   4   5
ENDBRANCH   2   3
TORSDOF 13
ENDMDL
MODEL      414
REMARK 921   NORMALIZED FREE ENERGY PREDICTED BY IDOCK:   -2.71 KCAL/MOL
REMARK 922        TOTAL FREE ENERGY PREDICTED BY IDOCK:   -7.55 KCAL/MOL
REMARK 923 INTER-LIGAND FREE ENERGY PREDICTED BY IDOCK:   -5.52 KCAL/MOL
REMARK 924 INTRA-LIGAND FREE ENERGY PREDICTED BY IDOCK:   -2.04 KCAL/MOL
REMARK 927      BINDING AFFINITY PREDICTED BY RF-SCORE:    0.00 PKD
ROOT
HETATM    1  C   UNL     1      -9.573  14.963  69.864  1.00  0.00     0.211 C  
HETATM    2  C   UNL     1     -10.765  15.894  69.708  1.00  0.00    -0.324 C  
ENDROOT
BRANCH   2   3
HETATM    3  C   UNL     1     -11.564  16.023  70.974  1.00  0.00    -0.472 C  
HETATM    4  C   UNL     1     -12.453  15.122  71.428  1.00  0.00    -0.413 C  
BRANCH   4   5
HETATM    5  C   UNL     1     -12.873  13.872  70.708  1.00  0.00    -0.329 C  
BRANCH   5   6
HETATM    6  C   UNL     1     -12.631  12.639  71.534  1.00  0.00    -0.256 C  
HETATM    7  C   UNL     1     -12.523  11.381  71.072  1.00  0.00    -0.486 C  
BRANCH   7   8
HETATM    8  C   UNL     1     -12.661  10.990  69.630  1.00  0.00     0.059 C  
BRANCH   8   9
HETATM    9  C   UNL     1     -11.500  11.444  68.797  1.00  0.00    -0.354 C  
HETATM   10  C   UNL     1     -10.314  10.824  68.668  1.00  0.00    -0.208 C  
BRANCH  10  11
HETATM   11  C   UNL     1      -9.913   9.503  69.266  1.00  0.00    -0.191 C  
BRANCH  11  12
HETATM   12  C   UNL     1      -9.276   9.636  70.622  1.00  0.00    -0.148 C  
HETATM   13  C   UNL     1      -9.618   8.972  71.738  1.00  0.00    -0.278 C  
BRANCH  13  14
HETATM   14  C   UNL     1     -10.760   8.019  71.861  1.00  0.00    -0.311 C  
BRANCH  14  15
HETATM   15  C   UNL     1     -11.000   7.565  73.274  1.00  0.00    -0.362 C  
HETATM   16  C   UNL     1     -10.757   6.312  73.696  1.00  0.00    -0.229 C  
BRANCH  16  17
HETATM   17  C   UNL     1     -10.280   5.203  72.807  1.00  0.00    -0.222 C  
BRANCH  17  18
HETATM   18  C   UNL     1      -8.859   5.379  72.348  1.00  0.00    -0.132 C  
HETATM   19  C   UNL     1      -8.410   4.905  71.172  1.00  0.00    -0.114 C  
BRANCH  19  20
HETATM   20  C   UNL     1      -9.314   4.171  70.218  1.00  0.00    -0.232 C  
BRANCH  20  21
HETATM   21  C   UNL     1     -10.237   5.060  69.393  1.00  0.00    -0.268 C  
HETATM   22  C   UNL     1      -9.917   4.874  67.926  1.00  0.00    -0.123 C  
HETATM   23  O   UNL     1     -10.252   5.948  67.171  1.00  0.00    -0.157 OA 
HETATM   24  O   UNL     1      -9.435   3.868  67.435  1.00  0.00    -0.178 OA 
ENDBRANCH  20  21
ENDBRANCH  19  20
ENDBRANCH  17  18
ENDBRANCH  16  17
ENDBRANCH  14  15
ENDBRANCH  13  14
ENDBRANCH  11  12
ENDBRANCH  10  11
ENDBRANCH   8   9
ENDBRANCH   7   8
ENDBRANCH   5   6
ENDBRANCH   4   5
ENDBRANCH   2   3
TORSDOF 13
ENDMDL
MODEL      415
REMARK 921   NORMALIZED FREE ENERGY PREDICTED BY IDOCK:   -2.71 KCAL/MOL
REMARK 922        TOTAL FREE ENERGY PREDICTED BY IDOCK:   -7.55 KCAL/MOL
REMARK 923 INTER-LIGAND FREE ENERGY PREDICTED BY IDOCK:   -5.65 KCAL/MOL
REMARK 924 INTRA-LIGAND FREE ENERGY PREDICTED BY IDOCK:   -1.90 KCAL/MOL
REMARK 927      BINDING AFFINITY PREDICTED BY RF-SCORE:    0.00 PKD
ROOT
HETATM    1  C   UNL     1     -12.179  10.290  70.871  1.00  0.00    -0.465 C  
HETATM    2  C   UNL     1     -11.182  10.804  69.847  1.00  0.00    -0.371 C  
ENDROOT
BRANCH   2   3
HETATM    3  C   UNL     1     -11.528  10.389  68.445  1.00  0.00    -0.227 C  
HETATM    4  C   UNL     1     -10.653  10.255  67.434  1.00  0.00    -0.324 C  
BRANCH   4   5
HETATM    5  C   UNL     1      -9.188  10.586  67.499  1.00  0.00    -0.152 C  
BRANCH   5   6
HETATM    6  C   UNL     1      -8.693  11.193  66.215  1.00  0.00    -0.183 C  
HETATM    7  C   UNL     1      -8.967  12.430  65.764  1.00  0.00     0.277 C  
BRANCH   7   8
HETATM    8  C   UNL     1      -9.856  13.414  66.465  1.00  0.00    -0.286 C  
BRANCH   8   9
HETATM    9  C   UNL     1     -10.573  14.323  65.511  1.00  0.00    -0.351 C  
HETATM   10  C   UNL     1     -10.586  15.667  65.540  1.00  0.00    -0.422 C  
BRANCH  10  11
HETATM   11  C   UNL     1      -9.828  16.559  66.486  1.00  0.00    -0.292 C  
BRANCH  11  12
HETATM   12  C   UNL     1     -10.401  17.947  66.579  1.00  0.00    -0.362 C  
HETATM   13  C   UNL     1     -10.035  18.910  67.440  1.00  0.00    -0.392 C  
BRANCH  13  14
HETATM   14  C   UNL     1      -9.027  18.758  68.530  1.00  0.00    -0.375 C  
BRANCH  14  15
HETATM   15  C   UNL     1      -7.628  19.087  68.091  1.00  0.00    -0.311 C  
HETATM   16  C   UNL     1      -6.707  18.151  67.801  1.00  0.00    -0.204 C  
BRANCH  16  17
HETATM   17  C   UNL     1      -6.936  16.676  67.938  1.00  0.00    -0.157 C  
BRANCH  17  18
HETATM   18  C   UNL     1      -6.636  16.155  69.317  1.00  0.00    -0.189 C  
HETATM   19  C   UNL     1      -7.489  15.369  69.999  1.00  0.00     0.111 C  
BRANCH  19  20
HETATM   20  C   UNL     1      -8.810  14.942  69.416  1.00  0.00    -0.046 C  
BRANCH  20  21
HETATM   21  C   UNL     1      -9.985  15.853  69.748  1.00  0.00    -0.211 C  
HETATM   22  C   UNL     1     -11.254  15.029  69.775  1.00  0.00    -0.277 C  
HETATM   23  O   UNL     1     -12.365  15.760  69.517  1.00  0.00    -0.281 OA 
HETATM   24  O   UNL     1     -11.311  13.838  70.027  1.00  0.00    -0.160 OA 
ENDBRANCH  20  21
ENDBRANCH  19  20
ENDBRANCH  17  18
ENDBRANCH  16  17
ENDBRANCH  14  15
ENDBRANCH  13  14
ENDBRANCH  11  12
ENDBRANCH  10  11
ENDBRANCH   8   9
ENDBRANCH   7   8
ENDBRANCH   5   6
ENDBRANCH   4   5
ENDBRANCH   2   3
TORSDOF 13
ENDMDL
MODEL      416
REMARK 921   NORMALIZED FREE ENERGY PREDICTED BY IDOCK:   -2.70 KCAL/MOL
REMARK 922        TOTAL FREE ENERGY PREDICTED BY IDOCK:   -7.53 KCAL/MOL
REMARK 923 INTER-LIGAND FREE ENERGY PREDICTED BY IDOCK:   -5.69 KCAL/MOL
REMARK 924 INTRA-LIGAND FREE ENERGY PREDICTED BY IDOCK:   -1.84 KCAL/MOL
REMARK 927      BINDING AFFINITY PREDICTED BY RF-SCORE:    0.00 PKD
ROOT
HETATM    1  C   UNL     1     -12.655  13.717  64.495  1.00  0.00    -0.248 C  
HETATM    2  C   UNL     1     -11.219  13.278  64.258  1.00  0.00    -0.417 C  
ENDROOT
BRANCH   2   3
HETATM    3  C   UNL     1     -10.893  11.980  64.940  1.00  0.00    -0.349 C  
HETATM    4  C   UNL     1     -10.746  11.814  66.266  1.00  0.00    -0.312 C  
BRANCH   4   5
HETATM    5  C   UNL     1     -10.789  12.910  67.293  1.00  0.00    -0.277 C  
BRANCH   5   6
HETATM    6  C   UNL     1      -9.773  13.984  67.012  1.00  0.00    -0.256 C  
HETATM    7  C   UNL     1      -8.446  13.890  67.203  1.00  0.00    -0.196 C  
BRANCH   7   8
HETATM    8  C   UNL     1      -7.750  12.688  67.770  1.00  0.00    -0.145 C  
BRANCH   8   9
HETATM    9  C   UNL     1      -6.268  12.717  67.536  1.00  0.00    -0.159 C  
HETATM   10  C   UNL     1      -5.431  11.666  67.566  1.00  0.00    -0.069 C  
BRANCH  10  11
HETATM   11  C   UNL     1      -5.798  10.221  67.765  1.00  0.00    -0.045 C  
BRANCH  11  12
HETATM   12  C   UNL     1      -5.956   9.465  66.474  1.00  0.00    -0.059 C  
HETATM   13  C   UNL     1      -7.110   9.121  65.882  1.00  0.00    -0.089 C  
BRANCH  13  14
HETATM   14  C   UNL     1      -8.473   9.361  66.440  1.00  0.00    -0.131 C  
BRANCH  14  15
HETATM   15  C   UNL     1      -9.439   8.250  66.135  1.00  0.00    -0.241 C  
HETATM   16  C   UNL     1     -10.263   7.718  67.055  1.00  0.00    -0.375 C  
BRANCH  16  17
HETATM   17  C   UNL     1     -10.280   8.117  68.500  1.00  0.00    -0.233 C  
BRANCH  17  18
HETATM   18  C   UNL     1     -10.975   9.427  68.746  1.00  0.00    -0.080 C  
HETATM   19  C   UNL     1     -11.019  10.011  69.957  1.00  0.00    -0.352 C  
BRANCH  19  20
HETATM   20  C   UNL     1     -10.357   9.391  71.159  1.00  0.00    -0.377 C  
BRANCH  20  21
HETATM   21  C   UNL     1     -11.288   8.602  72.071  1.00  0.00    -0.432 C  
HETATM   22  C   UNL     1     -10.455   7.750  73.005  1.00  0.00    -0.369 C  
HETATM   23  O   UNL     1     -11.115   6.654  73.450  1.00  0.00    -0.207 OA 
HETATM   24  O   UNL     1      -9.320   8.007  73.362  1.00  0.00    -0.274 OA 
ENDBRANCH  20  21
ENDBRANCH  19  20
ENDBRANCH  17  18
ENDBRANCH  16  17
ENDBRANCH  14  15
ENDBRANCH  13  14
ENDBRANCH  11  12
ENDBRANCH  10  11
ENDBRANCH   8   9
ENDBRANCH   7   8
ENDBRANCH   5   6
ENDBRANCH   4   5
ENDBRANCH   2   3
TORSDOF 13
ENDMDL
MODEL      417
REMARK 921   NORMALIZED FREE ENERGY PREDICTED BY IDOCK:   -2.68 KCAL/MOL
REMARK 922        TOTAL FREE ENERGY PREDICTED BY IDOCK:   -7.50 KCAL/MOL
REMARK 923 INTER-LIGAND FREE ENERGY PREDICTED BY IDOCK:   -6.32 KCAL/MOL
REMARK 924 INTRA-LIGAND FREE ENERGY PREDICTED BY IDOCK:   -1.18 KCAL/MOL
REMARK 927      BINDING AFFINITY PREDICTED BY RF-SCORE:    0.00 PKD
ROOT
HETATM    1  C   UNL     1      -6.391   6.626  73.323  1.00  0.00    -0.063 C  
HETATM    2  C   UNL     1      -7.712   6.917  74.016  1.00  0.00    -0.117 C  
ENDROOT
BRANCH   2   3
HETATM    3  C   UNL     1      -8.579   5.696  74.141  1.00  0.00    -0.116 C  
HETATM    4  C   UNL     1      -9.478   5.284  73.231  1.00  0.00    -0.148 C  
BRANCH   4   5
HETATM    5  C   UNL     1      -9.844   6.018  71.972  1.00  0.00    -0.177 C  
BRANCH   5   6
HETATM    6  C   UNL     1     -11.331   6.206  71.844  1.00  0.00    -0.350 C  
HETATM    7  C   UNL     1     -11.988   7.379  71.858  1.00  0.00    -0.337 C  
BRANCH   7   8
HETATM    8  C   UNL     1     -11.335   8.718  72.039  1.00  0.00    -0.441 C  
BRANCH   8   9
HETATM    9  C   UNL     1     -10.702   9.224  70.776  1.00  0.00    -0.350 C  
HETATM   10  C   UNL     1     -11.103  10.278  70.045  1.00  0.00    -0.373 C  
BRANCH  10  11
HETATM   11  C   UNL     1     -12.226  11.228  70.365  1.00  0.00    -0.453 C  
BRANCH  11  12
HETATM   12  C   UNL     1     -11.807  12.672  70.336  1.00  0.00    -0.238 C  
HETATM   13  C   UNL     1     -11.860  13.502  69.283  1.00  0.00    -0.392 C  
BRANCH  13  14
HETATM   14  C   UNL     1     -12.282  13.121  67.902  1.00  0.00    -0.103 C  
BRANCH  14  15
HETATM   15  C   UNL     1     -11.126  12.765  67.010  1.00  0.00    -0.316 C  
HETATM   16  C   UNL     1     -10.640  13.592  66.068  1.00  0.00    -0.290 C  
BRANCH  16  17
HETATM   17  C   UNL     1     -11.223  14.936  65.748  1.00  0.00    -0.334 C  
BRANCH  17  18
HETATM   18  C   UNL     1     -10.180  15.993  65.509  1.00  0.00    -0.389 C  
HETATM   19  C   UNL     1     -10.045  17.073  66.301  1.00  0.00    -0.330 C  
BRANCH  19  20
HETATM   20  C   UNL     1     -10.928  17.290  67.500  1.00  0.00    -0.102 C  
BRANCH  20  21
HETATM   21  C   UNL     1     -10.693  16.325  68.656  1.00  0.00    -0.309 C  
HETATM   22  C   UNL     1      -9.261  16.461  69.126  1.00  0.00    -0.216 C  
HETATM   23  O   UNL     1      -8.794  15.341  69.728  1.00  0.00    -0.191 OA 
HETATM   24  O   UNL     1      -8.580  17.465  69.018  1.00  0.00    -0.189 OA 
ENDBRANCH  20  21
ENDBRANCH  19  20
ENDBRANCH  17  18
ENDBRANCH  16  17
ENDBRANCH  14  15
ENDBRANCH  13  14
ENDBRANCH  11  12
ENDBRANCH  10  11
ENDBRANCH   8   9
ENDBRANCH   7   8
ENDBRANCH   5   6
ENDBRANCH   4   5
ENDBRANCH   2   3
TORSDOF 13
ENDMDL
MODEL      418
REMARK 921   NORMALIZED FREE ENERGY PREDICTED BY IDOCK:   -2.68 KCAL/MOL
REMARK 922        TOTAL FREE ENERGY PREDICTED BY IDOCK:   -7.48 KCAL/MOL
REMARK 923 INTER-LIGAND FREE ENERGY PREDICTED BY IDOCK:   -5.63 KCAL/MOL
REMARK 924 INTRA-LIGAND FREE ENERGY PREDICTED BY IDOCK:   -1.85 KCAL/MOL
REMARK 927      BINDING AFFINITY PREDICTED BY RF-SCORE:    0.00 PKD
ROOT
HETATM    1  C   UNL     1      -8.782  15.930  69.427  1.00  0.00    -0.198 C  
HETATM    2  C   UNL     1     -10.026  16.470  68.740  1.00  0.00    -0.255 C  
ENDROOT
BRANCH   2   3
HETATM    3  C   UNL     1     -11.244  16.403  69.618  1.00  0.00    -0.257 C  
HETATM    4  C   UNL     1     -12.115  15.381  69.662  1.00  0.00    -0.354 C  
BRANCH   4   5
HETATM    5  C   UNL     1     -12.080  14.166  68.779  1.00  0.00    -0.326 C  
BRANCH   5   6
HETATM    6  C   UNL     1     -11.764  12.916  69.554  1.00  0.00    -0.387 C  
HETATM    7  C   UNL     1     -11.610  11.682  69.043  1.00  0.00    -0.379 C  
BRANCH   7   8
HETATM    8  C   UNL     1     -11.763  11.337  67.591  1.00  0.00    -0.215 C  
BRANCH   8   9
HETATM    9  C   UNL     1     -10.488  11.514  66.820  1.00  0.00    -0.275 C  
HETATM   10  C   UNL     1      -9.788  10.550  66.198  1.00  0.00    -0.271 C  
BRANCH  10  11
HETATM   11  C   UNL     1     -10.160   9.098  66.071  1.00  0.00    -0.204 C  
BRANCH  11  12
HETATM   12  C   UNL     1      -8.970   8.177  66.082  1.00  0.00    -0.218 C  
HETATM   13  C   UNL     1      -8.979   6.857  66.326  1.00  0.00    -0.172 C  
BRANCH  13  14
HETATM   14  C   UNL     1     -10.178   6.057  66.711  1.00  0.00    -0.268 C  
BRANCH  14  15
HETATM   15  C   UNL     1      -9.942   4.574  66.651  1.00  0.00    -0.253 C  
HETATM   16  C   UNL     1      -9.417   3.869  67.668  1.00  0.00    -0.233 C  
BRANCH  16  17
HETATM   17  C   UNL     1      -8.946   4.476  68.956  1.00  0.00    -0.151 C  
BRANCH  17  18
HETATM   18  C   UNL     1     -10.072   4.894  69.861  1.00  0.00    -0.332 C  
HETATM   19  C   UNL     1     -10.009   5.987  70.643  1.00  0.00    -0.232 C  
BRANCH  19  20
HETATM   20  C   UNL     1      -8.799   6.883  70.655  1.00  0.00    -0.150 C  
BRANCH  20  21
HETATM   21  C   UNL     1      -8.837   8.029  69.651  1.00  0.00    -0.141 C  
HETATM   22  C   UNL     1      -8.020   9.183  70.193  1.00  0.00    -0.121 C  
HETATM   23  O   UNL     1      -8.409  10.383  69.698  1.00  0.00    -0.152 OA 
HETATM   24  O   UNL     1      -7.088   9.078  70.969  1.00  0.00    -0.084 OA 
ENDBRANCH  20  21
ENDBRANCH  19  20
ENDBRANCH  17  18
ENDBRANCH  16  17
ENDBRANCH  14  15
ENDBRANCH  13  14
ENDBRANCH  11  12
ENDBRANCH  10  11
ENDBRANCH   8   9
ENDBRANCH   7   8
ENDBRANCH   5   6
ENDBRANCH   4   5
ENDBRANCH   2   3
TORSDOF 13
ENDMDL
MODEL      419
REMARK 921   NORMALIZED FREE ENERGY PREDICTED BY IDOCK:   -2.66 KCAL/MOL
REMARK 922        TOTAL FREE ENERGY PREDICTED BY IDOCK:   -7.47 KCAL/MOL
REMARK 923 INTER-LIGAND FREE ENERGY PREDICTED BY IDOCK:   -6.51 KCAL/MOL
REMARK 924 INTRA-LIGAND FREE ENERGY PREDICTED BY IDOCK:   -0.95 KCAL/MOL
REMARK 927      BINDING AFFINITY PREDICTED BY RF-SCORE:    0.00 PKD
ROOT
HETATM    1  C   UNL     1      -8.834   6.593  66.167  1.00  0.00    -0.160 C  
HETATM    2  C   UNL     1      -7.800   5.889  65.304  1.00  0.00    -0.105 C  
ENDROOT
BRANCH   2   3
HETATM    3  C   UNL     1      -6.821   5.088  66.115  1.00  0.00    -0.061 C  
HETATM    4  C   UNL     1      -6.861   3.756  66.289  1.00  0.00    -0.057 C  
BRANCH   4   5
HETATM    5  C   UNL     1      -7.941   2.842  65.783  1.00  0.00    -0.085 C  
BRANCH   5   6
HETATM    6  C   UNL     1      -9.216   2.992  66.567  1.00  0.00    -0.142 C  
HETATM    7  C   UNL     1      -9.372   2.758  67.882  1.00  0.00    -0.251 C  
BRANCH   7   8
HETATM    8  C   UNL     1      -8.285   2.269  68.794  1.00  0.00    -0.074 C  
BRANCH   8   9
HETATM    9  C   UNL     1      -7.679   3.373  69.610  1.00  0.00    -0.050 C  
HETATM   10  C   UNL     1      -8.335   4.386  70.200  1.00  0.00    -0.079 C  
BRANCH  10  11
HETATM   11  C   UNL     1      -9.824   4.601  70.239  1.00  0.00    -0.314 C  
BRANCH  11  12
HETATM   12  C   UNL     1     -10.274   5.781  69.421  1.00  0.00    -0.301 C  
HETATM   13  C   UNL     1     -11.222   6.672  69.752  1.00  0.00    -0.413 C  
BRANCH  13  14
HETATM   14  C   UNL     1     -12.071   6.616  70.978  1.00  0.00    -0.384 C  
BRANCH  14  15
HETATM   15  C   UNL     1     -11.319   6.965  72.233  1.00  0.00    -0.306 C  
HETATM   16  C   UNL     1     -10.917   8.213  72.529  1.00  0.00    -0.439 C  
BRANCH  16  17
HETATM   17  C   UNL     1     -11.111   9.394  71.626  1.00  0.00    -0.409 C  
BRANCH  17  18
HETATM   18  C   UNL     1     -12.476  10.014  71.744  1.00  0.00    -0.475 C  
HETATM   19  C   UNL     1     -12.824  11.138  71.092  1.00  0.00    -0.473 C  
BRANCH  19  20
HETATM   20  C   UNL     1     -11.863  11.851  70.178  1.00  0.00    -0.390 C  
BRANCH  20  21
HETATM   21  C   UNL     1     -11.720  11.240  68.790  1.00  0.00    -0.405 C  
HETATM   22  C   UNL     1     -11.454  12.346  67.791  1.00  0.00    -0.324 C  
HETATM   23  O   UNL     1     -11.843  12.028  66.533  1.00  0.00    -0.585 OA 
HETATM   24  O   UNL     1     -10.922  13.411  68.050  1.00  0.00    -0.232 OA 
ENDBRANCH  20  21
ENDBRANCH  19  20
ENDBRANCH  17  18
ENDBRANCH  16  17
ENDBRANCH  14  15
ENDBRANCH  13  14
ENDBRANCH  11  12
ENDBRANCH  10  11
ENDBRANCH   8   9
ENDBRANCH   7   8
ENDBRANCH   5   6
ENDBRANCH   4   5
ENDBRANCH   2   3
TORSDOF 13
ENDMDL
MODEL      420
REMARK 921   NORMALIZED FREE ENERGY PREDICTED BY IDOCK:   -2.66 KCAL/MOL
REMARK 922        TOTAL FREE ENERGY PREDICTED BY IDOCK:   -7.46 KCAL/MOL
REMARK 923 INTER-LIGAND FREE ENERGY PREDICTED BY IDOCK:   -6.10 KCAL/MOL
REMARK 924 INTRA-LIGAND FREE ENERGY PREDICTED BY IDOCK:   -1.36 KCAL/MOL
REMARK 927      BINDING AFFINITY PREDICTED BY RF-SCORE:    0.00 PKD
ROOT
HETATM    1  C   UNL     1     -10.200  18.011  66.129  1.00  0.00    -0.364 C  
HETATM    2  C   UNL     1     -10.718  16.583  66.100  1.00  0.00    -0.155 C  
ENDROOT
BRANCH   2   3
HETATM    3  C   UNL     1      -9.638  15.584  65.794  1.00  0.00    -0.367 C  
HETATM    4  C   UNL     1      -9.419  14.444  66.471  1.00  0.00    -0.309 C  
BRANCH   4   5
HETATM    5  C   UNL     1     -10.152  14.009  67.708  1.00  0.00    -0.240 C  
BRANCH   5   6
HETATM    6  C   UNL     1     -11.427  13.281  67.379  1.00  0.00    -0.371 C  
HETATM    7  C   UNL     1     -11.560  11.956  67.192  1.00  0.00    -0.363 C  
BRANCH   7   8
HETATM    8  C   UNL     1     -10.429  10.971  67.250  1.00  0.00    -0.270 C  
BRANCH   8   9
HETATM    9  C   UNL     1     -10.582   9.862  66.251  1.00  0.00    -0.089 C  
HETATM   10  C   UNL     1     -10.145   8.598  66.384  1.00  0.00    -0.294 C  
BRANCH  10  11
HETATM   11  C   UNL     1      -9.475   7.993  67.589  1.00  0.00    -0.171 C  
BRANCH  11  12
HETATM   12  C   UNL     1     -10.449   7.472  68.610  1.00  0.00    -0.207 C  
HETATM   13  C   UNL     1     -10.823   6.195  68.783  1.00  0.00    -0.402 C  
BRANCH  13  14
HETATM   14  C   UNL     1     -10.394   5.045  67.934  1.00  0.00    -0.101 C  
BRANCH  14  15
HETATM   15  C   UNL     1      -8.992   4.589  68.223  1.00  0.00    -0.143 C  
HETATM   16  C   UNL     1      -8.535   4.352  69.465  1.00  0.00    -0.095 C  
BRANCH  16  17
HETATM   17  C   UNL     1      -9.339   4.570  70.712  1.00  0.00    -0.218 C  
BRANCH  17  18
HETATM   18  C   UNL     1      -8.557   5.228  71.815  1.00  0.00    -0.131 C  
HETATM   19  C   UNL     1      -9.088   6.158  72.628  1.00  0.00    -0.140 C  
BRANCH  19  20
HETATM   20  C   UNL     1     -10.521   6.599  72.497  1.00  0.00    -0.231 C  
BRANCH  20  21
HETATM   21  C   UNL     1     -10.761   8.086  72.727  1.00  0.00    -0.431 C  
HETATM   22  C   UNL     1     -11.813   8.571  71.752  1.00  0.00    -0.331 C  
HETATM   23  O   UNL     1     -11.716   9.896  71.486  1.00  0.00    -0.380 OA 
HETATM   24  O   UNL     1     -12.686   7.878  71.261  1.00  0.00    -0.300 OA 
ENDBRANCH  20  21
ENDBRANCH  19  20
ENDBRANCH  17  18
ENDBRANCH  16  17
ENDBRANCH  14  15
ENDBRANCH  13  14
ENDBRANCH  11  12
ENDBRANCH  10  11
ENDBRANCH   8   9
ENDBRANCH   7   8
ENDBRANCH   5   6
ENDBRANCH   4   5
ENDBRANCH   2   3
TORSDOF 13
ENDMDL
MODEL      421
REMARK 921   NORMALIZED FREE ENERGY PREDICTED BY IDOCK:   -2.65 KCAL/MOL
REMARK 922        TOTAL FREE ENERGY PREDICTED BY IDOCK:   -7.44 KCAL/MOL
REMARK 923 INTER-LIGAND FREE ENERGY PREDICTED BY IDOCK:   -6.45 KCAL/MOL
REMARK 924 INTRA-LIGAND FREE ENERGY PREDICTED BY IDOCK:   -0.99 KCAL/MOL
REMARK 927      BINDING AFFINITY PREDICTED BY RF-SCORE:    0.00 PKD
ROOT
HETATM    1  C   UNL     1      -6.123   3.965  69.856  1.00  0.00    -0.023 C  
HETATM    2  C   UNL     1      -7.135   3.177  70.670  1.00  0.00    -0.033 C  
ENDROOT
BRANCH   2   3
HETATM    3  C   UNL     1      -8.549   3.614  70.411  1.00  0.00    -0.109 C  
HETATM    4  C   UNL     1      -9.211   4.557  71.103  1.00  0.00    -0.198 C  
BRANCH   4   5
HETATM    5  C   UNL     1      -8.690   5.276  72.316  1.00  0.00    -0.129 C  
BRANCH   5   6
HETATM    6  C   UNL     1      -8.076   6.603  71.962  1.00  0.00    -0.102 C  
HETATM    7  C   UNL     1      -8.400   7.795  72.494  1.00  0.00    -0.170 C  
BRANCH   7   8
HETATM    8  C   UNL     1      -9.469   8.004  73.525  1.00  0.00    -0.248 C  
BRANCH   8   9
HETATM    9  C   UNL     1     -10.842   7.707  72.999  1.00  0.00    -0.457 C  
HETATM   10  C   UNL     1     -11.486   8.366  72.021  1.00  0.00    -0.418 C  
BRANCH  10  11
HETATM   11  C   UNL     1     -10.950   9.496  71.185  1.00  0.00    -0.438 C  
BRANCH  11  12
HETATM   12  C   UNL     1     -10.620   9.087  69.776  1.00  0.00    -0.236 C  
HETATM   13  C   UNL     1     -10.766   9.833  68.669  1.00  0.00    -0.247 C  
BRANCH  13  14
HETATM   14  C   UNL     1     -11.362  11.200  68.620  1.00  0.00    -0.342 C  
BRANCH  14  15
HETATM   15  C   UNL     1     -10.332  12.288  68.485  1.00  0.00    -0.234 C  
HETATM   16  C   UNL     1     -10.608  13.506  67.987  1.00  0.00    -0.247 C  
BRANCH  16  17
HETATM   17  C   UNL     1     -11.948  13.911  67.451  1.00  0.00    -0.436 C  
BRANCH  17  18
HETATM   18  C   UNL     1     -12.128  13.582  65.994  1.00  0.00    -0.489 C  
HETATM   19  C   UNL     1     -11.297  14.036  65.038  1.00  0.00    -0.342 C  
BRANCH  19  20
HETATM   20  C   UNL     1     -10.110  14.901  65.368  1.00  0.00    -0.400 C  
BRANCH  20  21
HETATM   21  C   UNL     1     -10.378  16.401  65.340  1.00  0.00    -0.287 C  
HETATM   22  C   UNL     1     -10.085  16.978  66.708  1.00  0.00    -0.300 C  
HETATM   23  O   UNL     1     -10.775  18.117  66.960  1.00  0.00    -0.353 OA 
HETATM   24  O   UNL     1      -9.298  16.512  67.512  1.00  0.00    -0.216 OA 
ENDBRANCH  20  21
ENDBRANCH  19  20
ENDBRANCH  17  18
ENDBRANCH  16  17
ENDBRANCH  14  15
ENDBRANCH  13  14
ENDBRANCH  11  12
ENDBRANCH  10  11
ENDBRANCH   8   9
ENDBRANCH   7   8
ENDBRANCH   5   6
ENDBRANCH   4   5
ENDBRANCH   2   3
TORSDOF 13
ENDMDL
MODEL      422
REMARK 921   NORMALIZED FREE ENERGY PREDICTED BY IDOCK:   -2.64 KCAL/MOL
REMARK 922        TOTAL FREE ENERGY PREDICTED BY IDOCK:   -7.43 KCAL/MOL
REMARK 923 INTER-LIGAND FREE ENERGY PREDICTED BY IDOCK:   -5.38 KCAL/MOL
REMARK 924 INTRA-LIGAND FREE ENERGY PREDICTED BY IDOCK:   -2.05 KCAL/MOL
REMARK 927      BINDING AFFINITY PREDICTED BY RF-SCORE:    0.00 PKD
ROOT
HETATM    1  C   UNL     1     -11.715  12.457  65.695  1.00  0.00    -0.468 C  
HETATM    2  C   UNL     1     -12.255  13.262  66.865  1.00  0.00    -0.315 C  
ENDROOT
BRANCH   2   3
HETATM    3  C   UNL     1     -11.272  13.364  67.997  1.00  0.00    -0.298 C  
HETATM    4  C   UNL     1     -10.762  14.508  68.484  1.00  0.00    -0.253 C  
BRANCH   4   5
HETATM    5  C   UNL     1     -11.009  15.881  67.925  1.00  0.00    -0.327 C  
BRANCH   5   6
HETATM    6  C   UNL     1     -11.006  15.884  66.420  1.00  0.00    -0.115 C  
HETATM    7  C   UNL     1      -9.950  16.144  65.629  1.00  0.00    -0.330 C  
BRANCH   7   8
HETATM    8  C   UNL     1      -8.584  16.513  66.127  1.00  0.00    -0.334 C  
BRANCH   8   9
HETATM    9  C   UNL     1      -8.523  17.916  66.656  1.00  0.00    -0.281 C  
HETATM   10  C   UNL     1      -7.723  18.369  67.636  1.00  0.00    -0.236 C  
BRANCH  10  11
HETATM   11  C   UNL     1      -6.661  17.596  68.369  1.00  0.00    -0.196 C  
BRANCH  11  12
HETATM   12  C   UNL     1      -7.220  16.611  69.359  1.00  0.00    -0.132 C  
HETATM   13  C   UNL     1      -7.090  15.275  69.322  1.00  0.00    -0.177 C  
BRANCH  13  14
HETATM   14  C   UNL     1      -6.420  14.501  68.236  1.00  0.00    -0.118 C  
BRANCH  14  15
HETATM   15  C   UNL     1      -7.363  13.604  67.483  1.00  0.00    -0.178 C  
HETATM   16  C   UNL     1      -7.337  12.264  67.575  1.00  0.00    -0.137 C  
BRANCH  16  17
HETATM   17  C   UNL     1      -6.335  11.496  68.384  1.00  0.00    -0.050 C  
BRANCH  17  18
HETATM   18  C   UNL     1      -6.490  10.005  68.260  1.00  0.00    -0.054 C  
HETATM   19  C   UNL     1      -7.346   9.297  69.018  1.00  0.00    -0.072 C  
BRANCH  19  20
HETATM   20  C   UNL     1      -8.228   9.958  70.043  1.00  0.00    -0.187 C  
BRANCH  20  21
HETATM   21  C   UNL     1      -9.654   9.426  70.105  1.00  0.00    -0.275 C  
HETATM   22  C   UNL     1      -9.818   8.605  71.366  1.00  0.00    -0.256 C  
HETATM   23  O   UNL     1     -10.797   7.674  71.267  1.00  0.00    -0.229 OA 
HETATM   24  O   UNL     1      -9.176   8.757  72.390  1.00  0.00    -0.361 OA 
ENDBRANCH  20  21
ENDBRANCH  19  20
ENDBRANCH  17  18
ENDBRANCH  16  17
ENDBRANCH  14  15
ENDBRANCH  13  14
ENDBRANCH  11  12
ENDBRANCH  10  11
ENDBRANCH   8   9
ENDBRANCH   7   8
ENDBRANCH   5   6
ENDBRANCH   4   5
ENDBRANCH   2   3
TORSDOF 13
ENDMDL
MODEL      423
REMARK 921   NORMALIZED FREE ENERGY PREDICTED BY IDOCK:   -2.64 KCAL/MOL
REMARK 922        TOTAL FREE ENERGY PREDICTED BY IDOCK:   -7.42 KCAL/MOL
REMARK 923 INTER-LIGAND FREE ENERGY PREDICTED BY IDOCK:   -5.37 KCAL/MOL
REMARK 924 INTRA-LIGAND FREE ENERGY PREDICTED BY IDOCK:   -2.05 KCAL/MOL
REMARK 927      BINDING AFFINITY PREDICTED BY RF-SCORE:    0.00 PKD
ROOT
HETATM    1  C   UNL     1     -13.377   8.588  71.519  1.00  0.00    -0.321 C  
HETATM    2  C   UNL     1     -12.414   9.713  71.863  1.00  0.00    -0.459 C  
ENDROOT
BRANCH   2   3
HETATM    3  C   UNL     1     -12.754  10.997  71.162  1.00  0.00    -0.521 C  
HETATM    4  C   UNL     1     -12.249  11.397  69.982  1.00  0.00    -0.377 C  
BRANCH   4   5
HETATM    5  C   UNL     1     -11.187  10.678  69.199  1.00  0.00    -0.324 C  
BRANCH   5   6
HETATM    6  C   UNL     1     -11.359  10.865  67.716  1.00  0.00    -0.366 C  
HETATM    7  C   UNL     1     -10.918  11.908  66.991  1.00  0.00    -0.326 C  
BRANCH   7   8
HETATM    8  C   UNL     1     -10.196  13.094  67.558  1.00  0.00    -0.225 C  
BRANCH   8   9
HETATM    9  C   UNL     1      -8.807  13.239  67.010  1.00  0.00    -0.216 C  
HETATM   10  C   UNL     1      -7.665  12.867  67.613  1.00  0.00    -0.162 C  
BRANCH  10  11
HETATM   11  C   UNL     1      -7.526  12.159  68.933  1.00  0.00    -0.027 C  
BRANCH  11  12
HETATM   12  C   UNL     1      -6.190  11.490  69.110  1.00  0.00    -0.071 C  
HETATM   13  C   UNL     1      -5.910  10.192  68.912  1.00  0.00    -0.037 C  
BRANCH  13  14
HETATM   14  C   UNL     1      -6.903   9.139  68.547  1.00  0.00    -0.063 C  
BRANCH  14  15
HETATM   15  C   UNL     1      -6.568   7.790  69.118  1.00  0.00    -0.040 C  
HETATM   16  C   UNL     1      -7.401   6.737  69.059  1.00  0.00    -0.094 C  
BRANCH  16  17
HETATM   17  C   UNL     1      -8.782   6.790  68.477  1.00  0.00    -0.124 C  
BRANCH  17  18
HETATM   18  C   UNL     1      -9.721   7.667  69.257  1.00  0.00    -0.164 C  
HETATM   19  C   UNL     1     -10.512   7.196  70.238  1.00  0.00    -0.232 C  
BRANCH  19  20
HETATM   20  C   UNL     1     -10.499   5.744  70.634  1.00  0.00    -0.331 C  
BRANCH  20  21
HETATM   21  C   UNL     1      -9.937   5.460  72.021  1.00  0.00    -0.232 C  
HETATM   22  C   UNL     1     -11.062   5.527  73.031  1.00  0.00    -0.300 C  
HETATM   23  O   UNL     1     -10.635   5.833  74.280  1.00  0.00    -0.253 OA 
HETATM   24  O   UNL     1     -12.235   5.307  72.789  1.00  0.00    -0.107 OA 
ENDBRANCH  20  21
ENDBRANCH  19  20
ENDBRANCH  17  18
ENDBRANCH  16  17
ENDBRANCH  14  15
ENDBRANCH  13  14
ENDBRANCH  11  12
ENDBRANCH  10  11
ENDBRANCH   8   9
ENDBRANCH   7   8
ENDBRANCH   5   6
ENDBRANCH   4   5
ENDBRANCH   2   3
TORSDOF 13
ENDMDL
MODEL      424
REMARK 921   NORMALIZED FREE ENERGY PREDICTED BY IDOCK:   -2.62 KCAL/MOL
REMARK 922        TOTAL FREE ENERGY PREDICTED BY IDOCK:   -7.40 KCAL/MOL
REMARK 923 INTER-LIGAND FREE ENERGY PREDICTED BY IDOCK:   -4.85 KCAL/MOL
REMARK 924 INTRA-LIGAND FREE ENERGY PREDICTED BY IDOCK:   -2.54 KCAL/MOL
REMARK 927      BINDING AFFINITY PREDICTED BY RF-SCORE:    0.00 PKD
ROOT
HETATM    1  C   UNL     1     -13.713   7.895  71.237  1.00  0.00    -0.239 C  
HETATM    2  C   UNL     1     -12.889   8.669  72.253  1.00  0.00    -0.438 C  
ENDROOT
BRANCH   2   3
HETATM    3  C   UNL     1     -13.076  10.155  72.134  1.00  0.00    -0.463 C  
HETATM    4  C   UNL     1     -12.439  10.951  71.257  1.00  0.00    -0.493 C  
BRANCH   4   5
HETATM    5  C   UNL     1     -11.362  10.515  70.305  1.00  0.00    -0.407 C  
BRANCH   5   6
HETATM    6  C   UNL     1     -11.817  10.583  68.873  1.00  0.00    -0.136 C  
HETATM    7  C   UNL     1     -11.146  11.146  67.852  1.00  0.00    -0.331 C  
BRANCH   7   8
HETATM    8  C   UNL     1      -9.823  11.841  67.984  1.00  0.00    -0.184 C  
BRANCH   8   9
HETATM    9  C   UNL     1      -8.673  10.973  67.564  1.00  0.00    -0.128 C  
HETATM   10  C   UNL     1      -7.801  10.351  68.375  1.00  0.00    -0.104 C  
BRANCH  10  11
HETATM   11  C   UNL     1      -7.823  10.323  69.879  1.00  0.00    -0.119 C  
BRANCH  11  12
HETATM   12  C   UNL     1      -7.298   9.037  70.457  1.00  0.00    -0.086 C  
HETATM   13  C   UNL     1      -7.996   7.911  70.675  1.00  0.00    -0.096 C  
BRANCH  13  14
HETATM   14  C   UNL     1      -9.463   7.746  70.451  1.00  0.00    -0.164 C  
BRANCH  14  15
HETATM   15  C   UNL     1      -9.806   7.377  69.035  1.00  0.00    -0.168 C  
HETATM   16  C   UNL     1     -10.234   6.155  68.675  1.00  0.00    -0.220 C  
BRANCH  16  17
HETATM   17  C   UNL     1     -10.362   4.997  69.619  1.00  0.00    -0.260 C  
BRANCH  17  18
HETATM   18  C   UNL     1      -9.039   4.506  70.139  1.00  0.00    -0.160 C  
HETATM   19  C   UNL     1      -8.268   3.638  69.459  1.00  0.00    -0.069 C  
BRANCH  19  20
HETATM   20  C   UNL     1      -8.676   3.105  68.112  1.00  0.00    -0.137 C  
BRANCH  20  21
HETATM   21  C   UNL     1      -7.755   3.493  66.961  1.00  0.00    -0.080 C  
HETATM   22  C   UNL     1      -8.595   3.777  65.734  1.00  0.00    -0.112 C  
HETATM   23  O   UNL     1      -7.918   3.593  64.575  1.00  0.00    -0.085 OA 
HETATM   24  O   UNL     1      -9.752   4.159  65.750  1.00  0.00    -0.176 OA 
ENDBRANCH  20  21
ENDBRANCH  19  20
ENDBRANCH  17  18
ENDBRANCH  16  17
ENDBRANCH  14  15
ENDBRANCH  13  14
ENDBRANCH  11  12
ENDBRANCH  10  11
ENDBRANCH   8   9
ENDBRANCH   7   8
ENDBRANCH   5   6
ENDBRANCH   4   5
ENDBRANCH   2   3
TORSDOF 13
ENDMDL
MODEL      425
REMARK 921   NORMALIZED FREE ENERGY PREDICTED BY IDOCK:   -2.62 KCAL/MOL
REMARK 922        TOTAL FREE ENERGY PREDICTED BY IDOCK:   -7.39 KCAL/MOL
REMARK 923 INTER-LIGAND FREE ENERGY PREDICTED BY IDOCK:   -4.70 KCAL/MOL
REMARK 924 INTRA-LIGAND FREE ENERGY PREDICTED BY IDOCK:   -2.69 KCAL/MOL
REMARK 927      BINDING AFFINITY PREDICTED BY RF-SCORE:    0.00 PKD
ROOT
HETATM    1  C   UNL     1     -11.929  14.071  64.486  1.00  0.00    -0.470 C  
HETATM    2  C   UNL     1     -11.240  13.841  65.821  1.00  0.00    -0.300 C  
ENDROOT
BRANCH   2   3
HETATM    3  C   UNL     1     -12.089  14.261  66.987  1.00  0.00    -0.424 C  
HETATM    4  C   UNL     1     -12.282  13.543  68.107  1.00  0.00    -0.141 C  
BRANCH   4   5
HETATM    5  C   UNL     1     -11.761  12.155  68.354  1.00  0.00    -0.388 C  
BRANCH   5   6
HETATM    6  C   UNL     1     -12.409  11.517  69.553  1.00  0.00    -0.190 C  
HETATM    7  C   UNL     1     -12.003  10.395  70.171  1.00  0.00    -0.357 C  
BRANCH   7   8
HETATM    8  C   UNL     1     -10.834   9.560  69.739  1.00  0.00    -0.264 C  
BRANCH   8   9
HETATM    9  C   UNL     1     -10.601   8.385  70.643  1.00  0.00    -0.234 C  
HETATM   10  C   UNL     1      -9.882   7.285  70.358  1.00  0.00    -0.183 C  
BRANCH  10  11
HETATM   11  C   UNL     1      -9.090   7.019  69.107  1.00  0.00    -0.136 C  
BRANCH  11  12
HETATM   12  C   UNL     1      -9.877   6.292  68.051  1.00  0.00    -0.128 C  
HETATM   13  C   UNL     1      -9.938   6.595  66.745  1.00  0.00    -0.238 C  
BRANCH  13  14
HETATM   14  C   UNL     1      -9.286   7.773  66.099  1.00  0.00    -0.162 C  
BRANCH  14  15
HETATM   15  C   UNL     1     -10.045   9.054  66.306  1.00  0.00    -0.311 C  
HETATM   16  C   UNL     1      -9.558  10.261  65.970  1.00  0.00    -0.259 C  
BRANCH  16  17
HETATM   17  C   UNL     1      -8.186  10.488  65.409  1.00  0.00    -0.152 C  
BRANCH  17  18
HETATM   18  C   UNL     1      -7.206  11.000  66.429  1.00  0.00    -0.127 C  
HETATM   19  C   UNL     1      -6.158  10.274  66.859  1.00  0.00    -0.060 C  
BRANCH  19  20
HETATM   20  C   UNL     1      -5.885   8.891  66.332  1.00  0.00    -0.054 C  
BRANCH  20  21
HETATM   21  C   UNL     1      -5.911   7.786  67.381  1.00  0.00    -0.048 C  
HETATM   22  C   UNL     1      -5.825   6.445  66.685  1.00  0.00    -0.020 C  
HETATM   23  O   UNL     1      -6.371   5.438  67.408  1.00  0.00    -0.036 OA 
HETATM   24  O   UNL     1      -5.303   6.249  65.602  1.00  0.00    -0.013 OA 
ENDBRANCH  20  21
ENDBRANCH  19  20
ENDBRANCH  17  18
ENDBRANCH  16  17
ENDBRANCH  14  15
ENDBRANCH  13  14
ENDBRANCH  11  12
ENDBRANCH  10  11
ENDBRANCH   8   9
ENDBRANCH   7   8
ENDBRANCH   5   6
ENDBRANCH   4   5
ENDBRANCH   2   3
TORSDOF 13
ENDMDL
MODEL      426
REMARK 921   NORMALIZED FREE ENERGY PREDICTED BY IDOCK:   -2.62 KCAL/MOL
REMARK 922        TOTAL FREE ENERGY PREDICTED BY IDOCK:   -7.39 KCAL/MOL
REMARK 923 INTER-LIGAND FREE ENERGY PREDICTED BY IDOCK:   -6.16 KCAL/MOL
REMARK 924 INTRA-LIGAND FREE ENERGY PREDICTED BY IDOCK:   -1.23 KCAL/MOL
REMARK 927      BINDING AFFINITY PREDICTED BY RF-SCORE:    0.00 PKD
ROOT
HETATM    1  C   UNL     1      -7.144   2.927  74.068  1.00  0.00    -0.041 C  
HETATM    2  C   UNL     1      -8.471   2.205  74.239  1.00  0.00    -0.059 C  
ENDROOT
BRANCH   2   3
HETATM    3  C   UNL     1      -9.643   3.145  74.232  1.00  0.00    -0.123 C  
HETATM    4  C   UNL     1     -10.295   3.567  73.134  1.00  0.00    -0.242 C  
BRANCH   4   5
HETATM    5  C   UNL     1      -9.912   3.250  71.716  1.00  0.00    -0.192 C  
BRANCH   5   6
HETATM    6  C   UNL     1      -8.980   4.282  71.143  1.00  0.00    -0.166 C  
HETATM    7  C   UNL     1      -9.297   5.222  70.235  1.00  0.00    -0.207 C  
BRANCH   7   8
HETATM    8  C   UNL     1     -10.651   5.378  69.609  1.00  0.00    -0.328 C  
BRANCH   8   9
HETATM    9  C   UNL     1     -10.576   5.810  68.174  1.00  0.00    -0.286 C  
HETATM   10  C   UNL     1     -10.412   7.065  67.722  1.00  0.00    -0.282 C  
BRANCH  10  11
HETATM   11  C   UNL     1     -10.192   8.304  68.548  1.00  0.00    -0.234 C  
BRANCH  11  12
HETATM   12  C   UNL     1      -9.157   9.227  67.967  1.00  0.00    -0.132 C  
HETATM   13  C   UNL     1      -9.381  10.281  67.166  1.00  0.00    -0.175 C  
BRANCH  13  14
HETATM   14  C   UNL     1     -10.712  10.695  66.633  1.00  0.00    -0.246 C  
BRANCH  14  15
HETATM   15  C   UNL     1     -11.577  11.366  67.663  1.00  0.00    -0.315 C  
HETATM   16  C   UNL     1     -11.579  12.694  67.872  1.00  0.00    -0.401 C  
BRANCH  16  17
HETATM   17  C   UNL     1     -10.681  13.658  67.156  1.00  0.00    -0.279 C  
BRANCH  17  18
HETATM   18  C   UNL     1     -11.299  14.228  65.909  1.00  0.00    -0.328 C  
HETATM   19  C   UNL     1     -11.019  15.465  65.458  1.00  0.00    -0.350 C  
BRANCH  19  20
HETATM   20  C   UNL     1     -10.047  16.366  66.173  1.00  0.00    -0.364 C  
BRANCH  20  21
HETATM   21  C   UNL     1     -10.336  17.856  66.042  1.00  0.00    -0.318 C  
HETATM   22  C   UNL     1     -10.481  18.452  67.426  1.00  0.00    -0.415 C  
HETATM   23  O   UNL     1     -11.245  19.571  67.443  1.00  0.00    -0.340 OA 
HETATM   24  O   UNL     1      -9.958  18.015  68.435  1.00  0.00    -0.336 OA 
ENDBRANCH  20  21
ENDBRANCH  19  20
ENDBRANCH  17  18
ENDBRANCH  16  17
ENDBRANCH  14  15
ENDBRANCH  13  14
ENDBRANCH  11  12
ENDBRANCH  10  11
ENDBRANCH   8   9
ENDBRANCH   7   8
ENDBRANCH   5   6
ENDBRANCH   4   5
ENDBRANCH   2   3
TORSDOF 13
ENDMDL
MODEL      427
REMARK 921   NORMALIZED FREE ENERGY PREDICTED BY IDOCK:   -2.61 KCAL/MOL
REMARK 922        TOTAL FREE ENERGY PREDICTED BY IDOCK:   -7.38 KCAL/MOL
REMARK 923 INTER-LIGAND FREE ENERGY PREDICTED BY IDOCK:   -5.66 KCAL/MOL
REMARK 924 INTRA-LIGAND FREE ENERGY PREDICTED BY IDOCK:   -1.72 KCAL/MOL
REMARK 927      BINDING AFFINITY PREDICTED BY RF-SCORE:    0.00 PKD
ROOT
HETATM    1  C   UNL     1      -7.860   7.343  62.717  1.00  0.00    -0.130 C  
HETATM    2  C   UNL     1      -7.646   7.557  64.206  1.00  0.00    -0.105 C  
ENDROOT
BRANCH   2   3
HETATM    3  C   UNL     1      -6.969   8.863  64.509  1.00  0.00    -0.085 C  
HETATM    4  C   UNL     1      -7.543   9.915  65.117  1.00  0.00    -0.132 C  
BRANCH   4   5
HETATM    5  C   UNL     1      -8.988  10.009  65.518  1.00  0.00    -0.206 C  
BRANCH   5   6
HETATM    6  C   UNL     1      -9.866  10.412  64.365  1.00  0.00    -0.395 C  
HETATM    7  C   UNL     1     -10.386  11.634  64.151  1.00  0.00    -0.386 C  
BRANCH   7   8
HETATM    8  C   UNL     1     -10.197  12.810  65.063  1.00  0.00    -0.292 C  
BRANCH   8   9
HETATM    9  C   UNL     1     -11.453  13.174  65.800  1.00  0.00    -0.355 C  
HETATM   10  C   UNL     1     -11.897  12.629  66.945  1.00  0.00    -0.425 C  
BRANCH  10  11
HETATM   11  C   UNL     1     -11.202  11.590  67.783  1.00  0.00    -0.343 C  
BRANCH  11  12
HETATM   12  C   UNL     1     -11.412  11.782  69.260  1.00  0.00    -0.369 C  
HETATM   13  C   UNL     1     -11.376  10.831  70.206  1.00  0.00    -0.374 C  
BRANCH  13  14
HETATM   14  C   UNL     1     -11.194   9.370  69.957  1.00  0.00    -0.217 C  
BRANCH  14  15
HETATM   15  C   UNL     1     -11.888   8.507  70.974  1.00  0.00    -0.290 C  
HETATM   16  C   UNL     1     -11.644   7.193  71.115  1.00  0.00    -0.336 C  
BRANCH  16  17
HETATM   17  C   UNL     1     -10.704   6.415  70.244  1.00  0.00    -0.322 C  
BRANCH  17  18
HETATM   18  C   UNL     1     -10.374   5.055  70.794  1.00  0.00    -0.265 C  
HETATM   19  C   UNL     1      -9.112   4.649  71.022  1.00  0.00    -0.181 C  
BRANCH  19  20
HETATM   20  C   UNL     1      -7.932   5.544  70.751  1.00  0.00    -0.111 C  
BRANCH  20  21
HETATM   21  C   UNL     1      -7.337   5.419  69.354  1.00  0.00    -0.065 C  
HETATM   22  C   UNL     1      -7.420   6.764  68.663  1.00  0.00    -0.099 C  
HETATM   23  O   UNL     1      -7.444   6.663  67.312  1.00  0.00    -0.088 OA 
HETATM   24  O   UNL     1      -7.437   7.842  69.229  1.00  0.00    -0.087 OA 
ENDBRANCH  20  21
ENDBRANCH  19  20
ENDBRANCH  17  18
ENDBRANCH  16  17
ENDBRANCH  14  15
ENDBRANCH  13  14
ENDBRANCH  11  12
ENDBRANCH  10  11
ENDBRANCH   8   9
ENDBRANCH   7   8
ENDBRANCH   5   6
ENDBRANCH   4   5
ENDBRANCH   2   3
TORSDOF 13
ENDMDL
MODEL      428
REMARK 921   NORMALIZED FREE ENERGY PREDICTED BY IDOCK:   -2.61 KCAL/MOL
REMARK 922        TOTAL FREE ENERGY PREDICTED BY IDOCK:   -7.37 KCAL/MOL
REMARK 923 INTER-LIGAND FREE ENERGY PREDICTED BY IDOCK:   -6.44 KCAL/MOL
REMARK 924 INTRA-LIGAND FREE ENERGY PREDICTED BY IDOCK:   -0.93 KCAL/MOL
REMARK 927      BINDING AFFINITY PREDICTED BY RF-SCORE:    0.00 PKD
ROOT
HETATM    1  C   UNL     1      -5.880  10.790  70.588  1.00  0.00    -0.111 C  
HETATM    2  C   UNL     1      -7.016  10.313  69.698  1.00  0.00    -0.114 C  
ENDROOT
BRANCH   2   3
HETATM    3  C   UNL     1      -7.136   8.816  69.669  1.00  0.00    -0.054 C  
HETATM    4  C   UNL     1      -7.578   8.050  70.682  1.00  0.00    -0.076 C  
BRANCH   4   5
HETATM    5  C   UNL     1      -7.942   8.545  72.054  1.00  0.00    -0.160 C  
BRANCH   5   6
HETATM    6  C   UNL     1      -9.418   8.429  72.318  1.00  0.00    -0.367 C  
HETATM    7  C   UNL     1     -10.406   8.769  71.472  1.00  0.00    -0.374 C  
BRANCH   7   8
HETATM    8  C   UNL     1     -10.193   9.361  70.110  1.00  0.00    -0.271 C  
BRANCH   8   9
HETATM    9  C   UNL     1     -10.535   8.403  69.006  1.00  0.00    -0.216 C  
HETATM   10  C   UNL     1     -10.262   8.556  67.699  1.00  0.00    -0.297 C  
BRANCH  10  11
HETATM   11  C   UNL     1      -9.490   9.679  67.060  1.00  0.00    -0.195 C  
BRANCH  11  12
HETATM   12  C   UNL     1      -8.899   9.308  65.727  1.00  0.00    -0.211 C  
HETATM   13  C   UNL     1      -9.268   9.781  64.527  1.00  0.00    -0.310 C  
BRANCH  13  14
HETATM   14  C   UNL     1     -10.402  10.720  64.278  1.00  0.00    -0.401 C  
BRANCH  14  15
HETATM   15  C   UNL     1      -9.950  12.115  63.950  1.00  0.00    -0.329 C  
HETATM   16  C   UNL     1     -10.522  13.216  64.468  1.00  0.00    -0.425 C  
BRANCH  16  17
HETATM   17  C   UNL     1     -11.711  13.195  65.381  1.00  0.00    -0.383 C  
BRANCH  17  18
HETATM   18  C   UNL     1     -11.413  12.596  66.728  1.00  0.00    -0.410 C  
HETATM   19  C   UNL     1     -11.223  13.344  67.830  1.00  0.00    -0.303 C  
BRANCH  19  20
HETATM   20  C   UNL     1     -11.309  14.847  67.791  1.00  0.00    -0.341 C  
BRANCH  20  21
HETATM   21  C   UNL     1      -9.969  15.566  67.699  1.00  0.00    -0.233 C  
HETATM   22  C   UNL     1     -10.012  16.799  68.577  1.00  0.00    -0.271 C  
HETATM   23  O   UNL     1      -9.151  17.764  68.175  1.00  0.00    -0.259 OA 
HETATM   24  O   UNL     1     -10.713  16.933  69.564  1.00  0.00    -0.326 OA 
ENDBRANCH  20  21
ENDBRANCH  19  20
ENDBRANCH  17  18
ENDBRANCH  16  17
ENDBRANCH  14  15
ENDBRANCH  13  14
ENDBRANCH  11  12
ENDBRANCH  10  11
ENDBRANCH   8   9
ENDBRANCH   7   8
ENDBRANCH   5   6
ENDBRANCH   4   5
ENDBRANCH   2   3
TORSDOF 13
ENDMDL
MODEL      429
REMARK 921   NORMALIZED FREE ENERGY PREDICTED BY IDOCK:   -2.61 KCAL/MOL
REMARK 922        TOTAL FREE ENERGY PREDICTED BY IDOCK:   -7.37 KCAL/MOL
REMARK 923 INTER-LIGAND FREE ENERGY PREDICTED BY IDOCK:   -5.03 KCAL/MOL
REMARK 924 INTRA-LIGAND FREE ENERGY PREDICTED BY IDOCK:   -2.34 KCAL/MOL
REMARK 927      BINDING AFFINITY PREDICTED BY RF-SCORE:    0.00 PKD
ROOT
HETATM    1  C   UNL     1      -9.294  12.998  67.733  1.00  0.00    -0.199 C  
HETATM    2  C   UNL     1      -9.407  11.568  68.235  1.00  0.00    -0.190 C  
ENDROOT
BRANCH   2   3
HETATM    3  C   UNL     1     -10.741  10.951  67.921  1.00  0.00    -0.274 C  
HETATM    4  C   UNL     1     -11.028   9.640  67.994  1.00  0.00    -0.197 C  
BRANCH   4   5
HETATM    5  C   UNL     1     -10.046   8.548  68.310  1.00  0.00    -0.225 C  
BRANCH   5   6
HETATM    6  C   UNL     1     -10.729   7.307  68.817  1.00  0.00    -0.168 C  
HETATM    7  C   UNL     1     -10.906   6.163  68.134  1.00  0.00    -0.389 C  
BRANCH   7   8
HETATM    8  C   UNL     1     -10.471   5.943  66.715  1.00  0.00    -0.344 C  
BRANCH   8   9
HETATM    9  C   UNL     1      -9.208   5.138  66.618  1.00  0.00    -0.129 C  
HETATM   10  C   UNL     1      -7.976   5.608  66.361  1.00  0.00    -0.101 C  
BRANCH  10  11
HETATM   11  C   UNL     1      -7.573   7.047  66.187  1.00  0.00    -0.095 C  
BRANCH  11  12
HETATM   12  C   UNL     1      -6.200   7.348  66.722  1.00  0.00    -0.044 C  
HETATM   13  C   UNL     1      -5.864   7.539  68.008  1.00  0.00    -0.032 C  
BRANCH  13  14
HETATM   14  C   UNL     1      -6.817   7.565  69.156  1.00  0.00    -0.056 C  
BRANCH  14  15
HETATM   15  C   UNL     1      -6.323   6.797  70.350  1.00  0.00    -0.042 C  
HETATM   16  C   UNL     1      -6.925   6.834  71.551  1.00  0.00    -0.067 C  
BRANCH  16  17
HETATM   17  C   UNL     1      -8.117   7.686  71.868  1.00  0.00    -0.112 C  
BRANCH  17  18
HETATM   18  C   UNL     1      -8.966   7.130  72.978  1.00  0.00    -0.161 C  
HETATM   19  C   UNL     1     -10.231   7.532  73.197  1.00  0.00    -0.382 C  
BRANCH  19  20
HETATM   20  C   UNL     1     -10.895   8.566  72.327  1.00  0.00    -0.418 C  
BRANCH  20  21
HETATM   21  C   UNL     1     -12.403   8.684  72.505  1.00  0.00    -0.378 C  
HETATM   22  C   UNL     1     -13.076   7.553  71.757  1.00  0.00    -0.322 C  
HETATM   23  O   UNL     1     -14.347   7.846  71.388  1.00  0.00    -0.413 OA 
HETATM   24  O   UNL     1     -12.570   6.471  71.519  1.00  0.00    -0.292 OA 
ENDBRANCH  20  21
ENDBRANCH  19  20
ENDBRANCH  17  18
ENDBRANCH  16  17
ENDBRANCH  14  15
ENDBRANCH  13  14
ENDBRANCH  11  12
ENDBRANCH  10  11
ENDBRANCH   8   9
ENDBRANCH   7   8
ENDBRANCH   5   6
ENDBRANCH   4   5
ENDBRANCH   2   3
TORSDOF 13
ENDMDL
MODEL      430
REMARK 921   NORMALIZED FREE ENERGY PREDICTED BY IDOCK:   -2.61 KCAL/MOL
REMARK 922        TOTAL FREE ENERGY PREDICTED BY IDOCK:   -7.36 KCAL/MOL
REMARK 923 INTER-LIGAND FREE ENERGY PREDICTED BY IDOCK:   -6.67 KCAL/MOL
REMARK 924 INTRA-LIGAND FREE ENERGY PREDICTED BY IDOCK:   -0.69 KCAL/MOL
REMARK 927      BINDING AFFINITY PREDICTED BY RF-SCORE:    0.00 PKD
ROOT
HETATM    1  C   UNL     1     -12.017  13.973  64.384  1.00  0.00    -0.480 C  
HETATM    2  C   UNL     1     -10.531  13.830  64.670  1.00  0.00    -0.433 C  
ENDROOT
BRANCH   2   3
HETATM    3  C   UNL     1     -10.127  14.485  65.961  1.00  0.00    -0.336 C  
HETATM    4  C   UNL     1     -10.687  14.251  67.160  1.00  0.00    -0.282 C  
BRANCH   4   5
HETATM    5  C   UNL     1     -11.875  13.365  67.411  1.00  0.00    -0.418 C  
BRANCH   5   6
HETATM    6  C   UNL     1     -12.155  13.203  68.880  1.00  0.00    -0.232 C  
HETATM    7  C   UNL     1     -11.691  12.222  69.673  1.00  0.00    -0.386 C  
BRANCH   7   8
HETATM    8  C   UNL     1     -10.826  11.087  69.207  1.00  0.00    -0.285 C  
BRANCH   8   9
HETATM    9  C   UNL     1     -11.023  10.774  67.753  1.00  0.00    -0.354 C  
HETATM   10  C   UNL     1     -10.798   9.595  67.149  1.00  0.00    -0.184 C  
BRANCH  10  11
HETATM   11  C   UNL     1     -10.373   8.308  67.804  1.00  0.00    -0.296 C  
BRANCH  11  12
HETATM   12  C   UNL     1     -10.667   7.092  66.969  1.00  0.00    -0.420 C  
HETATM   13  C   UNL     1     -10.543   5.810  67.347  1.00  0.00    -0.340 C  
BRANCH  13  14
HETATM   14  C   UNL     1     -10.012   5.344  68.661  1.00  0.00    -0.232 C  
BRANCH  14  15
HETATM   15  C   UNL     1      -9.004   4.235  68.531  1.00  0.00    -0.154 C  
HETATM   16  C   UNL     1      -7.983   4.063  69.387  1.00  0.00    -0.057 C  
BRANCH  16  17
HETATM   17  C   UNL     1      -7.685   4.980  70.535  1.00  0.00    -0.070 C  
BRANCH  17  18
HETATM   18  C   UNL     1      -7.181   6.329  70.101  1.00  0.00    -0.080 C  
HETATM   19  C   UNL     1      -7.711   7.482  70.547  1.00  0.00    -0.094 C  
BRANCH  19  20
HETATM   20  C   UNL     1      -8.848   7.500  71.533  1.00  0.00    -0.133 C  
BRANCH  20  21
HETATM   21  C   UNL     1      -9.781   8.699  71.417  1.00  0.00    -0.314 C  
HETATM   22  C   UNL     1     -11.001   8.457  72.280  1.00  0.00    -0.361 C  
HETATM   23  O   UNL     1     -12.092   9.140  71.856  1.00  0.00    -0.349 OA 
HETATM   24  O   UNL     1     -11.029   7.753  73.273  1.00  0.00    -0.382 OA 
ENDBRANCH  20  21
ENDBRANCH  19  20
ENDBRANCH  17  18
ENDBRANCH  16  17
ENDBRANCH  14  15
ENDBRANCH  13  14
ENDBRANCH  11  12
ENDBRANCH  10  11
ENDBRANCH   8   9
ENDBRANCH   7   8
ENDBRANCH   5   6
ENDBRANCH   4   5
ENDBRANCH   2   3
TORSDOF 13
ENDMDL
MODEL      431
REMARK 921   NORMALIZED FREE ENERGY PREDICTED BY IDOCK:   -2.60 KCAL/MOL
REMARK 922        TOTAL FREE ENERGY PREDICTED BY IDOCK:   -7.36 KCAL/MOL
REMARK 923 INTER-LIGAND FREE ENERGY PREDICTED BY IDOCK:   -4.61 KCAL/MOL
REMARK 924 INTRA-LIGAND FREE ENERGY PREDICTED BY IDOCK:   -2.75 KCAL/MOL
REMARK 927      BINDING AFFINITY PREDICTED BY RF-SCORE:    0.00 PKD
ROOT
HETATM    1  C   UNL     1     -10.655  16.080  69.082  1.00  0.00    -0.260 C  
HETATM    2  C   UNL     1     -10.959  15.122  70.222  1.00  0.00    -0.277 C  
ENDROOT
BRANCH   2   3
HETATM    3  C   UNL     1     -12.405  14.716  70.265  1.00  0.00    -0.406 C  
HETATM    4  C   UNL     1     -12.866  13.462  70.117  1.00  0.00     0.122 C  
BRANCH   4   5
HETATM    5  C   UNL     1     -12.028  12.258  69.791  1.00  0.00    -0.365 C  
BRANCH   5   6
HETATM    6  C   UNL     1     -12.090  11.220  70.878  1.00  0.00    -0.406 C  
HETATM    7  C   UNL     1     -11.440  10.043  70.891  1.00  0.00    -0.452 C  
BRANCH   7   8
HETATM    8  C   UNL     1     -10.554   9.548  69.785  1.00  0.00    -0.257 C  
BRANCH   8   9
HETATM    9  C   UNL     1     -10.719   8.079  69.529  1.00  0.00    -0.185 C  
HETATM   10  C   UNL     1      -9.977   7.321  68.705  1.00  0.00    -0.169 C  
BRANCH  10  11
HETATM   11  C   UNL     1      -8.771   7.754  67.915  1.00  0.00    -0.124 C  
BRANCH  11  12
HETATM   12  C   UNL     1      -9.101   8.159  66.504  1.00  0.00    -0.216 C  
HETATM   13  C   UNL     1      -9.200   9.411  66.032  1.00  0.00    -0.253 C  
BRANCH  13  14
HETATM   14  C   UNL     1      -9.072  10.656  66.846  1.00  0.00    -0.168 C  
BRANCH  14  15
HETATM   15  C   UNL     1      -7.686  11.238  66.821  1.00  0.00    -0.155 C  
HETATM   16  C   UNL     1      -6.813  11.103  67.834  1.00  0.00    -0.068 C  
BRANCH  16  17
HETATM   17  C   UNL     1      -7.127  10.416  69.129  1.00  0.00    -0.080 C  
BRANCH  17  18
HETATM   18  C   UNL     1      -5.906   9.894  69.835  1.00  0.00    -0.043 C  
HETATM   19  C   UNL     1      -5.946   8.848  70.680  1.00  0.00    -0.035 C  
BRANCH  19  20
HETATM   20  C   UNL     1      -7.227   8.113  70.968  1.00  0.00    -0.057 C  
BRANCH  20  21
HETATM   21  C   UNL     1      -7.862   8.430  72.317  1.00  0.00    -0.162 C  
HETATM   22  C   UNL     1      -8.993   7.456  72.569  1.00  0.00    -0.132 C  
HETATM   23  O   UNL     1      -9.937   7.947  73.408  1.00  0.00    -0.314 OA 
HETATM   24  O   UNL     1      -9.065   6.332  72.107  1.00  0.00    -0.142 OA 
ENDBRANCH  20  21
ENDBRANCH  19  20
ENDBRANCH  17  18
ENDBRANCH  16  17
ENDBRANCH  14  15
ENDBRANCH  13  14
ENDBRANCH  11  12
ENDBRANCH  10  11
ENDBRANCH   8   9
ENDBRANCH   7   8
ENDBRANCH   5   6
ENDBRANCH   4   5
ENDBRANCH   2   3
TORSDOF 13
ENDMDL
MODEL      432
REMARK 921   NORMALIZED FREE ENERGY PREDICTED BY IDOCK:   -2.58 KCAL/MOL
REMARK 922        TOTAL FREE ENERGY PREDICTED BY IDOCK:   -7.32 KCAL/MOL
REMARK 923 INTER-LIGAND FREE ENERGY PREDICTED BY IDOCK:   -6.01 KCAL/MOL
REMARK 924 INTRA-LIGAND FREE ENERGY PREDICTED BY IDOCK:   -1.31 KCAL/MOL
REMARK 927      BINDING AFFINITY PREDICTED BY RF-SCORE:    0.00 PKD
ROOT
HETATM    1  C   UNL     1      -6.995   2.427  74.271  1.00  0.00    -0.031 C  
HETATM    2  C   UNL     1      -8.384   1.886  74.565  1.00  0.00    -0.057 C  
ENDROOT
BRANCH   2   3
HETATM    3  C   UNL     1      -9.454   2.931  74.415  1.00  0.00    -0.114 C  
HETATM    4  C   UNL     1     -10.071   3.253  73.265  1.00  0.00    -0.201 C  
BRANCH   4   5
HETATM    5  C   UNL     1      -9.738   2.694  71.910  1.00  0.00    -0.221 C  
BRANCH   5   6
HETATM    6  C   UNL     1      -8.749   3.557  71.174  1.00  0.00    -0.123 C  
HETATM    7  C   UNL     1      -9.044   4.590  70.366  1.00  0.00    -0.169 C  
BRANCH   7   8
HETATM    8  C   UNL     1     -10.436   5.041  70.033  1.00  0.00    -0.226 C  
BRANCH   8   9
HETATM    9  C   UNL     1     -10.507   5.767  68.722  1.00  0.00    -0.312 C  
HETATM   10  C   UNL     1     -10.659   7.091  68.547  1.00  0.00    -0.235 C  
BRANCH  10  11
HETATM   11  C   UNL     1     -10.716   8.147  69.618  1.00  0.00    -0.196 C  
BRANCH  11  12
HETATM   12  C   UNL     1      -9.682   9.225  69.444  1.00  0.00    -0.175 C  
HETATM   13  C   UNL     1      -9.910  10.516  69.158  1.00  0.00    -0.233 C  
BRANCH  13  14
HETATM   14  C   UNL     1     -11.248  11.118  68.883  1.00  0.00    -0.317 C  
BRANCH  14  15
HETATM   15  C   UNL     1     -11.900  11.694  70.109  1.00  0.00    -0.428 C  
HETATM   16  C   UNL     1     -12.297  12.975  70.200  1.00  0.00    -0.270 C  
BRANCH  16  17
HETATM   17  C   UNL     1     -12.086  13.998  69.125  1.00  0.00    -0.375 C  
BRANCH  17  18
HETATM   18  C   UNL     1     -11.757  15.364  69.661  1.00  0.00    -0.355 C  
HETATM   19  C   UNL     1     -10.986  16.242  68.994  1.00  0.00    -0.325 C  
BRANCH  19  20
HETATM   20  C   UNL     1     -10.405  15.917  67.644  1.00  0.00    -0.281 C  
BRANCH  20  21
HETATM   21  C   UNL     1     -10.977  16.726  66.486  1.00  0.00     0.142 C  
HETATM   22  C   UNL     1     -11.085  15.833  65.269  1.00  0.00    -0.273 C  
HETATM   23  O   UNL     1     -11.047  16.521  64.103  1.00  0.00    -0.903 OA 
HETATM   24  O   UNL     1     -11.221  14.623  65.298  1.00  0.00    -0.328 OA 
ENDBRANCH  20  21
ENDBRANCH  19  20
ENDBRANCH  17  18
ENDBRANCH  16  17
ENDBRANCH  14  15
ENDBRANCH  13  14
ENDBRANCH  11  12
ENDBRANCH  10  11
ENDBRANCH   8   9
ENDBRANCH   7   8
ENDBRANCH   5   6
ENDBRANCH   4   5
ENDBRANCH   2   3
TORSDOF 13
ENDMDL
MODEL      433
REMARK 921   NORMALIZED FREE ENERGY PREDICTED BY IDOCK:   -2.58 KCAL/MOL
REMARK 922        TOTAL FREE ENERGY PREDICTED BY IDOCK:   -7.32 KCAL/MOL
REMARK 923 INTER-LIGAND FREE ENERGY PREDICTED BY IDOCK:   -5.89 KCAL/MOL
REMARK 924 INTRA-LIGAND FREE ENERGY PREDICTED BY IDOCK:   -1.43 KCAL/MOL
REMARK 927      BINDING AFFINITY PREDICTED BY RF-SCORE:    0.00 PKD
ROOT
HETATM    1  C   UNL     1      -5.925   7.250  74.530  1.00  0.00    -0.081 C  
HETATM    2  C   UNL     1      -6.171   8.471  73.660  1.00  0.00    -0.130 C  
ENDROOT
BRANCH   2   3
HETATM    3  C   UNL     1      -6.153   8.147  72.193  1.00  0.00    -0.049 C  
HETATM    4  C   UNL     1      -7.187   8.302  71.348  1.00  0.00    -0.080 C  
BRANCH   4   5
HETATM    5  C   UNL     1      -8.572   8.738  71.736  1.00  0.00    -0.198 C  
BRANCH   5   6
HETATM    6  C   UNL     1      -9.001   8.142  73.049  1.00  0.00    -0.335 C  
HETATM    7  C   UNL     1     -10.216   7.640  73.334  1.00  0.00    -0.375 C  
BRANCH   7   8
HETATM    8  C   UNL     1     -11.374   7.621  72.380  1.00  0.00    -0.381 C  
BRANCH   8   9
HETATM    9  C   UNL     1     -11.376   6.404  71.501  1.00  0.00    -0.346 C  
HETATM   10  C   UNL     1     -11.219   6.379  70.167  1.00  0.00    -0.454 C  
BRANCH  10  11
HETATM   11  C   UNL     1     -10.933   7.550  69.266  1.00  0.00    -0.057 C  
BRANCH  11  12
HETATM   12  C   UNL     1     -10.177   7.171  68.022  1.00  0.00    -0.223 C  
HETATM   13  C   UNL     1      -9.917   7.962  66.969  1.00  0.00    -0.322 C  
BRANCH  13  14
HETATM   14  C   UNL     1     -10.399   9.364  66.800  1.00  0.00    -0.303 C  
BRANCH  14  15
HETATM   15  C   UNL     1      -9.452  10.222  66.009  1.00  0.00    -0.234 C  
HETATM   16  C   UNL     1      -8.768  11.250  66.541  1.00  0.00    -0.178 C  
BRANCH  16  17
HETATM   17  C   UNL     1      -8.908  11.706  67.962  1.00  0.00    -0.162 C  
BRANCH  17  18
HETATM   18  C   UNL     1      -8.954  13.202  68.104  1.00  0.00    -0.195 C  
HETATM   19  C   UNL     1     -10.095  13.877  68.336  1.00  0.00    -0.237 C  
BRANCH  19  20
HETATM   20  C   UNL     1     -11.415  13.169  68.486  1.00  0.00    -0.338 C  
BRANCH  20  21
HETATM   21  C   UNL     1     -11.816  12.853  69.922  1.00  0.00    -0.373 C  
HETATM   22  C   UNL     1     -12.316  14.120  70.582  1.00  0.00    -0.365 C  
HETATM   23  O   UNL     1     -12.180  14.102  71.930  1.00  0.00    -0.259 OA 
HETATM   24  O   UNL     1     -12.819  15.063  69.999  1.00  0.00    -0.212 OA 
ENDBRANCH  20  21
ENDBRANCH  19  20
ENDBRANCH  17  18
ENDBRANCH  16  17
ENDBRANCH  14  15
ENDBRANCH  13  14
ENDBRANCH  11  12
ENDBRANCH  10  11
ENDBRANCH   8   9
ENDBRANCH   7   8
ENDBRANCH   5   6
ENDBRANCH   4   5
ENDBRANCH   2   3
TORSDOF 13
ENDMDL
MODEL      434
REMARK 921   NORMALIZED FREE ENERGY PREDICTED BY IDOCK:   -2.56 KCAL/MOL
REMARK 922        TOTAL FREE ENERGY PREDICTED BY IDOCK:   -7.28 KCAL/MOL
REMARK 923 INTER-LIGAND FREE ENERGY PREDICTED BY IDOCK:   -5.65 KCAL/MOL
REMARK 924 INTRA-LIGAND FREE ENERGY PREDICTED BY IDOCK:   -1.63 KCAL/MOL
REMARK 927      BINDING AFFINITY PREDICTED BY RF-SCORE:    0.00 PKD
ROOT
HETATM    1  C   UNL     1     -12.156  14.216  64.797  1.00  0.00    -0.454 C  
HETATM    2  C   UNL     1     -12.518  13.608  66.141  1.00  0.00    -0.449 C  
ENDROOT
BRANCH   2   3
HETATM    3  C   UNL     1     -11.591  14.044  67.240  1.00  0.00    -0.396 C  
HETATM    4  C   UNL     1     -11.099  13.247  68.205  1.00  0.00    -0.294 C  
BRANCH   4   5
HETATM    5  C   UNL     1     -11.462  11.804  68.414  1.00  0.00    -0.354 C  
BRANCH   5   6
HETATM    6  C   UNL     1     -10.713  10.896  67.476  1.00  0.00    -0.299 C  
HETATM    7  C   UNL     1     -10.272   9.656  67.754  1.00  0.00    -0.253 C  
BRANCH   7   8
HETATM    8  C   UNL     1     -10.431   8.974  69.081  1.00  0.00    -0.239 C  
BRANCH   8   9
HETATM    9  C   UNL     1      -9.442   7.863  69.278  1.00  0.00    -0.152 C  
HETATM   10  C   UNL     1      -8.318   7.911  70.013  1.00  0.00    -0.121 C  
BRANCH  10  11
HETATM   11  C   UNL     1      -7.837   9.058  70.860  1.00  0.00    -0.172 C  
BRANCH  11  12
HETATM   12  C   UNL     1      -6.516   8.790  71.527  1.00  0.00    -0.074 C  
HETATM   13  C   UNL     1      -6.317   8.495  72.821  1.00  0.00    -0.095 C  
BRANCH  13  14
HETATM   14  C   UNL     1      -7.376   8.450  73.872  1.00  0.00    -0.165 C  
BRANCH  14  15
HETATM   15  C   UNL     1      -7.727   7.051  74.296  1.00  0.00    -0.127 C  
HETATM   16  C   UNL     1      -8.972   6.549  74.221  1.00  0.00    -0.188 C  
BRANCH  16  17
HETATM   17  C   UNL     1     -10.168   7.331  73.767  1.00  0.00    -0.370 C  
BRANCH  17  18
HETATM   18  C   UNL     1     -10.805   6.773  72.525  1.00  0.00    -0.271 C  
HETATM   19  C   UNL     1     -11.287   5.519  72.455  1.00  0.00    -0.294 C  
BRANCH  19  20
HETATM   20  C   UNL     1     -11.231   4.583  73.633  1.00  0.00    -0.346 C  
BRANCH  20  21
HETATM   21  C   UNL     1     -11.280   3.101  73.281  1.00  0.00    -0.190 C  
HETATM   22  C   UNL     1      -9.931   2.679  72.741  1.00  0.00    -0.137 C  
HETATM   23  O   UNL     1     -10.003   1.604  71.920  1.00  0.00    -0.129 OA 
HETATM   24  O   UNL     1      -8.869   3.209  73.016  1.00  0.00    -0.083 OA 
ENDBRANCH  20  21
ENDBRANCH  19  20
ENDBRANCH  17  18
ENDBRANCH  16  17
ENDBRANCH  14  15
ENDBRANCH  13  14
ENDBRANCH  11  12
ENDBRANCH  10  11
ENDBRANCH   8   9
ENDBRANCH   7   8
ENDBRANCH   5   6
ENDBRANCH   4   5
ENDBRANCH   2   3
TORSDOF 13
ENDMDL
MODEL      435
REMARK 921   NORMALIZED FREE ENERGY PREDICTED BY IDOCK:   -2.55 KCAL/MOL
REMARK 922        TOTAL FREE ENERGY PREDICTED BY IDOCK:   -7.26 KCAL/MOL
REMARK 923 INTER-LIGAND FREE ENERGY PREDICTED BY IDOCK:   -6.14 KCAL/MOL
REMARK 924 INTRA-LIGAND FREE ENERGY PREDICTED BY IDOCK:   -1.12 KCAL/MOL
REMARK 927      BINDING AFFINITY PREDICTED BY RF-SCORE:    0.00 PKD
ROOT
HETATM    1  C   UNL     1      -8.044  19.481  65.982  1.00  0.00    -0.299 C  
HETATM    2  C   UNL     1      -8.058  19.705  67.485  1.00  0.00    -0.333 C  
ENDROOT
BRANCH   2   3
HETATM    3  C   UNL     1      -9.411  19.462  68.092  1.00  0.00    -0.418 C  
HETATM    4  C   UNL     1      -9.881  18.269  68.493  1.00  0.00    -0.400 C  
BRANCH   4   5
HETATM    5  C   UNL     1      -9.178  16.952  68.322  1.00  0.00    -0.241 C  
BRANCH   5   6
HETATM    6  C   UNL     1      -9.726  15.898  69.244  1.00  0.00    -0.263 C  
HETATM    7  C   UNL     1      -9.379  14.599  69.262  1.00  0.00     0.013 C  
BRANCH   7   8
HETATM    8  C   UNL     1      -8.392  13.969  68.324  1.00  0.00    -0.162 C  
BRANCH   8   9
HETATM    9  C   UNL     1      -7.009  13.904  68.903  1.00  0.00    -0.110 C  
HETATM   10  C   UNL     1      -6.287  12.794  69.132  1.00  0.00    -0.106 C  
BRANCH  10  11
HETATM   11  C   UNL     1      -6.670  11.379  68.792  1.00  0.00    -0.073 C  
BRANCH  11  12
HETATM   12  C   UNL     1      -6.301  10.985  67.388  1.00  0.00    -0.063 C  
HETATM   13  C   UNL     1      -6.875  10.025  66.647  1.00  0.00    -0.082 C  
BRANCH  13  14
HETATM   14  C   UNL     1      -7.954   9.104  67.111  1.00  0.00    -0.106 C  
BRANCH  14  15
HETATM   15  C   UNL     1      -9.030   8.890  66.083  1.00  0.00    -0.218 C  
HETATM   16  C   UNL     1      -9.948   9.822  65.772  1.00  0.00    -0.349 C  
BRANCH  16  17
HETATM   17  C   UNL     1     -10.054  11.155  66.449  1.00  0.00    -0.269 C  
BRANCH  17  18
HETATM   18  C   UNL     1     -10.589  11.068  67.852  1.00  0.00    -0.244 C  
HETATM   19  C   UNL     1     -11.544  11.892  68.319  1.00  0.00    -0.390 C  
BRANCH  19  20
HETATM   20  C   UNL     1     -12.158  12.961  67.455  1.00  0.00    -0.251 C  
BRANCH  20  21
HETATM   21  C   UNL     1     -11.261  13.482  66.340  1.00  0.00    -0.322 C  
HETATM   22  C   UNL     1     -12.083  13.637  65.079  1.00  0.00    -0.392 C  
HETATM   23  O   UNL     1     -11.339  13.556  63.949  1.00  0.00    -0.333 OA 
HETATM   24  O   UNL     1     -13.283  13.841  65.045  1.00  0.00    -0.733 OA 
ENDBRANCH  20  21
ENDBRANCH  19  20
ENDBRANCH  17  18
ENDBRANCH  16  17
ENDBRANCH  14  15
ENDBRANCH  13  14
ENDBRANCH  11  12
ENDBRANCH  10  11
ENDBRANCH   8   9
ENDBRANCH   7   8
ENDBRANCH   5   6
ENDBRANCH   4   5
ENDBRANCH   2   3
TORSDOF 13
ENDMDL
MODEL      436
REMARK 921   NORMALIZED FREE ENERGY PREDICTED BY IDOCK:   -2.54 KCAL/MOL
REMARK 922        TOTAL FREE ENERGY PREDICTED BY IDOCK:   -7.25 KCAL/MOL
REMARK 923 INTER-LIGAND FREE ENERGY PREDICTED BY IDOCK:   -6.14 KCAL/MOL
REMARK 924 INTRA-LIGAND FREE ENERGY PREDICTED BY IDOCK:   -1.11 KCAL/MOL
REMARK 927      BINDING AFFINITY PREDICTED BY RF-SCORE:    0.00 PKD
ROOT
HETATM    1  C   UNL     1      -7.173   6.958  70.979  1.00  0.00    -0.076 C  
HETATM    2  C   UNL     1      -8.355   6.252  70.336  1.00  0.00    -0.126 C  
ENDROOT
BRANCH   2   3
HETATM    3  C   UNL     1      -8.008   4.875  69.847  1.00  0.00    -0.069 C  
HETATM    4  C   UNL     1      -7.994   4.486  68.561  1.00  0.00    -0.079 C  
BRANCH   4   5
HETATM    5  C   UNL     1      -8.411   5.330  67.390  1.00  0.00    -0.106 C  
BRANCH   5   6
HETATM    6  C   UNL     1      -9.890   5.242  67.132  1.00  0.00    -0.184 C  
HETATM    7  C   UNL     1     -10.763   6.265  67.153  1.00  0.00    -0.432 C  
BRANCH   7   8
HETATM    8  C   UNL     1     -10.401   7.685  67.474  1.00  0.00    -0.326 C  
BRANCH   8   9
HETATM    9  C   UNL     1      -9.277   8.199  66.623  1.00  0.00    -0.225 C  
HETATM   10  C   UNL     1      -9.308   9.276  65.819  1.00  0.00    -0.306 C  
BRANCH  10  11
HETATM   11  C   UNL     1     -10.445  10.248  65.649  1.00  0.00    -0.152 C  
BRANCH  11  12
HETATM   12  C   UNL     1     -10.677  11.107  66.862  1.00  0.00    -0.322 C  
HETATM   13  C   UNL     1     -11.384  12.246  66.914  1.00  0.00    -0.392 C  
BRANCH  13  14
HETATM   14  C   UNL     1     -12.020  12.924  65.746  1.00  0.00    -0.496 C  
BRANCH  14  15
HETATM   15  C   UNL     1     -11.021  13.444  64.750  1.00  0.00    -0.371 C  
HETATM   16  C   UNL     1     -10.450  14.657  64.844  1.00  0.00    -0.415 C  
BRANCH  16  17
HETATM   17  C   UNL     1     -10.779  15.661  65.907  1.00  0.00    -0.336 C  
BRANCH  17  18
HETATM   18  C   UNL     1      -9.986  15.469  67.170  1.00  0.00    -0.242 C  
HETATM   19  C   UNL     1      -8.834  16.120  67.412  1.00  0.00    -0.199 C  
BRANCH  19  20
HETATM   20  C   UNL     1      -8.262  17.107  66.429  1.00  0.00    -0.327 C  
BRANCH  20  21
HETATM   21  C   UNL     1      -8.439  18.571  66.810  1.00  0.00    -0.290 C  
HETATM   22  C   UNL     1      -7.164  19.069  67.455  1.00  0.00    -0.217 C  
HETATM   23  O   UNL     1      -7.368  20.114  68.293  1.00  0.00    -0.285 OA 
HETATM   24  O   UNL     1      -6.051  18.620  67.246  1.00  0.00    -0.168 OA 
ENDBRANCH  20  21
ENDBRANCH  19  20
ENDBRANCH  17  18
ENDBRANCH  16  17
ENDBRANCH  14  15
ENDBRANCH  13  14
ENDBRANCH  11  12
ENDBRANCH  10  11
ENDBRANCH   8   9
ENDBRANCH   7   8
ENDBRANCH   5   6
ENDBRANCH   4   5
ENDBRANCH   2   3
TORSDOF 13
ENDMDL
MODEL      437
REMARK 921   NORMALIZED FREE ENERGY PREDICTED BY IDOCK:   -2.54 KCAL/MOL
REMARK 922        TOTAL FREE ENERGY PREDICTED BY IDOCK:   -7.24 KCAL/MOL
REMARK 923 INTER-LIGAND FREE ENERGY PREDICTED BY IDOCK:   -4.70 KCAL/MOL
REMARK 924 INTRA-LIGAND FREE ENERGY PREDICTED BY IDOCK:   -2.53 KCAL/MOL
REMARK 927      BINDING AFFINITY PREDICTED BY RF-SCORE:    0.00 PKD
ROOT
HETATM    1  C   UNL     1      -7.481   9.225  69.407  1.00  0.00    -0.078 C  
HETATM    2  C   UNL     1      -7.409   9.192  67.889  1.00  0.00    -0.084 C  
ENDROOT
BRANCH   2   3
HETATM    3  C   UNL     1      -6.333  10.088  67.344  1.00  0.00    -0.067 C  
HETATM    4  C   UNL     1      -6.484  10.954  66.327  1.00  0.00    -0.129 C  
BRANCH   4   5
HETATM    5  C   UNL     1      -7.725  11.116  65.495  1.00  0.00     0.265 C  
BRANCH   5   6
HETATM    6  C   UNL     1      -7.801  10.092  64.395  1.00  0.00    -0.138 C  
HETATM    7  C   UNL     1      -8.713  10.052  63.409  1.00  0.00    -0.226 C  
BRANCH   7   8
HETATM    8  C   UNL     1      -9.847  11.024  63.259  1.00  0.00    -0.406 C  
BRANCH   8   9
HETATM    9  C   UNL     1     -10.895  10.853  64.319  1.00  0.00    -0.121 C  
HETATM   10  C   UNL     1     -11.732  11.799  64.778  1.00  0.00    -0.212 C  
BRANCH  10  11
HETATM   11  C   UNL     1     -11.858  13.214  64.284  1.00  0.00    -0.462 C  
BRANCH  11  12
HETATM   12  C   UNL     1     -10.580  13.998  64.396  1.00  0.00    -0.196 C  
HETATM   13  C   UNL     1     -10.029  14.478  65.522  1.00  0.00    -0.373 C  
BRANCH  13  14
HETATM   14  C   UNL     1     -10.629  14.387  66.885  1.00  0.00    -0.278 C  
BRANCH  14  15
HETATM   15  C   UNL     1      -9.658  13.906  67.927  1.00  0.00    -0.227 C  
HETATM   16  C   UNL     1      -9.891  12.844  68.718  1.00  0.00     0.023 C  
BRANCH  16  17
HETATM   17  C   UNL     1     -11.163  12.051  68.706  1.00  0.00    -0.316 C  
BRANCH  17  18
HETATM   18  C   UNL     1     -11.100  10.842  67.814  1.00  0.00    -0.371 C  
HETATM   19  C   UNL     1     -11.036   9.587  68.293  1.00  0.00    -0.131 C  
BRANCH  19  20
HETATM   20  C   UNL     1     -11.036   9.303  69.771  1.00  0.00    -0.168 C  
BRANCH  20  21
HETATM   21  C   UNL     1     -10.855   7.838  70.146  1.00  0.00    -0.248 C  
HETATM   22  C   UNL     1     -10.727   7.727  71.650  1.00  0.00    -0.220 C  
HETATM   23  O   UNL     1     -10.044   6.625  72.042  1.00  0.00    -0.184 OA 
HETATM   24  O   UNL     1     -11.200   8.511  72.453  1.00  0.00    -0.359 OA 
ENDBRANCH  20  21
ENDBRANCH  19  20
ENDBRANCH  17  18
ENDBRANCH  16  17
ENDBRANCH  14  15
ENDBRANCH  13  14
ENDBRANCH  11  12
ENDBRANCH  10  11
ENDBRANCH   8   9
ENDBRANCH   7   8
ENDBRANCH   5   6
ENDBRANCH   4   5
ENDBRANCH   2   3
TORSDOF 13
ENDMDL
MODEL      438
REMARK 921   NORMALIZED FREE ENERGY PREDICTED BY IDOCK:   -2.51 KCAL/MOL
REMARK 922        TOTAL FREE ENERGY PREDICTED BY IDOCK:   -7.20 KCAL/MOL
REMARK 923 INTER-LIGAND FREE ENERGY PREDICTED BY IDOCK:   -5.37 KCAL/MOL
REMARK 924 INTRA-LIGAND FREE ENERGY PREDICTED BY IDOCK:   -1.83 KCAL/MOL
REMARK 927      BINDING AFFINITY PREDICTED BY RF-SCORE:    0.00 PKD
ROOT
HETATM    1  C   UNL     1      -7.294   9.965  70.068  1.00  0.00    -0.159 C  
HETATM    2  C   UNL     1      -6.547  11.025  69.275  1.00  0.00    -0.091 C  
ENDROOT
BRANCH   2   3
HETATM    3  C   UNL     1      -5.780  11.970  70.156  1.00  0.00    -0.152 C  
HETATM    4  C   UNL     1      -5.831  13.311  70.090  1.00  0.00    -0.147 C  
BRANCH   4   5
HETATM    5  C   UNL     1      -6.591  14.105  69.065  1.00  0.00    -0.104 C  
BRANCH   5   6
HETATM    6  C   UNL     1      -7.467  15.151  69.701  1.00  0.00    -0.181 C  
HETATM    7  C   UNL     1      -8.142  16.120  69.058  1.00  0.00    -0.237 C  
BRANCH   7   8
HETATM    8  C   UNL     1      -8.106  16.341  67.574  1.00  0.00    -0.165 C  
BRANCH   8   9
HETATM    9  C   UNL     1      -9.166  17.296  67.109  1.00  0.00    -0.240 C  
HETATM   10  C   UNL     1     -10.323  16.976  66.505  1.00  0.00    -0.298 C  
BRANCH  10  11
HETATM   11  C   UNL     1     -10.849  15.594  66.229  1.00  0.00    -0.262 C  
BRANCH  11  12
HETATM   12  C   UNL     1     -11.181  15.365  64.780  1.00  0.00    -0.404 C  
HETATM   13  C   UNL     1     -11.619  14.222  64.228  1.00  0.00    -0.299 C  
BRANCH  13  14
HETATM   14  C   UNL     1     -11.792  12.926  64.947  1.00  0.00    -0.409 C  
BRANCH  14  15
HETATM   15  C   UNL     1     -11.390  11.735  64.121  1.00  0.00    -0.430 C  
HETATM   16  C   UNL     1     -10.462  10.846  64.514  1.00  0.00    -0.393 C  
BRANCH  16  17
HETATM   17  C   UNL     1      -9.673  10.960  65.784  1.00  0.00    -0.270 C  
BRANCH  17  18
HETATM   18  C   UNL     1      -8.212  10.651  65.605  1.00  0.00    -0.154 C  
HETATM   19  C   UNL     1      -7.719   9.402  65.675  1.00  0.00    -0.099 C  
BRANCH  19  20
HETATM   20  C   UNL     1      -8.608   8.213  65.927  1.00  0.00    -0.171 C  
BRANCH  20  21
HETATM   21  C   UNL     1      -8.477   7.594  67.313  1.00  0.00    -0.121 C  
HETATM   22  C   UNL     1      -9.843   7.553  67.964  1.00  0.00    -0.151 C  
HETATM   23  O   UNL     1      -9.783   7.549  69.317  1.00  0.00    -0.161 OA 
HETATM   24  O   UNL     1     -10.903   7.499  67.366  1.00  0.00    -0.267 OA 
ENDBRANCH  20  21
ENDBRANCH  19  20
ENDBRANCH  17  18
ENDBRANCH  16  17
ENDBRANCH  14  15
ENDBRANCH  13  14
ENDBRANCH  11  12
ENDBRANCH  10  11
ENDBRANCH   8   9
ENDBRANCH   7   8
ENDBRANCH   5   6
ENDBRANCH   4   5
ENDBRANCH   2   3
TORSDOF 13
ENDMDL
MODEL      439
REMARK 921   NORMALIZED FREE ENERGY PREDICTED BY IDOCK:   -2.51 KCAL/MOL
REMARK 922        TOTAL FREE ENERGY PREDICTED BY IDOCK:   -7.20 KCAL/MOL
REMARK 923 INTER-LIGAND FREE ENERGY PREDICTED BY IDOCK:   -4.66 KCAL/MOL
REMARK 924 INTRA-LIGAND FREE ENERGY PREDICTED BY IDOCK:   -2.54 KCAL/MOL
REMARK 927      BINDING AFFINITY PREDICTED BY RF-SCORE:    0.00 PKD
ROOT
HETATM    1  C   UNL     1     -10.525   4.016  73.036  1.00  0.00    -0.250 C  
HETATM    2  C   UNL     1     -11.325   5.291  72.824  1.00  0.00    -0.342 C  
ENDROOT
BRANCH   2   3
HETATM    3  C   UNL     1     -11.368   5.712  71.382  1.00  0.00    -0.085 C  
HETATM    4  C   UNL     1     -10.507   6.559  70.792  1.00  0.00    -0.262 C  
BRANCH   4   5
HETATM    5  C   UNL     1      -9.407   7.310  71.489  1.00  0.00    -0.155 C  
BRANCH   5   6
HETATM    6  C   UNL     1      -8.097   6.572  71.425  1.00  0.00    -0.112 C  
HETATM    7  C   UNL     1      -7.014   6.937  70.718  1.00  0.00    -0.066 C  
BRANCH   7   8
HETATM    8  C   UNL     1      -6.943   8.147  69.833  1.00  0.00    -0.048 C  
BRANCH   8   9
HETATM    9  C   UNL     1      -6.406   9.352  70.547  1.00  0.00    -0.072 C  
HETATM   10  C   UNL     1      -6.644  10.638  70.240  1.00  0.00    -0.127 C  
BRANCH  10  11
HETATM   11  C   UNL     1      -7.558  11.158  69.163  1.00  0.00    -0.098 C  
BRANCH  11  12
HETATM   12  C   UNL     1      -6.961  12.292  68.375  1.00  0.00    -0.082 C  
HETATM   13  C   UNL     1      -7.626  13.184  67.624  1.00  0.00    -0.171 C  
BRANCH  13  14
HETATM   14  C   UNL     1      -9.096  13.174  67.367  1.00  0.00    -0.208 C  
BRANCH  14  15
HETATM   15  C   UNL     1      -9.483  12.315  66.195  1.00  0.00    -0.221 C  
HETATM   16  C   UNL     1     -10.540  11.484  66.208  1.00  0.00    -0.309 C  
BRANCH  16  17
HETATM   17  C   UNL     1     -11.421  11.263  67.401  1.00  0.00    -0.300 C  
BRANCH  17  18
HETATM   18  C   UNL     1     -11.405   9.843  67.895  1.00  0.00     0.053 C  
HETATM   19  C   UNL     1     -11.311   9.527  69.200  1.00  0.00     0.092 C  
BRANCH  19  20
HETATM   20  C   UNL     1     -11.228  10.587  70.266  1.00  0.00    -0.391 C  
BRANCH  20  21
HETATM   21  C   UNL     1     -12.479  10.737  71.123  1.00  0.00    -0.519 C  
HETATM   22  C   UNL     1     -12.758  12.210  71.331  1.00  0.00    -0.263 C  
HETATM   23  O   UNL     1     -13.460  12.460  72.462  1.00  0.00    -0.412 OA 
HETATM   24  O   UNL     1     -12.427  13.101  70.569  1.00  0.00    -0.313 OA 
ENDBRANCH  20  21
ENDBRANCH  19  20
ENDBRANCH  17  18
ENDBRANCH  16  17
ENDBRANCH  14  15
ENDBRANCH  13  14
ENDBRANCH  11  12
ENDBRANCH  10  11
ENDBRANCH   8   9
ENDBRANCH   7   8
ENDBRANCH   5   6
ENDBRANCH   4   5
ENDBRANCH   2   3
TORSDOF 13
ENDMDL
MODEL      440
REMARK 921   NORMALIZED FREE ENERGY PREDICTED BY IDOCK:   -2.51 KCAL/MOL
REMARK 922        TOTAL FREE ENERGY PREDICTED BY IDOCK:   -7.19 KCAL/MOL
REMARK 923 INTER-LIGAND FREE ENERGY PREDICTED BY IDOCK:   -4.98 KCAL/MOL
REMARK 924 INTRA-LIGAND FREE ENERGY PREDICTED BY IDOCK:   -2.21 KCAL/MOL
REMARK 927      BINDING AFFINITY PREDICTED BY RF-SCORE:    0.00 PKD
ROOT
HETATM    1  C   UNL     1      -8.441  16.082  66.265  1.00  0.00    -0.337 C  
HETATM    2  C   UNL     1      -9.729  15.277  66.222  1.00  0.00    -0.325 C  
ENDROOT
BRANCH   2   3
HETATM    3  C   UNL     1     -10.648  15.599  67.366  1.00  0.00    -0.301 C  
HETATM    4  C   UNL     1     -10.823  14.840  68.462  1.00  0.00    -0.255 C  
BRANCH   4   5
HETATM    5  C   UNL     1     -10.202  13.491  68.696  1.00  0.00    -0.193 C  
BRANCH   5   6
HETATM    6  C   UNL     1     -11.231  12.457  69.065  1.00  0.00    -0.320 C  
HETATM    7  C   UNL     1     -11.589  11.394  68.325  1.00  0.00    -0.376 C  
BRANCH   7   8
HETATM    8  C   UNL     1     -11.034  11.076  66.967  1.00  0.00    -0.333 C  
BRANCH   8   9
HETATM    9  C   UNL     1     -10.705   9.621  66.806  1.00  0.00    -0.149 C  
HETATM   10  C   UNL     1      -9.480   9.070  66.823  1.00  0.00    -0.238 C  
BRANCH  10  11
HETATM   11  C   UNL     1      -8.174   9.772  67.080  1.00  0.00    -0.121 C  
BRANCH  11  12
HETATM   12  C   UNL     1      -7.151   9.537  66.003  1.00  0.00    -0.092 C  
HETATM   13  C   UNL     1      -6.231   8.560  65.970  1.00  0.00    -0.052 C  
BRANCH  13  14
HETATM   14  C   UNL     1      -5.998   7.554  67.047  1.00  0.00    -0.046 C  
BRANCH  14  15
HETATM   15  C   UNL     1      -6.863   6.332  66.911  1.00  0.00    -0.062 C  
HETATM   16  C   UNL     1      -7.758   5.956  67.841  1.00  0.00    -0.100 C  
BRANCH  16  17
HETATM   17  C   UNL     1      -7.962   6.664  69.147  1.00  0.00    -0.112 C  
BRANCH  17  18
HETATM   18  C   UNL     1      -7.580   5.831  70.339  1.00  0.00    -0.090 C  
HETATM   19  C   UNL     1      -8.467   5.080  71.016  1.00  0.00    -0.122 C  
BRANCH  19  20
HETATM   20  C   UNL     1      -9.915   5.010  70.613  1.00  0.00    -0.300 C  
BRANCH  20  21
HETATM   21  C   UNL     1     -10.903   5.458  71.682  1.00  0.00    -0.232 C  
HETATM   22  C   UNL     1     -11.281   6.901  71.429  1.00  0.00    -0.259 C  
HETATM   23  O   UNL     1     -11.684   7.547  72.550  1.00  0.00    -0.300 OA 
HETATM   24  O   UNL     1     -11.266   7.450  70.341  1.00  0.00    -0.266 OA 
ENDBRANCH  20  21
ENDBRANCH  19  20
ENDBRANCH  17  18
ENDBRANCH  16  17
ENDBRANCH  14  15
ENDBRANCH  13  14
ENDBRANCH  11  12
ENDBRANCH  10  11
ENDBRANCH   8   9
ENDBRANCH   7   8
ENDBRANCH   5   6
ENDBRANCH   4   5
ENDBRANCH   2   3
TORSDOF 13
ENDMDL
MODEL      441
REMARK 921   NORMALIZED FREE ENERGY PREDICTED BY IDOCK:   -2.51 KCAL/MOL
REMARK 922        TOTAL FREE ENERGY PREDICTED BY IDOCK:   -7.19 KCAL/MOL
REMARK 923 INTER-LIGAND FREE ENERGY PREDICTED BY IDOCK:   -4.81 KCAL/MOL
REMARK 924 INTRA-LIGAND FREE ENERGY PREDICTED BY IDOCK:   -2.38 KCAL/MOL
REMARK 927      BINDING AFFINITY PREDICTED BY RF-SCORE:    0.00 PKD
ROOT
HETATM    1  C   UNL     1     -11.113   5.846  68.935  1.00  0.00    -0.254 C  
HETATM    2  C   UNL     1     -10.100   5.313  69.935  1.00  0.00    -0.333 C  
ENDROOT
BRANCH   2   3
HETATM    3  C   UNL     1     -10.523   5.536  71.359  1.00  0.00    -0.305 C  
HETATM    4  C   UNL     1     -10.219   6.614  72.102  1.00  0.00    -0.209 C  
BRANCH   4   5
HETATM    5  C   UNL     1      -9.326   7.744  71.675  1.00  0.00    -0.174 C  
BRANCH   5   6
HETATM    6  C   UNL     1      -8.416   8.191  72.785  1.00  0.00    -0.250 C  
HETATM    7  C   UNL     1      -7.149   8.621  72.650  1.00  0.00     0.004 C  
BRANCH   7   8
HETATM    8  C   UNL     1      -6.411   8.696  71.346  1.00  0.00    -0.060 C  
BRANCH   8   9
HETATM    9  C   UNL     1      -5.459   7.552  71.156  1.00  0.00    -0.031 C  
HETATM   10  C   UNL     1      -5.609   6.516  70.314  1.00  0.00    -0.018 C  
BRANCH  10  11
HETATM   11  C   UNL     1      -6.721   6.308  69.322  1.00  0.00    -0.056 C  
BRANCH  11  12
HETATM   12  C   UNL     1      -6.519   7.065  68.037  1.00  0.00    -0.047 C  
HETATM   13  C   UNL     1      -7.403   7.877  67.437  1.00  0.00    -0.092 C  
BRANCH  13  14
HETATM   14  C   UNL     1      -8.800   8.127  67.899  1.00  0.00    -0.131 C  
BRANCH  14  15
HETATM   15  C   UNL     1      -9.649   8.815  66.866  1.00  0.00    -0.249 C  
HETATM   16  C   UNL     1     -10.196  10.028  67.051  1.00  0.00    -0.295 C  
BRANCH  16  17
HETATM   17  C   UNL     1     -10.083  10.817  68.322  1.00  0.00    -0.187 C  
BRANCH  17  18
HETATM   18  C   UNL     1     -11.368  10.875  69.100  1.00  0.00    -0.350 C  
HETATM   19  C   UNL     1     -12.035  12.023  69.318  1.00  0.00    -0.329 C  
BRANCH  19  20
HETATM   20  C   UNL     1     -11.541  13.339  68.780  1.00  0.00    -0.350 C  
BRANCH  20  21
HETATM   21  C   UNL     1     -12.383  14.549  69.165  1.00  0.00    -0.152 C  
HETATM   22  C   UNL     1     -11.825  15.152  70.437  1.00  0.00    -0.307 C  
HETATM   23  O   UNL     1     -12.752  15.839  71.147  1.00  0.00    -0.471 OA 
HETATM   24  O   UNL     1     -10.666  15.071  70.801  1.00  0.00    -0.158 OA 
ENDBRANCH  20  21
ENDBRANCH  19  20
ENDBRANCH  17  18
ENDBRANCH  16  17
ENDBRANCH  14  15
ENDBRANCH  13  14
ENDBRANCH  11  12
ENDBRANCH  10  11
ENDBRANCH   8   9
ENDBRANCH   7   8
ENDBRANCH   5   6
ENDBRANCH   4   5
ENDBRANCH   2   3
TORSDOF 13
ENDMDL
MODEL      442
REMARK 921   NORMALIZED FREE ENERGY PREDICTED BY IDOCK:   -2.50 KCAL/MOL
REMARK 922        TOTAL FREE ENERGY PREDICTED BY IDOCK:   -7.18 KCAL/MOL
REMARK 923 INTER-LIGAND FREE ENERGY PREDICTED BY IDOCK:   -6.37 KCAL/MOL
REMARK 924 INTRA-LIGAND FREE ENERGY PREDICTED BY IDOCK:   -0.81 KCAL/MOL
REMARK 927      BINDING AFFINITY PREDICTED BY RF-SCORE:    0.00 PKD
ROOT
HETATM    1  C   UNL     1      -6.808   7.832  67.609  1.00  0.00    -0.069 C  
HETATM    2  C   UNL     1      -5.739   8.900  67.448  1.00  0.00    -0.039 C  
ENDROOT
BRANCH   2   3
HETATM    3  C   UNL     1      -6.296  10.203  66.950  1.00  0.00    -0.069 C  
HETATM    4  C   UNL     1      -7.188  10.338  65.954  1.00  0.00    -0.131 C  
BRANCH   4   5
HETATM    5  C   UNL     1      -7.716   9.220  65.099  1.00  0.00    -0.108 C  
BRANCH   5   6
HETATM    6  C   UNL     1      -7.149   9.263  63.706  1.00  0.00    -0.095 C  
HETATM    7  C   UNL     1      -7.807   9.629  62.591  1.00  0.00    -0.122 C  
BRANCH   7   8
HETATM    8  C   UNL     1      -9.252  10.031  62.549  1.00  0.00    -0.319 C  
BRANCH   8   9
HETATM    9  C   UNL     1      -9.436  11.520  62.596  1.00  0.00    -0.107 C  
HETATM   10  C   UNL     1     -10.376  12.190  63.283  1.00  0.00    -0.352 C  
BRANCH  10  11
HETATM   11  C   UNL     1     -11.404  11.608  64.215  1.00  0.00    -0.361 C  
BRANCH  11  12
HETATM   12  C   UNL     1     -12.346  12.638  64.777  1.00  0.00    -0.556 C  
HETATM   13  C   UNL     1     -12.030  13.651  65.599  1.00  0.00    -0.422 C  
BRANCH  13  14
HETATM   14  C   UNL     1     -10.677  13.905  66.177  1.00  0.00    -0.283 C  
BRANCH  14  15
HETATM   15  C   UNL     1     -10.055  15.181  65.683  1.00  0.00    -0.392 C  
HETATM   16  C   UNL     1      -9.721  16.200  66.494  1.00  0.00    -0.282 C  
BRANCH  16  17
HETATM   17  C   UNL     1      -9.981  16.220  67.971  1.00  0.00    -0.240 C  
BRANCH  17  18
HETATM   18  C   UNL     1     -10.698  17.459  68.431  1.00  0.00    -0.301 C  
HETATM   19  C   UNL     1     -10.061  18.618  68.679  1.00  0.00    -0.412 C  
BRANCH  19  20
HETATM   20  C   UNL     1      -8.573  18.757  68.497  1.00  0.00    -0.378 C  
BRANCH  20  21
HETATM   21  C   UNL     1      -8.130  20.013  67.757  1.00  0.00    -0.320 C  
HETATM   22  C   UNL     1      -7.621  19.621  66.386  1.00  0.00    -0.291 C  
HETATM   23  O   UNL     1      -6.734  20.510  65.878  1.00  0.00    -0.235 OA 
HETATM   24  O   UNL     1      -7.971  18.635  65.764  1.00  0.00    -0.487 OA 
ENDBRANCH  20  21
ENDBRANCH  19  20
ENDBRANCH  17  18
ENDBRANCH  16  17
ENDBRANCH  14  15
ENDBRANCH  13  14
ENDBRANCH  11  12
ENDBRANCH  10  11
ENDBRANCH   8   9
ENDBRANCH   7   8
ENDBRANCH   5   6
ENDBRANCH   4   5
ENDBRANCH   2   3
TORSDOF 13
ENDMDL
MODEL      443
REMARK 921   NORMALIZED FREE ENERGY PREDICTED BY IDOCK:   -2.50 KCAL/MOL
REMARK 922        TOTAL FREE ENERGY PREDICTED BY IDOCK:   -7.18 KCAL/MOL
REMARK 923 INTER-LIGAND FREE ENERGY PREDICTED BY IDOCK:   -4.65 KCAL/MOL
REMARK 924 INTRA-LIGAND FREE ENERGY PREDICTED BY IDOCK:   -2.53 KCAL/MOL
REMARK 927      BINDING AFFINITY PREDICTED BY RF-SCORE:    0.00 PKD
ROOT
HETATM    1  C   UNL     1      -7.528   7.291  65.123  1.00  0.00    -0.087 C  
HETATM    2  C   UNL     1      -8.244   8.548  65.588  1.00  0.00    -0.130 C  
ENDROOT
BRANCH   2   3
HETATM    3  C   UNL     1      -9.408   8.248  66.490  1.00  0.00    -0.263 C  
HETATM    4  C   UNL     1      -9.426   8.427  67.822  1.00  0.00    -0.171 C  
BRANCH   4   5
HETATM    5  C   UNL     1      -8.258   8.869  68.659  1.00  0.00    -0.116 C  
BRANCH   5   6
HETATM    6  C   UNL     1      -8.114   8.038  69.905  1.00  0.00    -0.117 C  
HETATM    7  C   UNL     1      -7.304   6.976  70.062  1.00  0.00    -0.081 C  
BRANCH   7   8
HETATM    8  C   UNL     1      -6.417   6.416  68.989  1.00  0.00    -0.043 C  
BRANCH   8   9
HETATM    9  C   UNL     1      -7.171   5.571  68.004  1.00  0.00    -0.072 C  
HETATM   10  C   UNL     1      -7.179   4.228  67.941  1.00  0.00    -0.064 C  
BRANCH  10  11
HETATM   11  C   UNL     1      -6.499   3.273  68.884  1.00  0.00    -0.030 C  
BRANCH  11  12
HETATM   12  C   UNL     1      -6.825   3.533  70.329  1.00  0.00    -0.034 C  
HETATM   13  C   UNL     1      -8.031   3.434  70.910  1.00  0.00    -0.055 C  
BRANCH  13  14
HETATM   14  C   UNL     1      -9.307   3.115  70.205  1.00  0.00    -0.236 C  
BRANCH  14  15
HETATM   15  C   UNL     1     -10.013   4.334  69.681  1.00  0.00    -0.149 C  
HETATM   16  C   UNL     1     -10.594   5.248  70.477  1.00  0.00    -0.272 C  
BRANCH  16  17
HETATM   17  C   UNL     1     -10.667   5.137  71.971  1.00  0.00    -0.236 C  
BRANCH  17  18
HETATM   18  C   UNL     1      -9.802   6.140  72.683  1.00  0.00    -0.178 C  
HETATM   19  C   UNL     1     -10.200   7.403  72.922  1.00  0.00    -0.310 C  
BRANCH  19  20
HETATM   20  C   UNL     1     -11.557   7.899  72.500  1.00  0.00    -0.443 C  
BRANCH  20  21
HETATM   21  C   UNL     1     -11.563   9.265  71.827  1.00  0.00    -0.458 C  
HETATM   22  C   UNL     1     -12.977   9.804  71.822  1.00  0.00    -0.438 C  
HETATM   23  O   UNL     1     -13.201  10.690  70.822  1.00  0.00    -0.293 OA 
HETATM   24  O   UNL     1     -13.840   9.517  72.632  1.00  0.00    -0.370 OA 
ENDBRANCH  20  21
ENDBRANCH  19  20
ENDBRANCH  17  18
ENDBRANCH  16  17
ENDBRANCH  14  15
ENDBRANCH  13  14
ENDBRANCH  11  12
ENDBRANCH  10  11
ENDBRANCH   8   9
ENDBRANCH   7   8
ENDBRANCH   5   6
ENDBRANCH   4   5
ENDBRANCH   2   3
TORSDOF 13
ENDMDL
MODEL      444
REMARK 921   NORMALIZED FREE ENERGY PREDICTED BY IDOCK:   -2.48 KCAL/MOL
REMARK 922        TOTAL FREE ENERGY PREDICTED BY IDOCK:   -7.15 KCAL/MOL
REMARK 923 INTER-LIGAND FREE ENERGY PREDICTED BY IDOCK:   -4.76 KCAL/MOL
REMARK 924 INTRA-LIGAND FREE ENERGY PREDICTED BY IDOCK:   -2.38 KCAL/MOL
REMARK 927      BINDING AFFINITY PREDICTED BY RF-SCORE:    0.00 PKD
ROOT
HETATM    1  C   UNL     1      -8.056  12.824  67.502  1.00  0.00    -0.180 C  
HETATM    2  C   UNL     1      -9.091  12.249  66.549  1.00  0.00    -0.188 C  
ENDROOT
BRANCH   2   3
HETATM    3  C   UNL     1     -10.489  12.339  67.093  1.00  0.00    -0.238 C  
HETATM    4  C   UNL     1     -11.233  11.297  67.502  1.00  0.00    -0.357 C  
BRANCH   4   5
HETATM    5  C   UNL     1     -10.838   9.851  67.402  1.00  0.00    -0.293 C  
BRANCH   5   6
HETATM    6  C   UNL     1      -9.719   9.507  68.346  1.00  0.00    -0.168 C  
HETATM    7  C   UNL     1      -9.835   9.279  69.666  1.00  0.00    -0.196 C  
BRANCH   7   8
HETATM    8  C   UNL     1     -11.121   9.362  70.434  1.00  0.00    -0.311 C  
BRANCH   8   9
HETATM    9  C   UNL     1     -10.932   9.112  71.901  1.00  0.00    -0.372 C  
HETATM   10  C   UNL     1     -10.888   7.915  72.511  1.00  0.00    -0.403 C  
BRANCH  10  11
HETATM   11  C   UNL     1     -10.943   6.561  71.855  1.00  0.00    -0.288 C  
BRANCH  11  12
HETATM   12  C   UNL     1     -11.858   5.598  72.559  1.00  0.00    -0.194 C  
HETATM   13  C   UNL     1     -11.507   4.449  73.158  1.00  0.00    -0.236 C  
BRANCH  13  14
HETATM   14  C   UNL     1     -10.133   3.867  73.173  1.00  0.00    -0.208 C  
BRANCH  14  15
HETATM   15  C   UNL     1     -10.048   2.537  72.477  1.00  0.00    -0.232 C  
HETATM   16  C   UNL     1      -9.454   2.366  71.283  1.00  0.00    -0.218 C  
BRANCH  16  17
HETATM   17  C   UNL     1      -8.861   3.479  70.473  1.00  0.00    -0.142 C  
BRANCH  17  18
HETATM   18  C   UNL     1      -7.380   3.638  70.676  1.00  0.00    -0.041 C  
HETATM   19  C   UNL     1      -6.773   4.838  70.697  1.00  0.00    -0.036 C  
BRANCH  19  20
HETATM   20  C   UNL     1      -7.546   6.119  70.532  1.00  0.00    -0.096 C  
BRANCH  20  21
HETATM   21  C   UNL     1      -7.075   7.013  69.391  1.00  0.00    -0.079 C  
HETATM   22  C   UNL     1      -7.763   6.583  68.114  1.00  0.00    -0.105 C  
HETATM   23  O   UNL     1      -7.059   6.902  67.001  1.00  0.00    -0.071 OA 
HETATM   24  O   UNL     1      -8.848   6.032  68.052  1.00  0.00    -0.112 OA 
ENDBRANCH  20  21
ENDBRANCH  19  20
ENDBRANCH  17  18
ENDBRANCH  16  17
ENDBRANCH  14  15
ENDBRANCH  13  14
ENDBRANCH  11  12
ENDBRANCH  10  11
ENDBRANCH   8   9
ENDBRANCH   7   8
ENDBRANCH   5   6
ENDBRANCH   4   5
ENDBRANCH   2   3
TORSDOF 13
ENDMDL
MODEL      445
REMARK 921   NORMALIZED FREE ENERGY PREDICTED BY IDOCK:   -2.48 KCAL/MOL
REMARK 922        TOTAL FREE ENERGY PREDICTED BY IDOCK:   -7.14 KCAL/MOL
REMARK 923 INTER-LIGAND FREE ENERGY PREDICTED BY IDOCK:   -5.20 KCAL/MOL
REMARK 924 INTRA-LIGAND FREE ENERGY PREDICTED BY IDOCK:   -1.94 KCAL/MOL
REMARK 927      BINDING AFFINITY PREDICTED BY RF-SCORE:    0.00 PKD
ROOT
HETATM    1  C   UNL     1     -11.034   9.520  68.213  1.00  0.00    -0.131 C  
HETATM    2  C   UNL     1     -10.515   8.697  67.045  1.00  0.00    -0.354 C  
ENDROOT
BRANCH   2   3
HETATM    3  C   UNL     1      -9.458   9.416  66.257  1.00  0.00    -0.273 C  
HETATM    4  C   UNL     1      -8.534   8.828  65.477  1.00  0.00    -0.181 C  
BRANCH   4   5
HETATM    5  C   UNL     1      -8.334   7.346  65.328  1.00  0.00    -0.110 C  
BRANCH   5   6
HETATM    6  C   UNL     1      -6.877   6.972  65.346  1.00  0.00    -0.052 C  
HETATM    7  C   UNL     1      -6.232   6.339  66.341  1.00  0.00    -0.037 C  
BRANCH   7   8
HETATM    8  C   UNL     1      -6.865   5.923  67.636  1.00  0.00    -0.060 C  
BRANCH   8   9
HETATM    9  C   UNL     1      -7.200   7.092  68.515  1.00  0.00    -0.094 C  
HETATM   10  C   UNL     1      -7.560   7.045  69.809  1.00  0.00    -0.104 C  
BRANCH  10  11
HETATM   11  C   UNL     1      -7.634   5.824  70.685  1.00  0.00    -0.091 C  
BRANCH  11  12
HETATM   12  C   UNL     1      -8.610   4.794  70.186  1.00  0.00    -0.102 C  
HETATM   13  C   UNL     1      -9.165   3.803  70.900  1.00  0.00    -0.196 C  
BRANCH  13  14
HETATM   14  C   UNL     1      -8.857   3.486  72.325  1.00  0.00    -0.118 C  
BRANCH  14  15
HETATM   15  C   UNL     1      -9.932   2.676  72.995  1.00  0.00    -0.190 C  
HETATM   16  C   UNL     1     -11.069   3.211  73.472  1.00  0.00    -0.316 C  
BRANCH  16  17
HETATM   17  C   UNL     1     -11.380   4.678  73.452  1.00  0.00    -0.394 C  
BRANCH  17  18
HETATM   18  C   UNL     1     -10.317   5.519  74.103  1.00  0.00    -0.302 C  
HETATM   19  C   UNL     1     -10.190   6.838  73.873  1.00  0.00    -0.396 C  
BRANCH  19  20
HETATM   20  C   UNL     1     -11.123   7.573  72.947  1.00  0.00    -0.426 C  
BRANCH  20  21
HETATM   21  C   UNL     1     -10.731   7.537  71.476  1.00  0.00    -0.242 C  
HETATM   22  C   UNL     1     -11.824   6.842  70.692  1.00  0.00    -0.368 C  
HETATM   23  O   UNL     1     -11.376   6.279  69.544  1.00  0.00    -0.409 OA 
HETATM   24  O   UNL     1     -12.997   6.798  71.015  1.00  0.00    -0.254 OA 
ENDBRANCH  20  21
ENDBRANCH  19  20
ENDBRANCH  17  18
ENDBRANCH  16  17
ENDBRANCH  14  15
ENDBRANCH  13  14
ENDBRANCH  11  12
ENDBRANCH  10  11
ENDBRANCH   8   9
ENDBRANCH   7   8
ENDBRANCH   5   6
ENDBRANCH   4   5
ENDBRANCH   2   3
TORSDOF 13
ENDMDL
MODEL      446
REMARK 921   NORMALIZED FREE ENERGY PREDICTED BY IDOCK:   -2.47 KCAL/MOL
REMARK 922        TOTAL FREE ENERGY PREDICTED BY IDOCK:   -7.13 KCAL/MOL
REMARK 923 INTER-LIGAND FREE ENERGY PREDICTED BY IDOCK:   -6.23 KCAL/MOL
REMARK 924 INTRA-LIGAND FREE ENERGY PREDICTED BY IDOCK:   -0.90 KCAL/MOL
REMARK 927      BINDING AFFINITY PREDICTED BY RF-SCORE:    0.00 PKD
ROOT
HETATM    1  C   UNL     1      -5.797   4.439  69.946  1.00  0.00    -0.017 C  
HETATM    2  C   UNL     1      -6.850   3.724  70.775  1.00  0.00    -0.033 C  
ENDROOT
BRANCH   2   3
HETATM    3  C   UNL     1      -8.117   3.474  70.006  1.00  0.00    -0.056 C  
HETATM    4  C   UNL     1      -9.321   3.992  70.301  1.00  0.00    -0.234 C  
BRANCH   4   5
HETATM    5  C   UNL     1      -9.636   4.838  71.502  1.00  0.00    -0.220 C  
BRANCH   5   6
HETATM    6  C   UNL     1      -9.194   6.264  71.317  1.00  0.00    -0.157 C  
HETATM    7  C   UNL     1      -9.903   7.246  70.731  1.00  0.00    -0.178 C  
BRANCH   7   8
HETATM    8  C   UNL     1     -11.265   7.068  70.127  1.00  0.00    -0.325 C  
BRANCH   8   9
HETATM    9  C   UNL     1     -11.235   6.241  68.875  1.00  0.00    -0.387 C  
HETATM   10  C   UNL     1     -10.938   6.672  67.637  1.00  0.00    -0.392 C  
BRANCH  10  11
HETATM   11  C   UNL     1     -10.497   8.056  67.240  1.00  0.00    -0.384 C  
BRANCH  11  12
HETATM   12  C   UNL     1      -9.035   8.307  67.489  1.00  0.00    -0.141 C  
HETATM   13  C   UNL     1      -8.399   9.486  67.413  1.00  0.00    -0.125 C  
BRANCH  13  14
HETATM   14  C   UNL     1      -9.018  10.776  66.988  1.00  0.00    -0.148 C  
BRANCH  14  15
HETATM   15  C   UNL     1      -8.160  11.972  67.297  1.00  0.00    -0.174 C  
HETATM   16  C   UNL     1      -8.662  13.193  67.551  1.00  0.00    -0.201 C  
BRANCH  16  17
HETATM   17  C   UNL     1     -10.122  13.529  67.498  1.00  0.00    -0.234 C  
BRANCH  17  18
HETATM   18  C   UNL     1     -10.594  13.909  66.121  1.00  0.00    -0.291 C  
HETATM   19  C   UNL     1     -10.292  15.089  65.550  1.00  0.00    -0.397 C  
BRANCH  19  20
HETATM   20  C   UNL     1      -9.442  16.114  66.252  1.00  0.00    -0.347 C  
BRANCH  20  21
HETATM   21  C   UNL     1     -10.214  17.131  67.083  1.00  0.00    -0.316 C  
HETATM   22  C   UNL     1     -10.654  18.267  66.185  1.00  0.00    -0.303 C  
HETATM   23  O   UNL     1     -10.844  19.429  66.856  1.00  0.00    -0.460 OA 
HETATM   24  O   UNL     1     -10.854  18.177  64.987  1.00  0.00    -0.707 OA 
ENDBRANCH  20  21
ENDBRANCH  19  20
ENDBRANCH  17  18
ENDBRANCH  16  17
ENDBRANCH  14  15
ENDBRANCH  13  14
ENDBRANCH  11  12
ENDBRANCH  10  11
ENDBRANCH   8   9
ENDBRANCH   7   8
ENDBRANCH   5   6
ENDBRANCH   4   5
ENDBRANCH   2   3
TORSDOF 13
ENDMDL
MODEL      447
REMARK 921   NORMALIZED FREE ENERGY PREDICTED BY IDOCK:   -2.47 KCAL/MOL
REMARK 922        TOTAL FREE ENERGY PREDICTED BY IDOCK:   -7.12 KCAL/MOL
REMARK 923 INTER-LIGAND FREE ENERGY PREDICTED BY IDOCK:   -5.20 KCAL/MOL
REMARK 924 INTRA-LIGAND FREE ENERGY PREDICTED BY IDOCK:   -1.92 KCAL/MOL
REMARK 927      BINDING AFFINITY PREDICTED BY RF-SCORE:    0.00 PKD
ROOT
HETATM    1  C   UNL     1     -10.419   8.024  67.116  1.00  0.00    -0.408 C  
HETATM    2  C   UNL     1      -8.905   8.158  67.146  1.00  0.00    -0.138 C  
ENDROOT
BRANCH   2   3
HETATM    3  C   UNL     1      -8.422   8.980  68.307  1.00  0.00    -0.129 C  
HETATM    4  C   UNL     1      -7.559   8.563  69.250  1.00  0.00    -0.095 C  
BRANCH   4   5
HETATM    5  C   UNL     1      -6.996   7.174  69.364  1.00  0.00    -0.062 C  
BRANCH   5   6
HETATM    6  C   UNL     1      -8.047   6.173  69.759  1.00  0.00    -0.119 C  
HETATM    7  C   UNL     1      -8.337   5.778  71.011  1.00  0.00    -0.123 C  
BRANCH   7   8
HETATM    8  C   UNL     1      -7.623   6.255  72.241  1.00  0.00    -0.095 C  
BRANCH   8   9
HETATM    9  C   UNL     1      -8.003   7.657  72.619  1.00  0.00    -0.132 C  
HETATM   10  C   UNL     1      -9.204   8.072  73.057  1.00  0.00    -0.337 C  
BRANCH  10  11
HETATM   11  C   UNL     1     -10.410   7.218  73.338  1.00  0.00    -0.410 C  
BRANCH  11  12
HETATM   12  C   UNL     1     -11.072   6.697  72.092  1.00  0.00    -0.288 C  
HETATM   13  C   UNL     1     -11.884   7.380  71.270  1.00  0.00    -0.330 C  
BRANCH  13  14
HETATM   14  C   UNL     1     -12.350   8.782  71.482  1.00  0.00    -0.380 C  
BRANCH  14  15
HETATM   15  C   UNL     1     -11.237   9.791  71.409  1.00  0.00    -0.368 C  
HETATM   16  C   UNL     1     -11.116  10.683  70.412  1.00  0.00    -0.253 C  
BRANCH  16  17
HETATM   17  C   UNL     1     -12.029  10.746  69.224  1.00  0.00    -0.334 C  
BRANCH  17  18
HETATM   18  C   UNL     1     -12.213  12.140  68.690  1.00  0.00     0.057 C  
HETATM   19  C   UNL     1     -11.577  12.588  67.593  1.00  0.00    -0.416 C  
BRANCH  19  20
HETATM   20  C   UNL     1     -10.638  11.711  66.809  1.00  0.00    -0.280 C  
BRANCH  20  21
HETATM   21  C   UNL     1      -9.460  12.437  66.171  1.00  0.00    -0.201 C  
HETATM   22  C   UNL     1      -8.567  12.979  67.266  1.00  0.00    -0.206 C  
HETATM   23  O   UNL     1      -7.841  14.053  66.873  1.00  0.00     0.018 OA 
HETATM   24  O   UNL     1      -8.464  12.508  68.385  1.00  0.00    -0.168 OA 
ENDBRANCH  20  21
ENDBRANCH  19  20
ENDBRANCH  17  18
ENDBRANCH  16  17
ENDBRANCH  14  15
ENDBRANCH  13  14
ENDBRANCH  11  12
ENDBRANCH  10  11
ENDBRANCH   8   9
ENDBRANCH   7   8
ENDBRANCH   5   6
ENDBRANCH   4   5
ENDBRANCH   2   3
TORSDOF 13
ENDMDL
MODEL      448
REMARK 921   NORMALIZED FREE ENERGY PREDICTED BY IDOCK:   -2.46 KCAL/MOL
REMARK 922        TOTAL FREE ENERGY PREDICTED BY IDOCK:   -7.11 KCAL/MOL
REMARK 923 INTER-LIGAND FREE ENERGY PREDICTED BY IDOCK:   -5.31 KCAL/MOL
REMARK 924 INTRA-LIGAND FREE ENERGY PREDICTED BY IDOCK:   -1.80 KCAL/MOL
REMARK 927      BINDING AFFINITY PREDICTED BY RF-SCORE:    0.00 PKD
ROOT
HETATM    1  C   UNL     1      -9.765  16.922  65.979  1.00  0.00    -0.260 C  
HETATM    2  C   UNL     1     -10.783  15.794  66.005  1.00  0.00    -0.311 C  
ENDROOT
BRANCH   2   3
HETATM    3  C   UNL     1     -10.285  14.552  65.322  1.00  0.00    -0.431 C  
HETATM    4  C   UNL     1     -10.091  13.362  65.917  1.00  0.00    -0.300 C  
BRANCH   4   5
HETATM    5  C   UNL     1     -10.249  13.085  67.385  1.00  0.00    -0.231 C  
BRANCH   5   6
HETATM    6  C   UNL     1     -11.359  12.106  67.656  1.00  0.00    -0.379 C  
HETATM    7  C   UNL     1     -11.267  10.765  67.600  1.00  0.00    -0.370 C  
BRANCH   7   8
HETATM    8  C   UNL     1     -10.026  10.013  67.219  1.00  0.00    -0.245 C  
BRANCH   8   9
HETATM    9  C   UNL     1     -10.328   8.720  66.520  1.00  0.00    -0.254 C  
HETATM   10  C   UNL     1      -9.686   7.551  66.683  1.00  0.00    -0.273 C  
BRANCH  10  11
HETATM   11  C   UNL     1      -8.574   7.256  67.652  1.00  0.00    -0.126 C  
BRANCH  11  12
HETATM   12  C   UNL     1      -9.007   6.398  68.809  1.00  0.00    -0.126 C  
HETATM   13  C   UNL     1      -9.052   6.756  70.101  1.00  0.00    -0.155 C  
BRANCH  13  14
HETATM   14  C   UNL     1      -8.602   8.068  70.651  1.00  0.00    -0.130 C  
BRANCH  14  15
HETATM   15  C   UNL     1      -9.714   8.855  71.286  1.00  0.00    -0.359 C  
HETATM   16  C   UNL     1     -10.192   8.595  72.516  1.00  0.00    -0.238 C  
BRANCH  16  17
HETATM   17  C   UNL     1      -9.724   7.460  73.377  1.00  0.00    -0.319 C  
BRANCH  17  18
HETATM   18  C   UNL     1     -10.685   6.304  73.409  1.00  0.00    -0.281 C  
HETATM   19  C   UNL     1     -10.287   5.024  73.292  1.00  0.00    -0.232 C  
BRANCH  19  20
HETATM   20  C   UNL     1      -8.835   4.658  73.135  1.00  0.00    -0.111 C  
BRANCH  20  21
HETATM   21  C   UNL     1      -8.537   3.165  73.201  1.00  0.00    -0.081 C  
HETATM   22  C   UNL     1      -7.316   2.871  72.357  1.00  0.00    -0.047 C  
HETATM   23  O   UNL     1      -7.281   1.594  71.904  1.00  0.00    -0.032 OA 
HETATM   24  O   UNL     1      -6.424   3.664  72.113  1.00  0.00    -0.014 OA 
ENDBRANCH  20  21
ENDBRANCH  19  20
ENDBRANCH  17  18
ENDBRANCH  16  17
ENDBRANCH  14  15
ENDBRANCH  13  14
ENDBRANCH  11  12
ENDBRANCH  10  11
ENDBRANCH   8   9
ENDBRANCH   7   8
ENDBRANCH   5   6
ENDBRANCH   4   5
ENDBRANCH   2   3
TORSDOF 13
ENDMDL
MODEL      449
REMARK 921   NORMALIZED FREE ENERGY PREDICTED BY IDOCK:   -2.46 KCAL/MOL
REMARK 922        TOTAL FREE ENERGY PREDICTED BY IDOCK:   -7.10 KCAL/MOL
REMARK 923 INTER-LIGAND FREE ENERGY PREDICTED BY IDOCK:   -4.89 KCAL/MOL
REMARK 924 INTRA-LIGAND FREE ENERGY PREDICTED BY IDOCK:   -2.21 KCAL/MOL
REMARK 927      BINDING AFFINITY PREDICTED BY RF-SCORE:    0.00 PKD
ROOT
HETATM    1  C   UNL     1      -6.539   6.077  65.508  1.00  0.00    -0.044 C  
HETATM    2  C   UNL     1      -7.399   7.253  65.074  1.00  0.00    -0.079 C  
ENDROOT
BRANCH   2   3
HETATM    3  C   UNL     1      -6.611   8.304  64.344  1.00  0.00    -0.066 C  
HETATM    4  C   UNL     1      -6.996   9.579  64.162  1.00  0.00    -0.109 C  
BRANCH   4   5
HETATM    5  C   UNL     1      -8.321  10.157  64.574  1.00  0.00    -0.168 C  
BRANCH   5   6
HETATM    6  C   UNL     1      -8.261  10.778  65.943  1.00  0.00    -0.155 C  
HETATM    7  C   UNL     1      -8.996  11.817  66.376  1.00  0.00    -0.201 C  
BRANCH   7   8
HETATM    8  C   UNL     1      -9.992  12.563  65.539  1.00  0.00    -0.248 C  
BRANCH   8   9
HETATM    9  C   UNL     1     -11.409  12.188  65.859  1.00  0.00    -0.407 C  
HETATM   10  C   UNL     1     -11.902  11.881  67.071  1.00  0.00    -0.192 C  
BRANCH  10  11
HETATM   11  C   UNL     1     -11.168  11.916  68.384  1.00  0.00    -0.312 C  
BRANCH  11  12
HETATM   12  C   UNL     1     -11.621  10.853  69.346  1.00  0.00    -0.387 C  
HETATM   13  C   UNL     1     -11.121   9.613  69.466  1.00  0.00    -0.198 C  
BRANCH  13  14
HETATM   14  C   UNL     1     -10.055   9.023  68.604  1.00  0.00    -0.207 C  
BRANCH  14  15
HETATM   15  C   UNL     1     -10.583   8.468  67.310  1.00  0.00    -0.315 C  
HETATM   16  C   UNL     1     -10.816   7.160  67.110  1.00  0.00    -0.403 C  
BRANCH  16  17
HETATM   17  C   UNL     1     -10.524   6.090  68.120  1.00  0.00    -0.292 C  
BRANCH  17  18
HETATM   18  C   UNL     1      -9.367   5.211  67.735  1.00  0.00    -0.138 C  
HETATM   19  C   UNL     1      -8.529   4.674  68.640  1.00  0.00    -0.092 C  
BRANCH  19  20
HETATM   20  C   UNL     1      -8.704   4.908  70.117  1.00  0.00    -0.118 C  
BRANCH  20  21
HETATM   21  C   UNL     1      -9.576   3.883  70.832  1.00  0.00    -0.258 C  
HETATM   22  C   UNL     1     -10.001   4.448  72.170  1.00  0.00    -0.185 C  
HETATM   23  O   UNL     1     -10.288   3.487  73.082  1.00  0.00    -0.146 OA 
HETATM   24  O   UNL     1     -10.112   5.633  72.428  1.00  0.00    -0.175 OA 
ENDBRANCH  20  21
ENDBRANCH  19  20
ENDBRANCH  17  18
ENDBRANCH  16  17
ENDBRANCH  14  15
ENDBRANCH  13  14
ENDBRANCH  11  12
ENDBRANCH  10  11
ENDBRANCH   8   9
ENDBRANCH   7   8
ENDBRANCH   5   6
ENDBRANCH   4   5
ENDBRANCH   2   3
TORSDOF 13
ENDMDL
MODEL      450
REMARK 921   NORMALIZED FREE ENERGY PREDICTED BY IDOCK:   -2.43 KCAL/MOL
REMARK 922        TOTAL FREE ENERGY PREDICTED BY IDOCK:   -7.06 KCAL/MOL
REMARK 923 INTER-LIGAND FREE ENERGY PREDICTED BY IDOCK:   -4.96 KCAL/MOL
REMARK 924 INTRA-LIGAND FREE ENERGY PREDICTED BY IDOCK:   -2.10 KCAL/MOL
REMARK 927      BINDING AFFINITY PREDICTED BY RF-SCORE:    0.00 PKD
ROOT
HETATM    1  C   UNL     1     -12.804  13.765  65.370  1.00  0.00    -0.455 C  
HETATM    2  C   UNL     1     -11.668  12.756  65.378  1.00  0.00    -0.425 C  
ENDROOT
BRANCH   2   3
HETATM    3  C   UNL     1     -11.596  11.977  66.661  1.00  0.00    -0.389 C  
HETATM    4  C   UNL     1     -10.992  12.389  67.788  1.00  0.00    -0.267 C  
BRANCH   4   5
HETATM    5  C   UNL     1     -10.200  13.658  67.941  1.00  0.00    -0.250 C  
BRANCH   5   6
HETATM    6  C   UNL     1      -8.967  13.657  67.079  1.00  0.00    -0.244 C  
HETATM    7  C   UNL     1      -7.807  13.034  67.353  1.00  0.00    -0.166 C  
BRANCH   7   8
HETATM    8  C   UNL     1      -7.537  12.250  68.603  1.00  0.00    -0.089 C  
BRANCH   8   9
HETATM    9  C   UNL     1      -6.080  11.941  68.785  1.00  0.00    -0.055 C  
HETATM   10  C   UNL     1      -5.516  10.721  68.804  1.00  0.00    -0.040 C  
BRANCH  10  11
HETATM   11  C   UNL     1      -6.201   9.402  68.573  1.00  0.00    -0.048 C  
BRANCH  11  12
HETATM   12  C   UNL     1      -6.562   9.165  67.132  1.00  0.00    -0.061 C  
HETATM   13  C   UNL     1      -7.799   9.073  66.620  1.00  0.00    -0.100 C  
BRANCH  13  14
HETATM   14  C   UNL     1      -9.067   9.116  67.406  1.00  0.00    -0.142 C  
BRANCH  14  15
HETATM   15  C   UNL     1     -10.219   8.451  66.705  1.00  0.00    -0.376 C  
HETATM   16  C   UNL     1     -10.813   7.335  67.161  1.00  0.00    -0.378 C  
BRANCH  16  17
HETATM   17  C   UNL     1     -10.368   6.583  68.379  1.00  0.00    -0.220 C  
BRANCH  17  18
HETATM   18  C   UNL     1     -11.301   6.741  69.548  1.00  0.00    -0.292 C  
HETATM   19  C   UNL     1     -10.974   6.360  70.796  1.00  0.00    -0.346 C  
BRANCH  19  20
HETATM   20  C   UNL     1      -9.632   5.757  71.113  1.00  0.00    -0.201 C  
BRANCH  20  21
HETATM   21  C   UNL     1      -9.680   4.341  71.674  1.00  0.00    -0.243 C  
HETATM   22  C   UNL     1      -8.381   3.638  71.342  1.00  0.00    -0.072 C  
HETATM   23  O   UNL     1      -8.508   2.290  71.290  1.00  0.00    -0.056 OA 
HETATM   24  O   UNL     1      -7.310   4.190  71.163  1.00  0.00    -0.042 OA 
ENDBRANCH  20  21
ENDBRANCH  19  20
ENDBRANCH  17  18
ENDBRANCH  16  17
ENDBRANCH  14  15
ENDBRANCH  13  14
ENDBRANCH  11  12
ENDBRANCH  10  11
ENDBRANCH   8   9
ENDBRANCH   7   8
ENDBRANCH   5   6
ENDBRANCH   4   5
ENDBRANCH   2   3
TORSDOF 13
ENDMDL
MODEL      451
REMARK 921   NORMALIZED FREE ENERGY PREDICTED BY IDOCK:   -2.42 KCAL/MOL
REMARK 922        TOTAL FREE ENERGY PREDICTED BY IDOCK:   -7.03 KCAL/MOL
REMARK 923 INTER-LIGAND FREE ENERGY PREDICTED BY IDOCK:   -4.93 KCAL/MOL
REMARK 924 INTRA-LIGAND FREE ENERGY PREDICTED BY IDOCK:   -2.10 KCAL/MOL
REMARK 927      BINDING AFFINITY PREDICTED BY RF-SCORE:    0.00 PKD
ROOT
HETATM    1  C   UNL     1      -7.358  11.483  68.711  1.00  0.00    -0.115 C  
HETATM    2  C   UNL     1      -8.385  10.812  67.814  1.00  0.00    -0.113 C  
ENDROOT
BRANCH   2   3
HETATM    3  C   UNL     1      -9.796  11.057  68.269  1.00  0.00    -0.185 C  
HETATM    4  C   UNL     1     -10.614  10.133  68.802  1.00  0.00    -0.236 C  
BRANCH   4   5
HETATM    5  C   UNL     1     -10.298   8.672  68.951  1.00  0.00    -0.228 C  
BRANCH   5   6
HETATM    6  C   UNL     1      -8.961   8.450  69.605  1.00  0.00    -0.145 C  
HETATM    7  C   UNL     1      -8.715   8.439  70.927  1.00  0.00    -0.178 C  
BRANCH   7   8
HETATM    8  C   UNL     1      -9.748   8.684  71.987  1.00  0.00    -0.391 C  
BRANCH   8   9
HETATM    9  C   UNL     1      -9.485   7.900  73.239  1.00  0.00    -0.350 C  
HETATM   10  C   UNL     1      -9.949   6.673  73.529  1.00  0.00    -0.251 C  
BRANCH  10  11
HETATM   11  C   UNL     1     -10.771   5.781  72.638  1.00  0.00    -0.280 C  
BRANCH  11  12
HETATM   12  C   UNL     1     -11.471   4.679  73.385  1.00  0.00    -0.335 C  
HETATM   13  C   UNL     1     -11.002   3.442  73.615  1.00  0.00    -0.329 C  
BRANCH  13  14
HETATM   14  C   UNL     1      -9.711   2.897  73.101  1.00  0.00    -0.155 C  
BRANCH  14  15
HETATM   15  C   UNL     1      -9.891   1.918  71.975  1.00  0.00    -0.207 C  
HETATM   16  C   UNL     1      -9.510   2.170  70.711  1.00  0.00    -0.197 C  
BRANCH  16  17
HETATM   17  C   UNL     1      -8.920   3.471  70.255  1.00  0.00    -0.173 C  
BRANCH  17  18
HETATM   18  C   UNL     1      -9.922   4.375  69.591  1.00  0.00    -0.209 C  
HETATM   19  C   UNL     1      -9.639   5.084  68.482  1.00  0.00    -0.200 C  
BRANCH  19  20
HETATM   20  C   UNL     1      -8.291   5.008  67.817  1.00  0.00    -0.105 C  
BRANCH  20  21
HETATM   21  C   UNL     1      -8.277   4.291  66.472  1.00  0.00    -0.102 C  
HETATM   22  C   UNL     1      -8.599   5.289  65.381  1.00  0.00    -0.149 C  
HETATM   23  O   UNL     1      -9.138   4.712  64.280  1.00  0.00    -0.155 OA 
HETATM   24  O   UNL     1      -8.384   6.486  65.439  1.00  0.00    -0.145 OA 
ENDBRANCH  20  21
ENDBRANCH  19  20
ENDBRANCH  17  18
ENDBRANCH  16  17
ENDBRANCH  14  15
ENDBRANCH  13  14
ENDBRANCH  11  12
ENDBRANCH  10  11
ENDBRANCH   8   9
ENDBRANCH   7   8
ENDBRANCH   5   6
ENDBRANCH   4   5
ENDBRANCH   2   3
TORSDOF 13
ENDMDL
MODEL      452
REMARK 921   NORMALIZED FREE ENERGY PREDICTED BY IDOCK:   -2.41 KCAL/MOL
REMARK 922        TOTAL FREE ENERGY PREDICTED BY IDOCK:   -7.02 KCAL/MOL
REMARK 923 INTER-LIGAND FREE ENERGY PREDICTED BY IDOCK:   -5.99 KCAL/MOL
REMARK 924 INTRA-LIGAND FREE ENERGY PREDICTED BY IDOCK:   -1.03 KCAL/MOL
REMARK 927      BINDING AFFINITY PREDICTED BY RF-SCORE:    0.00 PKD
ROOT
HETATM    1  C   UNL     1      -6.388   3.556  70.849  1.00  0.00    -0.019 C  
HETATM    2  C   UNL     1      -7.483   3.504  71.901  1.00  0.00    -0.056 C  
ENDROOT
BRANCH   2   3
HETATM    3  C   UNL     1      -8.860   3.539  71.302  1.00  0.00    -0.137 C  
HETATM    4  C   UNL     1      -9.828   4.414  71.625  1.00  0.00    -0.255 C  
BRANCH   4   5
HETATM    5  C   UNL     1      -9.738   5.454  72.707  1.00  0.00    -0.169 C  
BRANCH   5   6
HETATM    6  C   UNL     1      -8.878   6.618  72.297  1.00  0.00    -0.133 C  
HETATM    7  C   UNL     1      -9.269   7.673  71.561  1.00  0.00    -0.156 C  
BRANCH   7   8
HETATM    8  C   UNL     1     -10.645   7.850  70.990  1.00  0.00    -0.232 C  
BRANCH   8   9
HETATM    9  C   UNL     1     -10.736   7.404  69.560  1.00  0.00    -0.233 C  
HETATM   10  C   UNL     1     -10.479   8.148  68.471  1.00  0.00    -0.199 C  
BRANCH  10  11
HETATM   11  C   UNL     1      -9.971   9.565  68.440  1.00  0.00    -0.184 C  
BRANCH  11  12
HETATM   12  C   UNL     1     -10.687  10.429  67.439  1.00  0.00    -0.338 C  
HETATM   13  C   UNL     1     -10.853  11.760  67.502  1.00  0.00    -0.286 C  
BRANCH  13  14
HETATM   14  C   UNL     1     -10.418  12.634  68.631  1.00  0.00    -0.224 C  
BRANCH  14  15
HETATM   15  C   UNL     1     -11.468  12.791  69.695  1.00  0.00    -0.255 C  
HETATM   16  C   UNL     1     -12.145  13.935  69.898  1.00  0.00    -0.406 C  
BRANCH  16  17
HETATM   17  C   UNL     1     -11.898  15.204  69.139  1.00  0.00    -0.340 C  
BRANCH  17  18
HETATM   18  C   UNL     1     -10.514  15.758  69.344  1.00  0.00    -0.257 C  
HETATM   19  C   UNL     1      -9.820  16.362  68.363  1.00  0.00    -0.233 C  
BRANCH  19  20
HETATM   20  C   UNL     1     -10.393  16.540  66.982  1.00  0.00    -0.301 C  
BRANCH  20  21
HETATM   21  C   UNL     1      -9.791  17.685  66.178  1.00  0.00    -0.253 C  
HETATM   22  C   UNL     1     -10.387  18.991  66.659  1.00  0.00    -0.428 C  
HETATM   23  O   UNL     1     -10.365  19.962  65.715  1.00  0.00    -0.489 OA 
HETATM   24  O   UNL     1     -10.825  19.191  67.778  1.00  0.00    -0.407 OA 
ENDBRANCH  20  21
ENDBRANCH  19  20
ENDBRANCH  17  18
ENDBRANCH  16  17
ENDBRANCH  14  15
ENDBRANCH  13  14
ENDBRANCH  11  12
ENDBRANCH  10  11
ENDBRANCH   8   9
ENDBRANCH   7   8
ENDBRANCH   5   6
ENDBRANCH   4   5
ENDBRANCH   2   3
TORSDOF 13
ENDMDL
MODEL      453
REMARK 921   NORMALIZED FREE ENERGY PREDICTED BY IDOCK:   -2.39 KCAL/MOL
REMARK 922        TOTAL FREE ENERGY PREDICTED BY IDOCK:   -6.98 KCAL/MOL
REMARK 923 INTER-LIGAND FREE ENERGY PREDICTED BY IDOCK:   -5.48 KCAL/MOL
REMARK 924 INTRA-LIGAND FREE ENERGY PREDICTED BY IDOCK:   -1.50 KCAL/MOL
REMARK 927      BINDING AFFINITY PREDICTED BY RF-SCORE:    0.00 PKD
ROOT
HETATM    1  C   UNL     1      -6.427   4.235  70.292  1.00  0.00    -0.031 C  
HETATM    2  C   UNL     1      -7.819   3.928  70.818  1.00  0.00    -0.051 C  
ENDROOT
BRANCH   2   3
HETATM    3  C   UNL     1      -8.872   4.023  69.750  1.00  0.00    -0.143 C  
HETATM    4  C   UNL     1      -9.980   4.782  69.816  1.00  0.00    -0.308 C  
BRANCH   4   5
HETATM    5  C   UNL     1     -10.410   5.597  71.003  1.00  0.00    -0.297 C  
BRANCH   5   6
HETATM    6  C   UNL     1      -9.570   6.833  71.170  1.00  0.00    -0.177 C  
HETATM    7  C   UNL     1      -9.788   8.026  70.590  1.00  0.00    -0.192 C  
BRANCH   7   8
HETATM    8  C   UNL     1     -10.910   8.317  69.637  1.00  0.00    -0.154 C  
BRANCH   8   9
HETATM    9  C   UNL     1     -10.482   8.233  68.201  1.00  0.00    -0.226 C  
HETATM   10  C   UNL     1      -9.931   9.216  67.470  1.00  0.00    -0.258 C  
BRANCH  10  11
HETATM   11  C   UNL     1      -9.551  10.594  67.943  1.00  0.00    -0.174 C  
BRANCH  11  12
HETATM   12  C   UNL     1      -9.228  11.539  66.819  1.00  0.00    -0.187 C  
HETATM   13  C   UNL     1      -9.146  12.876  66.894  1.00  0.00    -0.224 C  
BRANCH  13  14
HETATM   14  C   UNL     1      -9.438  13.694  68.107  1.00  0.00    -0.217 C  
BRANCH  14  15
HETATM   15  C   UNL     1     -10.905  13.964  68.298  1.00  0.00    -0.263 C  
HETATM   16  C   UNL     1     -11.482  15.141  68.000  1.00  0.00    -0.355 C  
BRANCH  16  17
HETATM   17  C   UNL     1     -10.735  16.342  67.503  1.00  0.00    -0.298 C  
BRANCH  17  18
HETATM   18  C   UNL     1     -10.152  17.177  68.610  1.00  0.00    -0.329 C  
HETATM   19  C   UNL     1      -8.886  17.632  68.588  1.00  0.00    -0.259 C  
BRANCH  19  20
HETATM   20  C   UNL     1      -7.961  17.343  67.436  1.00  0.00    -0.212 C  
BRANCH  20  21
HETATM   21  C   UNL     1      -6.903  18.409  67.177  1.00  0.00    -0.207 C  
HETATM   22  C   UNL     1      -7.363  19.292  66.038  1.00  0.00    -0.279 C  
HETATM   23  O   UNL     1      -6.337  19.883  65.379  1.00  0.00    -0.217 OA 
HETATM   24  O   UNL     1      -8.525  19.495  65.733  1.00  0.00    -0.418 OA 
ENDBRANCH  20  21
ENDBRANCH  19  20
ENDBRANCH  17  18
ENDBRANCH  16  17
ENDBRANCH  14  15
ENDBRANCH  13  14
ENDBRANCH  11  12
ENDBRANCH  10  11
ENDBRANCH   8   9
ENDBRANCH   7   8
ENDBRANCH   5   6
ENDBRANCH   4   5
ENDBRANCH   2   3
TORSDOF 13
ENDMDL
MODEL      454
REMARK 921   NORMALIZED FREE ENERGY PREDICTED BY IDOCK:   -2.38 KCAL/MOL
REMARK 922        TOTAL FREE ENERGY PREDICTED BY IDOCK:   -6.97 KCAL/MOL
REMARK 923 INTER-LIGAND FREE ENERGY PREDICTED BY IDOCK:   -5.78 KCAL/MOL
REMARK 924 INTRA-LIGAND FREE ENERGY PREDICTED BY IDOCK:   -1.19 KCAL/MOL
REMARK 927      BINDING AFFINITY PREDICTED BY RF-SCORE:    0.00 PKD
ROOT
HETATM    1  C   UNL     1     -10.962  16.376  68.558  1.00  0.00    -0.350 C  
HETATM    2  C   UNL     1     -10.812  15.685  69.904  1.00  0.00    -0.324 C  
ENDROOT
BRANCH   2   3
HETATM    3  C   UNL     1     -12.097  15.651  70.681  1.00  0.00    -0.443 C  
HETATM    4  C   UNL     1     -12.737  14.538  71.078  1.00  0.00    -0.413 C  
BRANCH   4   5
HETATM    5  C   UNL     1     -12.334  13.131  70.737  1.00  0.00    -0.404 C  
BRANCH   5   6
HETATM    6  C   UNL     1     -13.084  12.117  71.557  1.00  0.00    -0.357 C  
HETATM    7  C   UNL     1     -12.886  10.787  71.551  1.00  0.00    -0.567 C  
BRANCH   7   8
HETATM    8  C   UNL     1     -11.886  10.080  70.684  1.00  0.00    -0.411 C  
BRANCH   8   9
HETATM    9  C   UNL     1     -11.455   8.763  71.260  1.00  0.00    -0.355 C  
HETATM   10  C   UNL     1     -10.795   7.785  70.617  1.00  0.00    -0.241 C  
BRANCH  10  11
HETATM   11  C   UNL     1     -10.277   7.817  69.204  1.00  0.00    -0.210 C  
BRANCH  11  12
HETATM   12  C   UNL     1      -8.779   7.713  69.120  1.00  0.00    -0.139 C  
HETATM   13  C   UNL     1      -8.074   6.704  68.585  1.00  0.00    -0.119 C  
BRANCH  13  14
HETATM   14  C   UNL     1      -8.651   5.444  68.032  1.00  0.00    -0.100 C  
BRANCH  14  15
HETATM   15  C   UNL     1      -8.012   4.206  68.597  1.00  0.00    -0.072 C  
HETATM   16  C   UNL     1      -8.593   3.439  69.535  1.00  0.00    -0.110 C  
BRANCH  16  17
HETATM   17  C   UNL     1      -9.911   3.751  70.178  1.00  0.00    -0.118 C  
BRANCH  17  18
HETATM   18  C   UNL     1     -10.054   3.164  71.555  1.00  0.00    -0.025 C  
HETATM   19  C   UNL     1     -10.266   3.918  72.649  1.00  0.00    -0.235 C  
BRANCH  19  20
HETATM   20  C   UNL     1     -10.390   5.416  72.565  1.00  0.00    -0.251 C  
BRANCH  20  21
HETATM   21  C   UNL     1      -9.846   6.176  73.769  1.00  0.00    -0.198 C  
HETATM   22  C   UNL     1      -8.562   6.872  73.370  1.00  0.00    -0.125 C  
HETATM   23  O   UNL     1      -7.737   7.100  74.420  1.00  0.00    -0.115 OA 
HETATM   24  O   UNL     1      -8.280   7.230  72.241  1.00  0.00    -0.100 OA 
ENDBRANCH  20  21
ENDBRANCH  19  20
ENDBRANCH  17  18
ENDBRANCH  16  17
ENDBRANCH  14  15
ENDBRANCH  13  14
ENDBRANCH  11  12
ENDBRANCH  10  11
ENDBRANCH   8   9
ENDBRANCH   7   8
ENDBRANCH   5   6
ENDBRANCH   4   5
ENDBRANCH   2   3
TORSDOF 13
ENDMDL
MODEL      455
REMARK 921   NORMALIZED FREE ENERGY PREDICTED BY IDOCK:   -2.38 KCAL/MOL
REMARK 922        TOTAL FREE ENERGY PREDICTED BY IDOCK:   -6.96 KCAL/MOL
REMARK 923 INTER-LIGAND FREE ENERGY PREDICTED BY IDOCK:   -5.18 KCAL/MOL
REMARK 924 INTRA-LIGAND FREE ENERGY PREDICTED BY IDOCK:   -1.78 KCAL/MOL
REMARK 927      BINDING AFFINITY PREDICTED BY RF-SCORE:    0.00 PKD
ROOT
HETATM    1  C   UNL     1     -10.297   5.162  66.953  1.00  0.00    -0.288 C  
HETATM    2  C   UNL     1      -9.466   5.872  68.009  1.00  0.00    -0.111 C  
ENDROOT
BRANCH   2   3
HETATM    3  C   UNL     1      -9.629   5.266  69.374  1.00  0.00    -0.215 C  
HETATM    4  C   UNL     1     -10.616   5.554  70.240  1.00  0.00    -0.357 C  
BRANCH   4   5
HETATM    5  C   UNL     1     -11.678   6.598  70.038  1.00  0.00    -0.378 C  
BRANCH   5   6
HETATM    6  C   UNL     1     -11.104   7.988  70.034  1.00  0.00    -0.154 C  
HETATM    7  C   UNL     1     -11.060   8.832  71.080  1.00  0.00    -0.328 C  
BRANCH   7   8
HETATM    8  C   UNL     1     -11.617   8.531  72.441  1.00  0.00    -0.425 C  
BRANCH   8   9
HETATM    9  C   UNL     1     -10.778   7.545  73.200  1.00  0.00    -0.452 C  
HETATM   10  C   UNL     1      -9.436   7.468  73.200  1.00  0.00    -0.272 C  
BRANCH  10  11
HETATM   11  C   UNL     1      -8.475   8.393  72.504  1.00  0.00    -0.229 C  
BRANCH  11  12
HETATM   12  C   UNL     1      -7.652   7.707  71.448  1.00  0.00    -0.080 C  
HETATM   13  C   UNL     1      -7.336   8.192  70.237  1.00  0.00    -0.059 C  
BRANCH  13  14
HETATM   14  C   UNL     1      -7.811   9.490  69.674  1.00  0.00    -0.116 C  
BRANCH  14  15
HETATM   15  C   UNL     1      -6.901  10.041  68.612  1.00  0.00    -0.054 C  
HETATM   16  C   UNL     1      -7.044  11.269  68.083  1.00  0.00    -0.071 C  
BRANCH  16  17
HETATM   17  C   UNL     1      -8.155  12.212  68.436  1.00  0.00    -0.149 C  
BRANCH  17  18
HETATM   18  C   UNL     1      -8.771  12.879  67.237  1.00  0.00    -0.204 C  
HETATM   19  C   UNL     1      -8.888  14.214  67.128  1.00  0.00    -0.241 C  
BRANCH  19  20
HETATM   20  C   UNL     1      -8.392  15.143  68.204  1.00  0.00    -0.147 C  
BRANCH  20  21
HETATM   21  C   UNL     1      -7.214  16.022  67.803  1.00  0.00    -0.161 C  
HETATM   22  C   UNL     1      -7.634  17.474  67.888  1.00  0.00    -0.204 C  
HETATM   23  O   UNL     1      -6.914  18.282  67.073  1.00  0.00    -0.186 OA 
HETATM   24  O   UNL     1      -8.503  17.911  68.622  1.00  0.00    -0.299 OA 
ENDBRANCH  20  21
ENDBRANCH  19  20
ENDBRANCH  17  18
ENDBRANCH  16  17
ENDBRANCH  14  15
ENDBRANCH  13  14
ENDBRANCH  11  12
ENDBRANCH  10  11
ENDBRANCH   8   9
ENDBRANCH   7   8
ENDBRANCH   5   6
ENDBRANCH   4   5
ENDBRANCH   2   3
TORSDOF 13
ENDMDL
MODEL      456
REMARK 921   NORMALIZED FREE ENERGY PREDICTED BY IDOCK:   -2.36 KCAL/MOL
REMARK 922        TOTAL FREE ENERGY PREDICTED BY IDOCK:   -6.94 KCAL/MOL
REMARK 923 INTER-LIGAND FREE ENERGY PREDICTED BY IDOCK:   -5.90 KCAL/MOL
REMARK 924 INTRA-LIGAND FREE ENERGY PREDICTED BY IDOCK:   -1.03 KCAL/MOL
REMARK 927      BINDING AFFINITY PREDICTED BY RF-SCORE:    0.00 PKD
ROOT
HETATM    1  C   UNL     1      -8.543   7.351  72.288  1.00  0.00    -0.135 C  
HETATM    2  C   UNL     1      -9.803   7.853  72.974  1.00  0.00    -0.355 C  
ENDROOT
BRANCH   2   3
HETATM    3  C   UNL     1     -10.787   6.751  73.249  1.00  0.00    -0.302 C  
HETATM    4  C   UNL     1     -11.916   6.525  72.556  1.00  0.00    -0.106 C  
BRANCH   4   5
HETATM    5  C   UNL     1     -12.444   7.387  71.443  1.00  0.00    -0.402 C  
BRANCH   5   6
HETATM    6  C   UNL     1     -13.224   8.563  71.966  1.00  0.00    -0.399 C  
HETATM    7  C   UNL     1     -12.967   9.859  71.720  1.00  0.00    -0.549 C  
BRANCH   7   8
HETATM    8  C   UNL     1     -11.818  10.357  70.893  1.00  0.00    -0.475 C  
BRANCH   8   9
HETATM    9  C   UNL     1     -11.989  10.061  69.432  1.00  0.00     0.156 C  
HETATM   10  C   UNL     1     -11.439  10.734  68.408  1.00  0.00    -0.358 C  
BRANCH  10  11
HETATM   11  C   UNL     1     -10.472  11.884  68.494  1.00  0.00    -0.240 C  
BRANCH  11  12
HETATM   12  C   UNL     1      -9.916  12.293  67.158  1.00  0.00    -0.213 C  
HETATM   13  C   UNL     1      -9.809  13.544  66.683  1.00  0.00    -0.279 C  
BRANCH  13  14
HETATM   14  C   UNL     1     -10.296  14.776  67.372  1.00  0.00    -0.242 C  
BRANCH  14  15
HETATM   15  C   UNL     1     -10.944  15.757  66.436  1.00  0.00    -0.159 C  
HETATM   16  C   UNL     1     -10.346  16.889  66.024  1.00  0.00    -0.335 C  
BRANCH  16  17
HETATM   17  C   UNL     1      -8.995  17.343  66.491  1.00  0.00    -0.285 C  
BRANCH  17  18
HETATM   18  C   UNL     1      -8.936  17.606  67.970  1.00  0.00    -0.264 C  
HETATM   19  C   UNL     1      -7.878  17.265  68.728  1.00  0.00    -0.254 C  
BRANCH  19  20
HETATM   20  C   UNL     1      -6.663  16.601  68.137  1.00  0.00    -0.148 C  
BRANCH  20  21
HETATM   21  C   UNL     1      -6.918  15.239  67.503  1.00  0.00    -0.225 C  
HETATM   22  C   UNL     1      -6.606  14.159  68.517  1.00  0.00    -0.096 C  
HETATM   23  O   UNL     1      -6.270  12.978  67.945  1.00  0.00    -0.102 OA 
HETATM   24  O   UNL     1      -6.667  14.294  69.726  1.00  0.00    -0.136 OA 
ENDBRANCH  20  21
ENDBRANCH  19  20
ENDBRANCH  17  18
ENDBRANCH  16  17
ENDBRANCH  14  15
ENDBRANCH  13  14
ENDBRANCH  11  12
ENDBRANCH  10  11
ENDBRANCH   8   9
ENDBRANCH   7   8
ENDBRANCH   5   6
ENDBRANCH   4   5
ENDBRANCH   2   3
TORSDOF 13
ENDMDL
MODEL      457
REMARK 921   NORMALIZED FREE ENERGY PREDICTED BY IDOCK:   -2.35 KCAL/MOL
REMARK 922        TOTAL FREE ENERGY PREDICTED BY IDOCK:   -6.90 KCAL/MOL
REMARK 923 INTER-LIGAND FREE ENERGY PREDICTED BY IDOCK:   -5.09 KCAL/MOL
REMARK 924 INTRA-LIGAND FREE ENERGY PREDICTED BY IDOCK:   -1.81 KCAL/MOL
REMARK 927      BINDING AFFINITY PREDICTED BY RF-SCORE:    0.00 PKD
ROOT
HETATM    1  C   UNL     1      -8.155  15.681  69.238  1.00  0.00    -0.244 C  
HETATM    2  C   UNL     1      -9.177  16.497  68.463  1.00  0.00    -0.230 C  
ENDROOT
BRANCH   2   3
HETATM    3  C   UNL     1     -10.429  16.751  69.253  1.00  0.00    -0.331 C  
HETATM    4  C   UNL     1     -11.531  15.981  69.234  1.00  0.00    -0.350 C  
BRANCH   4   5
HETATM    5  C   UNL     1     -11.743  14.784  68.351  1.00  0.00    -0.343 C  
BRANCH   5   6
HETATM    6  C   UNL     1     -11.310  13.508  69.021  1.00  0.00    -0.336 C  
HETATM    7  C   UNL     1     -11.221  12.298  68.443  1.00  0.00    -0.311 C  
BRANCH   7   8
HETATM    8  C   UNL     1     -11.576  12.009  67.014  1.00  0.00    -0.387 C  
BRANCH   8   9
HETATM    9  C   UNL     1     -10.420  12.220  66.080  1.00  0.00    -0.270 C  
HETATM   10  C   UNL     1      -9.525  11.296  65.692  1.00  0.00    -0.254 C  
BRANCH  10  11
HETATM   11  C   UNL     1      -9.522   9.833  66.044  1.00  0.00    -0.269 C  
BRANCH  11  12
HETATM   12  C   UNL     1      -8.342   9.427  66.884  1.00  0.00    -0.127 C  
HETATM   13  C   UNL     1      -8.092   8.206  67.380  1.00  0.00    -0.122 C  
BRANCH  13  14
HETATM   14  C   UNL     1      -8.991   7.021  67.253  1.00  0.00    -0.119 C  
BRANCH  14  15
HETATM   15  C   UNL     1      -8.270   5.780  66.805  1.00  0.00    -0.105 C  
HETATM   16  C   UNL     1      -7.889   4.804  67.648  1.00  0.00    -0.090 C  
BRANCH  16  17
HETATM   17  C   UNL     1      -8.075   4.857  69.135  1.00  0.00    -0.079 C  
BRANCH  17  18
HETATM   18  C   UNL     1      -6.893   5.438  69.860  1.00  0.00    -0.059 C  
HETATM   19  C   UNL     1      -7.021   6.276  70.905  1.00  0.00    -0.068 C  
BRANCH  19  20
HETATM   20  C   UNL     1      -8.371   6.683  71.432  1.00  0.00    -0.120 C  
BRANCH  20  21
HETATM   21  C   UNL     1      -8.926   5.792  72.537  1.00  0.00    -0.133 C  
HETATM   22  C   UNL     1     -10.382   5.500  72.246  1.00  0.00    -0.210 C  
HETATM   23  O   UNL     1     -11.095   5.210  73.361  1.00  0.00    -0.297 OA 
HETATM   24  O   UNL     1     -10.888   5.489  71.139  1.00  0.00    -0.239 OA 
ENDBRANCH  20  21
ENDBRANCH  19  20
ENDBRANCH  17  18
ENDBRANCH  16  17
ENDBRANCH  14  15
ENDBRANCH  13  14
ENDBRANCH  11  12
ENDBRANCH  10  11
ENDBRANCH   8   9
ENDBRANCH   7   8
ENDBRANCH   5   6
ENDBRANCH   4   5
ENDBRANCH   2   3
TORSDOF 13
ENDMDL
MODEL      458
REMARK 921   NORMALIZED FREE ENERGY PREDICTED BY IDOCK:   -2.31 KCAL/MOL
REMARK 922        TOTAL FREE ENERGY PREDICTED BY IDOCK:   -6.84 KCAL/MOL
REMARK 923 INTER-LIGAND FREE ENERGY PREDICTED BY IDOCK:   -4.55 KCAL/MOL
REMARK 924 INTRA-LIGAND FREE ENERGY PREDICTED BY IDOCK:   -2.29 KCAL/MOL
REMARK 927      BINDING AFFINITY PREDICTED BY RF-SCORE:    0.00 PKD
ROOT
HETATM    1  C   UNL     1      -6.958  17.231  66.556  1.00  0.00    -0.298 C  
HETATM    2  C   UNL     1      -8.356  16.699  66.288  1.00  0.00    -0.360 C  
ENDROOT
BRANCH   2   3
HETATM    3  C   UNL     1      -9.098  16.368  67.552  1.00  0.00    -0.196 C  
HETATM    4  C   UNL     1      -8.986  15.220  68.242  1.00  0.00    -0.176 C  
BRANCH   4   5
HETATM    5  C   UNL     1      -8.171  14.028  67.826  1.00  0.00    -0.169 C  
BRANCH   5   6
HETATM    6  C   UNL     1      -8.977  13.055  67.010  1.00  0.00    -0.225 C  
HETATM    7  C   UNL     1      -8.656  11.774  66.755  1.00  0.00    -0.185 C  
BRANCH   7   8
HETATM    8  C   UNL     1      -7.399  11.103  67.225  1.00  0.00    -0.118 C  
BRANCH   8   9
HETATM    9  C   UNL     1      -7.035   9.912  66.388  1.00  0.00    -0.095 C  
HETATM   10  C   UNL     1      -7.415   8.640  66.596  1.00  0.00    -0.089 C  
BRANCH  10  11
HETATM   11  C   UNL     1      -8.346   8.135  67.664  1.00  0.00    -0.127 C  
BRANCH  11  12
HETATM   12  C   UNL     1      -9.797   8.369  67.345  1.00  0.00    -0.249 C  
HETATM   13  C   UNL     1     -10.757   8.746  68.204  1.00  0.00    -0.131 C  
BRANCH  13  14
HETATM   14  C   UNL     1     -10.577   8.935  69.673  1.00  0.00    -0.230 C  
BRANCH  14  15
HETATM   15  C   UNL     1     -11.421   8.001  70.496  1.00  0.00    -0.192 C  
HETATM   16  C   UNL     1     -10.955   6.854  71.019  1.00  0.00    -0.287 C  
BRANCH  16  17
HETATM   17  C   UNL     1      -9.566   6.334  70.801  1.00  0.00    -0.193 C  
BRANCH  17  18
HETATM   18  C   UNL     1      -9.492   4.832  70.770  1.00  0.00    -0.228 C  
HETATM   19  C   UNL     1      -9.362   4.134  69.628  1.00  0.00    -0.241 C  
BRANCH  19  20
HETATM   20  C   UNL     1      -9.265   4.816  68.290  1.00  0.00    -0.159 C  
BRANCH  20  21
HETATM   21  C   UNL     1      -9.680   3.961  67.099  1.00  0.00    -0.182 C  
HETATM   22  C   UNL     1      -9.109   4.567  65.836  1.00  0.00    -0.133 C  
HETATM   23  O   UNL     1      -9.822   4.251  64.728  1.00  0.00    -0.176 OA 
HETATM   24  O   UNL     1      -8.101   5.249  65.778  1.00  0.00    -0.106 OA 
ENDBRANCH  20  21
ENDBRANCH  19  20
ENDBRANCH  17  18
ENDBRANCH  16  17
ENDBRANCH  14  15
ENDBRANCH  13  14
ENDBRANCH  11  12
ENDBRANCH  10  11
ENDBRANCH   8   9
ENDBRANCH   7   8
ENDBRANCH   5   6
ENDBRANCH   4   5
ENDBRANCH   2   3
TORSDOF 13
ENDMDL
MODEL      459
REMARK 921   NORMALIZED FREE ENERGY PREDICTED BY IDOCK:   -2.22 KCAL/MOL
REMARK 922        TOTAL FREE ENERGY PREDICTED BY IDOCK:   -6.68 KCAL/MOL
REMARK 923 INTER-LIGAND FREE ENERGY PREDICTED BY IDOCK:   -4.40 KCAL/MOL
REMARK 924 INTRA-LIGAND FREE ENERGY PREDICTED BY IDOCK:   -2.28 KCAL/MOL
REMARK 927      BINDING AFFINITY PREDICTED BY RF-SCORE:    0.00 PKD
ROOT
HETATM    1  C   UNL     1      -6.527   6.109  65.512  1.00  0.00    -0.043 C  
HETATM    2  C   UNL     1      -7.339   7.349  65.175  1.00  0.00    -0.077 C  
ENDROOT
BRANCH   2   3
HETATM    3  C   UNL     1      -6.505   8.431  64.550  1.00  0.00    -0.066 C  
HETATM    4  C   UNL     1      -6.832   9.734  64.499  1.00  0.00    -0.118 C  
BRANCH   4   5
HETATM    5  C   UNL     1      -8.129  10.327  64.973  1.00  0.00    -0.146 C  
BRANCH   5   6
HETATM    6  C   UNL     1      -8.056  10.757  66.413  1.00  0.00    -0.153 C  
HETATM    7  C   UNL     1      -8.680  11.817  66.958  1.00  0.00    -0.181 C  
BRANCH   7   8
HETATM    8  C   UNL     1      -9.542  12.781  66.197  1.00  0.00    -0.214 C  
BRANCH   8   9
HETATM    9  C   UNL     1     -11.006  12.500  66.365  1.00  0.00    -0.309 C  
HETATM   10  C   UNL     1     -11.629  12.148  67.503  1.00  0.00    -0.413 C  
BRANCH  10  11
HETATM   11  C   UNL     1     -11.016  12.029  68.872  1.00  0.00    -0.277 C  
BRANCH  11  12
HETATM   12  C   UNL     1     -11.667  10.975  69.724  1.00  0.00    -0.410 C  
HETATM   13  C   UNL     1     -11.260   9.705  69.881  1.00  0.00    -0.244 C  
BRANCH  13  14
HETATM   14  C   UNL     1     -10.111   9.072  69.170  1.00  0.00    -0.201 C  
BRANCH  14  15
HETATM   15  C   UNL     1     -10.469   8.571  67.799  1.00  0.00    -0.287 C  
HETATM   16  C   UNL     1     -10.660   7.270  67.516  1.00  0.00    -0.344 C  
BRANCH  16  17
HETATM   17  C   UNL     1     -10.480   6.160  68.507  1.00  0.00    -0.284 C  
BRANCH  17  18
HETATM   18  C   UNL     1      -9.189   5.410  68.331  1.00  0.00    -0.128 C  
HETATM   19  C   UNL     1      -9.011   4.483  67.371  1.00  0.00    -0.124 C  
BRANCH  19  20
HETATM   20  C   UNL     1     -10.101   4.142  66.390  1.00  0.00    -0.102 C  
BRANCH  20  21
HETATM   21  C   UNL     1     -10.043   4.905  65.073  1.00  0.00     0.175 C  
HETATM   22  C   UNL     1      -9.715   3.936  63.957  1.00  0.00    -0.167 C  
HETATM   23  O   UNL     1      -9.118   4.532  62.897  1.00  0.00    -0.132 OA 
HETATM   24  O   UNL     1      -9.972   2.745  63.965  1.00  0.00    -0.150 OA 
ENDBRANCH  20  21
ENDBRANCH  19  20
ENDBRANCH  17  18
ENDBRANCH  16  17
ENDBRANCH  14  15
ENDBRANCH  13  14
ENDBRANCH  11  12
ENDBRANCH  10  11
ENDBRANCH   8   9
ENDBRANCH   7   8
ENDBRANCH   5   6
ENDBRANCH   4   5
ENDBRANCH   2   3
TORSDOF 13
ENDMDL
MODEL      460
REMARK 921   NORMALIZED FREE ENERGY PREDICTED BY IDOCK:   -2.21 KCAL/MOL
REMARK 922        TOTAL FREE ENERGY PREDICTED BY IDOCK:   -6.67 KCAL/MOL
REMARK 923 INTER-LIGAND FREE ENERGY PREDICTED BY IDOCK:   -4.29 KCAL/MOL
REMARK 924 INTRA-LIGAND FREE ENERGY PREDICTED BY IDOCK:   -2.38 KCAL/MOL
REMARK 927      BINDING AFFINITY PREDICTED BY RF-SCORE:    0.00 PKD
ROOT
HETATM    1  C   UNL     1      -7.383  11.485  68.714  1.00  0.00    -0.115 C  
HETATM    2  C   UNL     1      -8.436  10.825  67.840  1.00  0.00    -0.122 C  
ENDROOT
BRANCH   2   3
HETATM    3  C   UNL     1      -9.834  11.097  68.316  1.00  0.00    -0.195 C  
HETATM    4  C   UNL     1     -10.668  10.185  68.845  1.00  0.00    -0.249 C  
BRANCH   4   5
HETATM    5  C   UNL     1     -10.386   8.714  68.969  1.00  0.00    -0.226 C  
BRANCH   5   6
HETATM    6  C   UNL     1      -9.073   8.449  69.653  1.00  0.00    -0.153 C  
HETATM    7  C   UNL     1      -8.865   8.397  70.981  1.00  0.00    -0.193 C  
BRANCH   7   8
HETATM    8  C   UNL     1      -9.925   8.631  72.017  1.00  0.00    -0.399 C  
BRANCH   8   9
HETATM    9  C   UNL     1      -9.695   7.829  73.265  1.00  0.00    -0.357 C  
HETATM   10  C   UNL     1     -10.163   6.596  73.523  1.00  0.00    -0.300 C  
BRANCH  10  11
HETATM   11  C   UNL     1     -10.954   5.715  72.595  1.00  0.00    -0.316 C  
BRANCH  11  12
HETATM   12  C   UNL     1     -11.713   4.630  73.309  1.00  0.00    -0.179 C  
HETATM   13  C   UNL     1     -11.278   3.389  73.576  1.00  0.00    -0.280 C  
BRANCH  13  14
HETATM   14  C   UNL     1      -9.969   2.819  73.142  1.00  0.00    -0.185 C  
BRANCH  14  15
HETATM   15  C   UNL     1     -10.079   1.956  71.916  1.00  0.00    -0.210 C  
HETATM   16  C   UNL     1      -9.462   2.241  70.756  1.00  0.00    -0.203 C  
BRANCH  16  17
HETATM   17  C   UNL     1      -8.646   3.476  70.520  1.00  0.00    -0.114 C  
BRANCH  17  18
HETATM   18  C   UNL     1      -9.383   4.536  69.747  1.00  0.00    -0.223 C  
HETATM   19  C   UNL     1      -8.801   5.269  68.781  1.00  0.00    -0.104 C  
BRANCH  19  20
HETATM   20  C   UNL     1      -7.360   5.067  68.395  1.00  0.00    -0.066 C  
BRANCH  20  21
HETATM   21  C   UNL     1      -6.467   6.288  68.579  1.00  0.00    -0.049 C  
HETATM   22  C   UNL     1      -5.911   6.282  69.986  1.00  0.00    -0.018 C  
HETATM   23  O   UNL     1      -5.582   7.520  70.429  1.00  0.00    -0.023 OA 
HETATM   24  O   UNL     1      -5.737   5.288  70.668  1.00  0.00    -0.014 OA 
ENDBRANCH  20  21
ENDBRANCH  19  20
ENDBRANCH  17  18
ENDBRANCH  16  17
ENDBRANCH  14  15
ENDBRANCH  13  14
ENDBRANCH  11  12
ENDBRANCH  10  11
ENDBRANCH   8   9
ENDBRANCH   7   8
ENDBRANCH   5   6
ENDBRANCH   4   5
ENDBRANCH   2   3
TORSDOF 13
ENDMDL
MODEL      461
REMARK 921   NORMALIZED FREE ENERGY PREDICTED BY IDOCK:   -2.19 KCAL/MOL
REMARK 922        TOTAL FREE ENERGY PREDICTED BY IDOCK:   -6.64 KCAL/MOL
REMARK 923 INTER-LIGAND FREE ENERGY PREDICTED BY IDOCK:   -6.03 KCAL/MOL
REMARK 924 INTRA-LIGAND FREE ENERGY PREDICTED BY IDOCK:   -0.60 KCAL/MOL
REMARK 927      BINDING AFFINITY PREDICTED BY RF-SCORE:    0.00 PKD
ROOT
HETATM    1  C   UNL     1      -7.816   4.667  68.969  1.00  0.00    -0.071 C  
HETATM    2  C   UNL     1      -7.752   5.738  70.045  1.00  0.00    -0.087 C  
ENDROOT
BRANCH   2   3
HETATM    3  C   UNL     1      -8.886   5.638  71.026  1.00  0.00    -0.144 C  
HETATM    4  C   UNL     1     -10.133   6.097  70.823  1.00  0.00    -0.238 C  
BRANCH   4   5
HETATM    5  C   UNL     1     -10.592   6.874  69.621  1.00  0.00    -0.258 C  
BRANCH   5   6
HETATM    6  C   UNL     1     -10.149   8.311  69.679  1.00  0.00    -0.199 C  
HETATM    7  C   UNL     1      -9.461   8.968  68.729  1.00  0.00    -0.148 C  
BRANCH   7   8
HETATM    8  C   UNL     1      -8.984   8.355  67.446  1.00  0.00    -0.143 C  
BRANCH   8   9
HETATM    9  C   UNL     1      -9.833   8.745  66.271  1.00  0.00    -0.342 C  
HETATM   10  C   UNL     1      -9.575   9.722  65.385  1.00  0.00    -0.359 C  
BRANCH  10  11
HETATM   11  C   UNL     1      -8.348  10.591  65.326  1.00  0.00    -0.155 C  
BRANCH  11  12
HETATM   12  C   UNL     1      -8.147  11.420  66.565  1.00  0.00    -0.141 C  
HETATM   13  C   UNL     1      -8.844  12.510  66.922  1.00  0.00    -0.203 C  
BRANCH  13  14
HETATM   14  C   UNL     1      -9.915  13.157  66.109  1.00  0.00    -0.291 C  
BRANCH  14  15
HETATM   15  C   UNL     1     -11.251  12.482  66.248  1.00  0.00    -0.359 C  
HETATM   16  C   UNL     1     -11.756  12.084  67.429  1.00  0.00    -0.352 C  
BRANCH  16  17
HETATM   17  C   UNL     1     -11.033  12.206  68.736  1.00  0.00    -0.274 C  
BRANCH  17  18
HETATM   18  C   UNL     1     -11.298  13.507  69.442  1.00  0.00    -0.293 C  
HETATM   19  C   UNL     1     -12.170  13.618  70.461  1.00  0.00    -0.438 C  
BRANCH  19  20
HETATM   20  C   UNL     1     -12.937  12.430  70.977  1.00  0.00    -0.151 C  
BRANCH  20  21
HETATM   21  C   UNL     1     -12.231  11.089  70.821  1.00  0.00    -0.480 C  
HETATM   22  C   UNL     1     -12.856  10.091  71.771  1.00  0.00    -0.446 C  
HETATM   23  O   UNL     1     -12.011   9.089  72.116  1.00  0.00    -0.357 OA 
HETATM   24  O   UNL     1     -14.002  10.135  72.181  1.00  0.00    -0.104 OA 
ENDBRANCH  20  21
ENDBRANCH  19  20
ENDBRANCH  17  18
ENDBRANCH  16  17
ENDBRANCH  14  15
ENDBRANCH  13  14
ENDBRANCH  11  12
ENDBRANCH  10  11
ENDBRANCH   8   9
ENDBRANCH   7   8
ENDBRANCH   5   6
ENDBRANCH   4   5
ENDBRANCH   2   3
TORSDOF 13
ENDMDL
MODEL      462
REMARK 921   NORMALIZED FREE ENERGY PREDICTED BY IDOCK:   -2.15 KCAL/MOL
REMARK 922        TOTAL FREE ENERGY PREDICTED BY IDOCK:   -6.56 KCAL/MOL
REMARK 923 INTER-LIGAND FREE ENERGY PREDICTED BY IDOCK:   -5.30 KCAL/MOL
REMARK 924 INTRA-LIGAND FREE ENERGY PREDICTED BY IDOCK:   -1.27 KCAL/MOL
REMARK 927      BINDING AFFINITY PREDICTED BY RF-SCORE:    0.00 PKD
ROOT
HETATM    1  C   UNL     1      -9.945  16.649  66.936  1.00  0.00    -0.272 C  
HETATM    2  C   UNL     1     -10.955  15.724  66.277  1.00  0.00    -0.163 C  
ENDROOT
BRANCH   2   3
HETATM    3  C   UNL     1     -10.309  14.529  65.635  1.00  0.00    -0.367 C  
HETATM    4  C   UNL     1     -10.345  13.273  66.114  1.00  0.00    -0.290 C  
BRANCH   4   5
HETATM    5  C   UNL     1     -10.957  12.856  67.422  1.00  0.00    -0.288 C  
BRANCH   5   6
HETATM    6  C   UNL     1     -11.504  11.456  67.364  1.00  0.00    -0.328 C  
HETATM    7  C   UNL     1     -10.787  10.328  67.215  1.00  0.00    -0.312 C  
BRANCH   7   8
HETATM    8  C   UNL     1      -9.297  10.283  67.046  1.00  0.00    -0.177 C  
BRANCH   8   9
HETATM    9  C   UNL     1      -8.792   8.900  66.759  1.00  0.00    -0.142 C  
HETATM   10  C   UNL     1      -7.748   8.290  67.346  1.00  0.00    -0.102 C  
BRANCH  10  11
HETATM   11  C   UNL     1      -6.901   8.824  68.469  1.00  0.00    -0.064 C  
BRANCH  11  12
HETATM   12  C   UNL     1      -6.941   7.964  69.703  1.00  0.00    -0.053 C  
HETATM   13  C   UNL     1      -7.778   8.094  70.744  1.00  0.00    -0.080 C  
BRANCH  13  14
HETATM   14  C   UNL     1      -8.791   9.178  70.910  1.00  0.00    -0.292 C  
BRANCH  14  15
HETATM   15  C   UNL     1     -10.146   8.805  70.374  1.00  0.00    -0.223 C  
HETATM   16  C   UNL     1     -10.885   7.800  70.874  1.00  0.00    -0.246 C  
BRANCH  16  17
HETATM   17  C   UNL     1     -10.432   6.892  71.978  1.00  0.00    -0.229 C  
BRANCH  17  18
HETATM   18  C   UNL     1     -10.635   5.435  71.668  1.00  0.00    -0.284 C  
HETATM   19  C   UNL     1     -10.372   4.904  70.460  1.00  0.00    -0.242 C  
BRANCH  19  20
HETATM   20  C   UNL     1      -9.837   5.741  69.328  1.00  0.00    -0.220 C  
BRANCH  20  21
HETATM   21  C   UNL     1      -9.306   4.951  68.139  1.00  0.00    -0.164 C  
HETATM   22  C   UNL     1     -10.222   5.170  66.954  1.00  0.00    -0.239 C  
HETATM   23  O   UNL     1     -10.186   4.152  66.062  1.00  0.00    -0.188 OA 
HETATM   24  O   UNL     1     -10.911   6.158  66.775  1.00  0.00    -0.333 OA 
ENDBRANCH  20  21
ENDBRANCH  19  20
ENDBRANCH  17  18
ENDBRANCH  16  17
ENDBRANCH  14  15
ENDBRANCH  13  14
ENDBRANCH  11  12
ENDBRANCH  10  11
ENDBRANCH   8   9
ENDBRANCH   7   8
ENDBRANCH   5   6
ENDBRANCH   4   5
ENDBRANCH   2   3
TORSDOF 13
ENDMDL
MODEL      463
REMARK 921   NORMALIZED FREE ENERGY PREDICTED BY IDOCK:   -2.14 KCAL/MOL
REMARK 922        TOTAL FREE ENERGY PREDICTED BY IDOCK:   -6.54 KCAL/MOL
REMARK 923 INTER-LIGAND FREE ENERGY PREDICTED BY IDOCK:   -4.66 KCAL/MOL
REMARK 924 INTRA-LIGAND FREE ENERGY PREDICTED BY IDOCK:   -1.87 KCAL/MOL
REMARK 927      BINDING AFFINITY PREDICTED BY RF-SCORE:    0.00 PKD
ROOT
HETATM    1  C   UNL     1     -11.144   6.009  69.513  1.00  0.00    -0.468 C  
HETATM    2  C   UNL     1     -10.289   5.357  70.588  1.00  0.00    -0.333 C  
ENDROOT
BRANCH   2   3
HETATM    3  C   UNL     1      -9.665   6.360  71.515  1.00  0.00    -0.182 C  
HETATM    4  C   UNL     1      -8.664   7.199  71.195  1.00  0.00    -0.133 C  
BRANCH   4   5
HETATM    5  C   UNL     1      -7.929   7.219  69.885  1.00  0.00    -0.122 C  
BRANCH   5   6
HETATM    6  C   UNL     1      -6.444   7.073  70.072  1.00  0.00    -0.036 C  
HETATM    7  C   UNL     1      -5.502   7.264  69.131  1.00  0.00    -0.015 C  
BRANCH   7   8
HETATM    8  C   UNL     1      -5.786   7.629  67.704  1.00  0.00    -0.036 C  
BRANCH   8   9
HETATM    9  C   UNL     1      -5.236   6.626  66.733  1.00  0.00    -0.013 C  
HETATM   10  C   UNL     1      -5.936   5.907  65.839  1.00  0.00    -0.028 C  
BRANCH  10  11
HETATM   11  C   UNL     1      -7.412   5.999  65.560  1.00  0.00    -0.082 C  
BRANCH  11  12
HETATM   12  C   UNL     1      -7.741   6.907  64.406  1.00  0.00    -0.113 C  
HETATM   13  C   UNL     1      -8.207   8.163  64.482  1.00  0.00    -0.118 C  
BRANCH  13  14
HETATM   14  C   UNL     1      -8.562   8.880  65.742  1.00  0.00    -0.181 C  
BRANCH  14  15
HETATM   15  C   UNL     1      -9.629   8.181  66.538  1.00  0.00    -0.303 C  
HETATM   16  C   UNL     1     -10.433   8.816  67.408  1.00  0.00    -0.349 C  
BRANCH  16  17
HETATM   17  C   UNL     1     -10.329  10.274  67.739  1.00  0.00    -0.246 C  
BRANCH  17  18
HETATM   18  C   UNL     1     -11.479  10.779  68.566  1.00  0.00    -0.362 C  
HETATM   19  C   UNL     1     -11.812  12.081  68.633  1.00  0.00    -0.366 C  
BRANCH  19  20
HETATM   20  C   UNL     1     -11.055  13.130  67.864  1.00  0.00    -0.288 C  
BRANCH  20  21
HETATM   21  C   UNL     1     -10.903  14.467  68.579  1.00  0.00    -0.256 C  
HETATM   22  C   UNL     1      -9.458  14.910  68.492  1.00  0.00    -0.210 C  
HETATM   23  O   UNL     1      -9.098  15.740  69.500  1.00  0.00    -0.264 OA 
HETATM   24  O   UNL     1      -8.681  14.595  67.608  1.00  0.00    -0.162 OA 
ENDBRANCH  20  21
ENDBRANCH  19  20
ENDBRANCH  17  18
ENDBRANCH  16  17
ENDBRANCH  14  15
ENDBRANCH  13  14
ENDBRANCH  11  12
ENDBRANCH  10  11
ENDBRANCH   8   9
ENDBRANCH   7   8
ENDBRANCH   5   6
ENDBRANCH   4   5
ENDBRANCH   2   3
TORSDOF 13
ENDMDL
MODEL      464
REMARK 921   NORMALIZED FREE ENERGY PREDICTED BY IDOCK:   -2.11 KCAL/MOL
REMARK 922        TOTAL FREE ENERGY PREDICTED BY IDOCK:   -6.48 KCAL/MOL
REMARK 923 INTER-LIGAND FREE ENERGY PREDICTED BY IDOCK:   -5.03 KCAL/MOL
REMARK 924 INTRA-LIGAND FREE ENERGY PREDICTED BY IDOCK:   -1.45 KCAL/MOL
REMARK 927      BINDING AFFINITY PREDICTED BY RF-SCORE:    0.00 PKD
ROOT
HETATM    1  C   UNL     1      -6.794   7.391  72.726  1.00  0.00    -0.064 C  
HETATM    2  C   UNL     1      -6.473   8.586  71.844  1.00  0.00    -0.071 C  
ENDROOT
BRANCH   2   3
HETATM    3  C   UNL     1      -5.695   8.204  70.617  1.00  0.00    -0.029 C  
HETATM    4  C   UNL     1      -6.192   8.136  69.370  1.00  0.00    -0.034 C  
BRANCH   4   5
HETATM    5  C   UNL     1      -7.633   8.337  68.993  1.00  0.00    -0.089 C  
BRANCH   5   6
HETATM    6  C   UNL     1      -8.515   7.251  69.546  1.00  0.00    -0.133 C  
HETATM    7  C   UNL     1      -9.761   6.954  69.138  1.00  0.00    -0.155 C  
BRANCH   7   8
HETATM    8  C   UNL     1     -10.502   7.693  68.063  1.00  0.00    -0.247 C  
BRANCH   8   9
HETATM    9  C   UNL     1     -10.123   7.238  66.684  1.00  0.00    -0.238 C  
HETATM   10  C   UNL     1      -9.503   7.968  65.742  1.00  0.00     0.067 C  
BRANCH  10  11
HETATM   11  C   UNL     1      -8.985   9.374  65.879  1.00  0.00    -0.217 C  
BRANCH  11  12
HETATM   12  C   UNL     1      -8.897  10.105  64.567  1.00  0.00    -0.228 C  
HETATM   13  C   UNL     1      -9.753  11.029  64.104  1.00  0.00    -0.332 C  
BRANCH  13  14
HETATM   14  C   UNL     1     -11.012  11.458  64.781  1.00  0.00    -0.303 C  
BRANCH  14  15
HETATM   15  C   UNL     1     -11.805  12.450  63.977  1.00  0.00    -0.521 C  
HETATM   16  C   UNL     1     -11.799  13.771  64.223  1.00  0.00    -0.451 C  
BRANCH  16  17
HETATM   17  C   UNL     1     -11.057  14.411  65.359  1.00  0.00    -0.331 C  
BRANCH  17  18
HETATM   18  C   UNL     1     -11.898  14.584  66.594  1.00  0.00    -0.383 C  
HETATM   19  C   UNL     1     -11.516  14.135  67.803  1.00  0.00    -0.352 C  
BRANCH  19  20
HETATM   20  C   UNL     1     -10.200  13.433  68.006  1.00  0.00    -0.243 C  
BRANCH  20  21
HETATM   21  C   UNL     1      -8.986  14.167  67.450  1.00  0.00    -0.205 C  
HETATM   22  C   UNL     1      -7.771  13.275  67.581  1.00  0.00    -0.171 C  
HETATM   23  O   UNL     1      -6.609  13.970  67.643  1.00  0.00    -0.171 OA 
HETATM   24  O   UNL     1      -7.793  12.058  67.604  1.00  0.00    -0.129 OA 
ENDBRANCH  20  21
ENDBRANCH  19  20
ENDBRANCH  17  18
ENDBRANCH  16  17
ENDBRANCH  14  15
ENDBRANCH  13  14
ENDBRANCH  11  12
ENDBRANCH  10  11
ENDBRANCH   8   9
ENDBRANCH   7   8
ENDBRANCH   5   6
ENDBRANCH   4   5
ENDBRANCH   2   3
TORSDOF 13
ENDMDL
MODEL      465
REMARK 921   NORMALIZED FREE ENERGY PREDICTED BY IDOCK:   -2.07 KCAL/MOL
REMARK 922        TOTAL FREE ENERGY PREDICTED BY IDOCK:   -6.43 KCAL/MOL
REMARK 923 INTER-LIGAND FREE ENERGY PREDICTED BY IDOCK:   -3.45 KCAL/MOL
REMARK 924 INTRA-LIGAND FREE ENERGY PREDICTED BY IDOCK:   -2.97 KCAL/MOL
REMARK 927      BINDING AFFINITY PREDICTED BY RF-SCORE:    0.00 PKD
ROOT
HETATM    1  C   UNL     1     -10.337   3.949  72.961  1.00  0.00    -0.239 C  
HETATM    2  C   UNL     1     -10.870   5.326  72.602  1.00  0.00    -0.307 C  
ENDROOT
BRANCH   2   3
HETATM    3  C   UNL     1     -10.743   5.629  71.136  1.00  0.00    -0.310 C  
HETATM    4  C   UNL     1      -9.798   6.407  70.581  1.00  0.00    -0.206 C  
BRANCH   4   5
HETATM    5  C   UNL     1      -8.757   7.187  71.334  1.00  0.00    -0.124 C  
BRANCH   5   6
HETATM    6  C   UNL     1      -7.455   6.440  71.430  1.00  0.00    -0.089 C  
HETATM    7  C   UNL     1      -6.382   6.608  70.637  1.00  0.00    -0.040 C  
BRANCH   7   8
HETATM    8  C   UNL     1      -6.318   7.567  69.485  1.00  0.00    -0.032 C  
BRANCH   8   9
HETATM    9  C   UNL     1      -6.113   8.986  69.927  1.00  0.00    -0.034 C  
HETATM   10  C   UNL     1      -6.886  10.041  69.620  1.00  0.00    -0.078 C  
BRANCH  10  11
HETATM   11  C   UNL     1      -8.167  10.026  68.830  1.00  0.00    -0.115 C  
BRANCH  11  12
HETATM   12  C   UNL     1      -9.238  10.902  69.419  1.00  0.00     0.087 C  
HETATM   13  C   UNL     1     -10.449  11.152  68.896  1.00  0.00    -0.233 C  
BRANCH  13  14
HETATM   14  C   UNL     1     -10.938  10.660  67.575  1.00  0.00    -0.371 C  
BRANCH  14  15
HETATM   15  C   UNL     1     -10.227  11.290  66.410  1.00  0.00    -0.273 C  
HETATM   16  C   UNL     1      -9.763  10.588  65.362  1.00  0.00    -0.315 C  
BRANCH  16  17
HETATM   17  C   UNL     1      -9.840   9.095  65.250  1.00  0.00     0.169 C  
BRANCH  17  18
HETATM   18  C   UNL     1      -8.491   8.432  65.222  1.00  0.00    -0.189 C  
HETATM   19  C   UNL     1      -8.186   7.369  65.988  1.00  0.00    -0.130 C  
BRANCH  19  20
HETATM   20  C   UNL     1      -9.191   6.756  66.926  1.00  0.00    -0.162 C  
BRANCH  20  21
HETATM   21  C   UNL     1      -9.634   5.344  66.563  1.00  0.00    -0.167 C  
HETATM   22  C   UNL     1      -8.560   4.367  66.991  1.00  0.00    -0.104 C  
HETATM   23  O   UNL     1      -8.571   3.221  66.270  1.00  0.00    -0.111 OA 
HETATM   24  O   UNL     1      -7.772   4.547  67.902  1.00  0.00    -0.080 OA 
ENDBRANCH  20  21
ENDBRANCH  19  20
ENDBRANCH  17  18
ENDBRANCH  16  17
ENDBRANCH  14  15
ENDBRANCH  13  14
ENDBRANCH  11  12
ENDBRANCH  10  11
ENDBRANCH   8   9
ENDBRANCH   7   8
ENDBRANCH   5   6
ENDBRANCH   4   5
ENDBRANCH   2   3
TORSDOF 13
ENDMDL
MODEL      466
REMARK 921   NORMALIZED FREE ENERGY PREDICTED BY IDOCK:   -2.06 KCAL/MOL
REMARK 922        TOTAL FREE ENERGY PREDICTED BY IDOCK:   -6.41 KCAL/MOL
REMARK 923 INTER-LIGAND FREE ENERGY PREDICTED BY IDOCK:   -5.15 KCAL/MOL
REMARK 924 INTRA-LIGAND FREE ENERGY PREDICTED BY IDOCK:   -1.25 KCAL/MOL
REMARK 927      BINDING AFFINITY PREDICTED BY RF-SCORE:    0.00 PKD
ROOT
HETATM    1  C   UNL     1     -10.945  14.987  65.547  1.00  0.00    -0.364 C  
HETATM    2  C   UNL     1     -10.083  14.076  64.688  1.00  0.00    -0.102 C  
ENDROOT
BRANCH   2   3
HETATM    3  C   UNL     1     -10.899  13.123  63.861  1.00  0.00    -0.268 C  
HETATM    4  C   UNL     1     -10.972  11.794  64.051  1.00  0.00    -0.451 C  
BRANCH   4   5
HETATM    5  C   UNL     1     -10.181  11.012  65.062  1.00  0.00    -0.360 C  
BRANCH   5   6
HETATM    6  C   UNL     1     -10.826  11.039  66.421  1.00  0.00    -0.253 C  
HETATM    7  C   UNL     1     -10.659  10.129  67.397  1.00  0.00    -0.329 C  
BRANCH   7   8
HETATM    8  C   UNL     1      -9.812   8.897  67.276  1.00  0.00    -0.256 C  
BRANCH   8   9
HETATM    9  C   UNL     1     -10.631   7.649  67.118  1.00  0.00    -0.410 C  
HETATM   10  C   UNL     1     -10.779   6.668  68.024  1.00  0.00    -0.330 C  
BRANCH  10  11
HETATM   11  C   UNL     1     -10.223   6.634  69.422  1.00  0.00    -0.207 C  
BRANCH  11  12
HETATM   12  C   UNL     1     -10.240   7.976  70.101  1.00  0.00    -0.203 C  
HETATM   13  C   UNL     1     -10.609   8.231  71.366  1.00  0.00    -0.279 C  
BRANCH  13  14
HETATM   14  C   UNL     1     -11.150   7.226  72.328  1.00  0.00    -0.298 C  
BRANCH  14  15
HETATM   15  C   UNL     1     -10.181   6.878  73.424  1.00  0.00    -0.314 C  
HETATM   16  C   UNL     1      -9.436   5.759  73.420  1.00  0.00    -0.138 C  
BRANCH  16  17
HETATM   17  C   UNL     1      -9.519   4.697  72.365  1.00  0.00    -0.172 C  
BRANCH  17  18
HETATM   18  C   UNL     1      -8.262   3.880  72.245  1.00  0.00    -0.092 C  
HETATM   19  C   UNL     1      -7.346   4.093  71.283  1.00  0.00    -0.044 C  
BRANCH  19  20
HETATM   20  C   UNL     1      -7.512   5.184  70.259  1.00  0.00    -0.067 C  
BRANCH  20  21
HETATM   21  C   UNL     1      -6.688   5.006  68.990  1.00  0.00    -0.049 C  
HETATM   22  C   UNL     1      -7.238   3.833  68.207  1.00  0.00    -0.054 C  
HETATM   23  O   UNL     1      -6.314   3.256  67.402  1.00  0.00    -0.034 OA 
HETATM   24  O   UNL     1      -8.390   3.440  68.250  1.00  0.00    -0.079 OA 
ENDBRANCH  20  21
ENDBRANCH  19  20
ENDBRANCH  17  18
ENDBRANCH  16  17
ENDBRANCH  14  15
ENDBRANCH  13  14
ENDBRANCH  11  12
ENDBRANCH  10  11
ENDBRANCH   8   9
ENDBRANCH   7   8
ENDBRANCH   5   6
ENDBRANCH   4   5
ENDBRANCH   2   3
TORSDOF 13
ENDMDL
MODEL      467
REMARK 921   NORMALIZED FREE ENERGY PREDICTED BY IDOCK:   -2.06 KCAL/MOL
REMARK 922        TOTAL FREE ENERGY PREDICTED BY IDOCK:   -6.40 KCAL/MOL
REMARK 923 INTER-LIGAND FREE ENERGY PREDICTED BY IDOCK:   -6.89 KCAL/MOL
REMARK 924 INTRA-LIGAND FREE ENERGY PREDICTED BY IDOCK:    0.49 KCAL/MOL
REMARK 927      BINDING AFFINITY PREDICTED BY RF-SCORE:    0.00 PKD
ROOT
HETATM    1  C   UNL     1     -12.777  16.083  73.418  1.00  0.00    -0.668 C  
HETATM    2  C   UNL     1     -12.131  15.160  72.398  1.00  0.00    -0.478 C  
ENDROOT
BRANCH   2   3
HETATM    3  C   UNL     1     -11.861  15.847  71.089  1.00  0.00    -0.483 C  
HETATM    4  C   UNL     1     -11.930  15.267  69.878  1.00  0.00    -0.373 C  
BRANCH   4   5
HETATM    5  C   UNL     1     -12.196  13.811  69.621  1.00  0.00    -0.359 C  
BRANCH   5   6
HETATM    6  C   UNL     1     -10.968  13.094  69.130  1.00  0.00    -0.194 C  
HETATM    7  C   UNL     1     -10.788  11.762  69.092  1.00  0.00    -0.221 C  
BRANCH   7   8
HETATM    8  C   UNL     1     -11.790  10.753  69.573  1.00  0.00    -0.380 C  
BRANCH   8   9
HETATM    9  C   UNL     1     -12.660  11.286  70.673  1.00  0.00    -0.377 C  
HETATM   10  C   UNL     1     -13.022  10.638  71.793  1.00  0.00    -0.577 C  
BRANCH  10  11
HETATM   11  C   UNL     1     -12.578   9.269  72.232  1.00  0.00    -0.402 C  
BRANCH  11  12
HETATM   12  C   UNL     1     -13.132   8.164  71.375  1.00  0.00    -0.248 C  
HETATM   13  C   UNL     1     -12.806   6.863  71.434  1.00  0.00    -0.365 C  
BRANCH  13  14
HETATM   14  C   UNL     1     -11.763   6.272  72.323  1.00  0.00    -0.344 C  
BRANCH  14  15
HETATM   15  C   UNL     1     -10.649   7.229  72.643  1.00  0.00    -0.305 C  
HETATM   16  C   UNL     1      -9.482   7.252  71.976  1.00  0.00    -0.151 C  
BRANCH  16  17
HETATM   17  C   UNL     1      -9.122   6.294  70.881  1.00  0.00    -0.153 C  
BRANCH  17  18
HETATM   18  C   UNL     1      -9.880   6.538  69.606  1.00  0.00    -0.176 C  
HETATM   19  C   UNL     1      -9.725   7.653  68.869  1.00  0.00    -0.156 C  
BRANCH  19  20
HETATM   20  C   UNL     1      -8.761   8.737  69.269  1.00  0.00    -0.135 C  
BRANCH  20  21
HETATM   21  C   UNL     1      -7.383   8.643  68.625  1.00  0.00    -0.081 C  
HETATM   22  C   UNL     1      -7.520   7.995  67.264  1.00  0.00    -0.093 C  
HETATM   23  O   UNL     1      -6.385   7.379  66.855  1.00  0.00    -0.045 OA 
HETATM   24  O   UNL     1      -8.520   8.027  66.570  1.00  0.00    -0.125 OA 
ENDBRANCH  20  21
ENDBRANCH  19  20
ENDBRANCH  17  18
ENDBRANCH  16  17
ENDBRANCH  14  15
ENDBRANCH  13  14
ENDBRANCH  11  12
ENDBRANCH  10  11
ENDBRANCH   8   9
ENDBRANCH   7   8
ENDBRANCH   5   6
ENDBRANCH   4   5
ENDBRANCH   2   3
TORSDOF 13
ENDMDL
MODEL      468
REMARK 921   NORMALIZED FREE ENERGY PREDICTED BY IDOCK:   -2.05 KCAL/MOL
REMARK 922        TOTAL FREE ENERGY PREDICTED BY IDOCK:   -6.39 KCAL/MOL
REMARK 923 INTER-LIGAND FREE ENERGY PREDICTED BY IDOCK:   -6.20 KCAL/MOL
REMARK 924 INTRA-LIGAND FREE ENERGY PREDICTED BY IDOCK:   -0.19 KCAL/MOL
REMARK 927      BINDING AFFINITY PREDICTED BY RF-SCORE:    0.00 PKD
ROOT
HETATM    1  C   UNL     1     -12.382  16.458  73.865  1.00  0.00    -0.584 C  
HETATM    2  C   UNL     1     -12.007  15.431  72.809  1.00  0.00    -0.552 C  
ENDROOT
BRANCH   2   3
HETATM    3  C   UNL     1     -11.789  16.048  71.457  1.00  0.00    -0.554 C  
HETATM    4  C   UNL     1     -12.110  15.481  70.281  1.00  0.00    -0.415 C  
BRANCH   4   5
HETATM    5  C   UNL     1     -12.657  14.092  70.104  1.00  0.00    -0.325 C  
BRANCH   5   6
HETATM    6  C   UNL     1     -11.566  13.087  69.849  1.00  0.00    -0.249 C  
HETATM    7  C   UNL     1     -11.688  11.750  69.911  1.00  0.00    -0.399 C  
BRANCH   7   8
HETATM    8  C   UNL     1     -12.949  11.027  70.285  1.00  0.00    -0.067 C  
BRANCH   8   9
HETATM    9  C   UNL     1     -12.838  10.321  71.604  1.00  0.00    -0.568 C  
HETATM   10  C   UNL     1     -12.074   9.250  71.879  1.00  0.00    -0.440 C  
BRANCH  10  11
HETATM   11  C   UNL     1     -11.105   8.567  70.952  1.00  0.00    -0.295 C  
BRANCH  11  12
HETATM   12  C   UNL     1     -10.636   7.232  71.463  1.00  0.00    -0.223 C  
HETATM   13  C   UNL     1      -9.366   6.861  71.690  1.00  0.00    -0.154 C  
BRANCH  13  14
HETATM   14  C   UNL     1      -8.158   7.690  71.403  1.00  0.00    -0.096 C  
BRANCH  14  15
HETATM   15  C   UNL     1      -8.487   9.011  70.766  1.00  0.00    -0.238 C  
HETATM   16  C   UNL     1      -8.601   9.182  69.437  1.00  0.00    -0.138 C  
BRANCH  16  17
HETATM   17  C   UNL     1      -8.355   8.101  68.428  1.00  0.00    -0.126 C  
BRANCH  17  18
HETATM   18  C   UNL     1      -9.606   7.644  67.731  1.00  0.00    -0.169 C  
HETATM   19  C   UNL     1      -9.629   7.290  66.433  1.00  0.00    -0.169 C  
BRANCH  19  20
HETATM   20  C   UNL     1      -8.385   7.315  65.585  1.00  0.00    -0.142 C  
BRANCH  20  21
HETATM   21  C   UNL     1      -8.166   6.076  64.726  1.00  0.00    -0.123 C  
HETATM   22  C   UNL     1      -7.220   5.140  65.446  1.00  0.00    -0.068 C  
HETATM   23  O   UNL     1      -6.545   4.320  64.605  1.00  0.00    -0.041 OA 
HETATM   24  O   UNL     1      -7.076   5.081  66.654  1.00  0.00    -0.066 OA 
ENDBRANCH  20  21
ENDBRANCH  19  20
ENDBRANCH  17  18
ENDBRANCH  16  17
ENDBRANCH  14  15
ENDBRANCH  13  14
ENDBRANCH  11  12
ENDBRANCH  10  11
ENDBRANCH   8   9
ENDBRANCH   7   8
ENDBRANCH   5   6
ENDBRANCH   4   5
ENDBRANCH   2   3
TORSDOF 13
ENDMDL
MODEL      469
REMARK 921   NORMALIZED FREE ENERGY PREDICTED BY IDOCK:   -2.03 KCAL/MOL
REMARK 922        TOTAL FREE ENERGY PREDICTED BY IDOCK:   -6.34 KCAL/MOL
REMARK 923 INTER-LIGAND FREE ENERGY PREDICTED BY IDOCK:   -4.92 KCAL/MOL
REMARK 924 INTRA-LIGAND FREE ENERGY PREDICTED BY IDOCK:   -1.42 KCAL/MOL
REMARK 927      BINDING AFFINITY PREDICTED BY RF-SCORE:    0.00 PKD
ROOT
HETATM    1  C   UNL     1     -12.480  14.967  64.852  1.00  0.00    -0.104 C  
HETATM    2  C   UNL     1     -12.769  13.551  65.321  1.00  0.00    -0.481 C  
ENDROOT
BRANCH   2   3
HETATM    3  C   UNL     1     -11.874  13.123  66.449  1.00  0.00    -0.455 C  
HETATM    4  C   UNL     1     -11.014  12.091  66.412  1.00  0.00    -0.337 C  
BRANCH   4   5
HETATM    5  C   UNL     1     -10.862  11.123  65.272  1.00  0.00    -0.222 C  
BRANCH   5   6
HETATM    6  C   UNL     1     -10.010  11.687  64.168  1.00  0.00    -0.311 C  
HETATM    7  C   UNL     1      -9.317  10.980  63.259  1.00  0.00    -0.319 C  
BRANCH   7   8
HETATM    8  C   UNL     1      -9.252   9.481  63.216  1.00  0.00    -0.028 C  
BRANCH   8   9
HETATM    9  C   UNL     1      -8.069   8.978  62.442  1.00  0.00    -0.151 C  
HETATM   10  C   UNL     1      -7.055   8.237  62.921  1.00  0.00    -0.091 C  
BRANCH  10  11
HETATM   11  C   UNL     1      -6.914   7.684  64.313  1.00  0.00    -0.060 C  
BRANCH  11  12
HETATM   12  C   UNL     1      -6.097   6.423  64.371  1.00  0.00    -0.030 C  
HETATM   13  C   UNL     1      -6.285   5.382  65.198  1.00  0.00    -0.033 C  
BRANCH  13  14
HETATM   14  C   UNL     1      -7.309   5.313  66.282  1.00  0.00    -0.082 C  
BRANCH  14  15
HETATM   15  C   UNL     1      -8.437   4.370  65.968  1.00  0.00    -0.113 C  
HETATM   16  C   UNL     1      -9.582   4.331  66.672  1.00  0.00    -0.218 C  
BRANCH  16  17
HETATM   17  C   UNL     1      -9.852   5.171  67.885  1.00  0.00    -0.199 C  
BRANCH  17  18
HETATM   18  C   UNL     1     -10.668   6.398  67.587  1.00  0.00    -0.387 C  
HETATM   19  C   UNL     1     -10.579   7.526  68.316  1.00  0.00    -0.185 C  
BRANCH  19  20
HETATM   20  C   UNL     1      -9.636   7.640  69.484  1.00  0.00    -0.163 C  
BRANCH  20  21
HETATM   21  C   UNL     1     -10.149   8.482  70.645  1.00  0.00    -0.225 C  
HETATM   22  C   UNL     1     -10.429   7.575  71.824  1.00  0.00    -0.193 C  
HETATM   23  O   UNL     1     -11.358   8.080  72.671  1.00  0.00    -0.372 OA 
HETATM   24  O   UNL     1      -9.877   6.510  72.036  1.00  0.00    -0.161 OA 
ENDBRANCH  20  21
ENDBRANCH  19  20
ENDBRANCH  17  18
ENDBRANCH  16  17
ENDBRANCH  14  15
ENDBRANCH  13  14
ENDBRANCH  11  12
ENDBRANCH  10  11
ENDBRANCH   8   9
ENDBRANCH   7   8
ENDBRANCH   5   6
ENDBRANCH   4   5
ENDBRANCH   2   3
TORSDOF 13
ENDMDL
MODEL      470
REMARK 921   NORMALIZED FREE ENERGY PREDICTED BY IDOCK:   -2.02 KCAL/MOL
REMARK 922        TOTAL FREE ENERGY PREDICTED BY IDOCK:   -6.33 KCAL/MOL
REMARK 923 INTER-LIGAND FREE ENERGY PREDICTED BY IDOCK:   -5.30 KCAL/MOL
REMARK 924 INTRA-LIGAND FREE ENERGY PREDICTED BY IDOCK:   -1.03 KCAL/MOL
REMARK 927      BINDING AFFINITY PREDICTED BY RF-SCORE:    0.00 PKD
ROOT
HETATM    1  C   UNL     1      -6.558   3.508  70.648  1.00  0.00    -0.032 C  
HETATM    2  C   UNL     1      -7.748   3.533  71.593  1.00  0.00    -0.057 C  
ENDROOT
BRANCH   2   3
HETATM    3  C   UNL     1      -9.062   3.523  70.865  1.00  0.00    -0.182 C  
HETATM    4  C   UNL     1     -10.074   4.383  71.072  1.00  0.00    -0.195 C  
BRANCH   4   5
HETATM    5  C   UNL     1     -10.108   5.450  72.130  1.00  0.00    -0.237 C  
BRANCH   5   6
HETATM    6  C   UNL     1      -8.873   6.308  72.104  1.00  0.00    -0.137 C  
HETATM    7  C   UNL     1      -8.691   7.416  71.365  1.00  0.00    -0.127 C  
BRANCH   7   8
HETATM    8  C   UNL     1      -9.699   7.972  70.403  1.00  0.00    -0.178 C  
BRANCH   8   9
HETATM    9  C   UNL     1      -9.538   7.418  69.017  1.00  0.00    -0.148 C  
HETATM   10  C   UNL     1      -9.097   8.082  67.935  1.00  0.00    -0.134 C  
BRANCH  10  11
HETATM   11  C   UNL     1      -8.597   9.501  67.884  1.00  0.00    -0.119 C  
BRANCH  11  12
HETATM   12  C   UNL     1      -9.031  10.238  66.647  1.00  0.00    -0.156 C  
HETATM   13  C   UNL     1      -9.395  11.528  66.568  1.00  0.00    -0.210 C  
BRANCH  13  14
HETATM   14  C   UNL     1      -9.511  12.466  67.722  1.00  0.00    -0.199 C  
BRANCH  14  15
HETATM   15  C   UNL     1     -10.733  12.220  68.562  1.00  0.00    -0.261 C  
HETATM   16  C   UNL     1     -11.694  13.140  68.753  1.00  0.00    -0.363 C  
BRANCH  16  17
HETATM   17  C   UNL     1     -11.640  14.537  68.209  1.00  0.00    -0.358 C  
BRANCH  17  18
HETATM   18  C   UNL     1     -10.564  15.377  68.839  1.00  0.00    -0.244 C  
HETATM   19  C   UNL     1      -9.902  16.336  68.166  1.00  0.00    -0.229 C  
BRANCH  19  20
HETATM   20  C   UNL     1     -10.208  16.645  66.725  1.00  0.00    -0.301 C  
BRANCH  20  21
HETATM   21  C   UNL     1      -9.780  15.572  65.732  1.00  0.00    -0.383 C  
HETATM   22  C   UNL     1     -10.808  15.491  64.623  1.00  0.00    -0.254 C  
HETATM   23  O   UNL     1     -10.841  14.277  64.021  1.00  0.00     0.078 OA 
HETATM   24  O   UNL     1     -11.526  16.406  64.265  1.00  0.00    -0.876 OA 
ENDBRANCH  20  21
ENDBRANCH  19  20
ENDBRANCH  17  18
ENDBRANCH  16  17
ENDBRANCH  14  15
ENDBRANCH  13  14
ENDBRANCH  11  12
ENDBRANCH  10  11
ENDBRANCH   8   9
ENDBRANCH   7   8
ENDBRANCH   5   6
ENDBRANCH   4   5
ENDBRANCH   2   3
TORSDOF 13
ENDMDL
MODEL      471
REMARK 921   NORMALIZED FREE ENERGY PREDICTED BY IDOCK:   -2.01 KCAL/MOL
REMARK 922        TOTAL FREE ENERGY PREDICTED BY IDOCK:   -6.31 KCAL/MOL
REMARK 923 INTER-LIGAND FREE ENERGY PREDICTED BY IDOCK:   -5.27 KCAL/MOL
REMARK 924 INTRA-LIGAND FREE ENERGY PREDICTED BY IDOCK:   -1.04 KCAL/MOL
REMARK 927      BINDING AFFINITY PREDICTED BY RF-SCORE:    0.00 PKD
ROOT
HETATM    1  C   UNL     1      -8.782  15.930  69.427  1.00  0.00    -0.198 C  
HETATM    2  C   UNL     1     -10.020  16.478  68.736  1.00  0.00    -0.255 C  
ENDROOT
BRANCH   2   3
HETATM    3  C   UNL     1     -11.244  16.406  69.605  1.00  0.00    -0.257 C  
HETATM    4  C   UNL     1     -12.118  15.385  69.636  1.00  0.00    -0.354 C  
BRANCH   4   5
HETATM    5  C   UNL     1     -12.079  14.177  68.744  1.00  0.00    -0.326 C  
BRANCH   5   6
HETATM    6  C   UNL     1     -11.770  12.921  69.512  1.00  0.00    -0.387 C  
HETATM    7  C   UNL     1     -11.615  11.690  68.994  1.00  0.00    -0.379 C  
BRANCH   7   8
HETATM    8  C   UNL     1     -11.759  11.356  67.538  1.00  0.00    -0.220 C  
BRANCH   8   9
HETATM    9  C   UNL     1     -10.479  11.536  66.777  1.00  0.00    -0.275 C  
HETATM   10  C   UNL     1      -9.776  10.576  66.152  1.00  0.00    -0.259 C  
BRANCH  10  11
HETATM   11  C   UNL     1     -10.149   9.125  66.012  1.00  0.00    -0.204 C  
BRANCH  11  12
HETATM   12  C   UNL     1      -8.962   8.202  66.024  1.00  0.00    -0.213 C  
HETATM   13  C   UNL     1      -8.974   6.881  66.258  1.00  0.00    -0.172 C  
BRANCH  13  14
HETATM   14  C   UNL     1     -10.178   6.080  66.630  1.00  0.00    -0.246 C  
BRANCH  14  15
HETATM   15  C   UNL     1      -9.944   4.596  66.561  1.00  0.00    -0.265 C  
HETATM   16  C   UNL     1      -9.426   3.884  67.576  1.00  0.00    -0.236 C  
BRANCH  16  17
HETATM   17  C   UNL     1      -8.963   4.480  68.872  1.00  0.00    -0.151 C  
BRANCH  17  18
HETATM   18  C   UNL     1     -10.094   4.894  69.772  1.00  0.00    -0.319 C  
HETATM   19  C   UNL     1     -10.266   4.384  71.005  1.00  0.00    -0.121 C  
BRANCH  19  20
HETATM   20  C   UNL     1      -9.319   3.364  71.578  1.00  0.00    -0.210 C  
BRANCH  20  21
HETATM   21  C   UNL     1      -8.145   3.942  72.358  1.00  0.00    -0.085 C  
HETATM   22  C   UNL     1      -7.717   2.945  73.413  1.00  0.00    -0.052 C  
HETATM   23  O   UNL     1      -7.099   3.526  74.470  1.00  0.00    -0.049 OA 
HETATM   24  O   UNL     1      -7.870   1.739  73.341  1.00  0.00    -0.040 OA 
ENDBRANCH  20  21
ENDBRANCH  19  20
ENDBRANCH  17  18
ENDBRANCH  16  17
ENDBRANCH  14  15
ENDBRANCH  13  14
ENDBRANCH  11  12
ENDBRANCH  10  11
ENDBRANCH   8   9
ENDBRANCH   7   8
ENDBRANCH   5   6
ENDBRANCH   4   5
ENDBRANCH   2   3
TORSDOF 13
ENDMDL
MODEL      472
REMARK 921   NORMALIZED FREE ENERGY PREDICTED BY IDOCK:   -1.95 KCAL/MOL
REMARK 922        TOTAL FREE ENERGY PREDICTED BY IDOCK:   -6.21 KCAL/MOL
REMARK 923 INTER-LIGAND FREE ENERGY PREDICTED BY IDOCK:   -6.33 KCAL/MOL
REMARK 924 INTRA-LIGAND FREE ENERGY PREDICTED BY IDOCK:    0.13 KCAL/MOL
REMARK 927      BINDING AFFINITY PREDICTED BY RF-SCORE:    0.00 PKD
ROOT
HETATM    1  C   UNL     1      -8.057   5.748  69.689  1.00  0.00    -0.104 C  
HETATM    2  C   UNL     1      -7.607   6.766  70.724  1.00  0.00    -0.092 C  
ENDROOT
BRANCH   2   3
HETATM    3  C   UNL     1      -8.358   6.640  72.019  1.00  0.00    -0.106 C  
HETATM    4  C   UNL     1      -9.641   6.991  72.212  1.00  0.00    -0.165 C  
BRANCH   4   5
HETATM    5  C   UNL     1     -10.526   7.656  71.196  1.00  0.00    -0.220 C  
BRANCH   5   6
HETATM    6  C   UNL     1     -10.267   9.135  71.108  1.00  0.00    -0.384 C  
HETATM    7  C   UNL     1      -9.950   9.821  69.996  1.00  0.00    -0.299 C  
BRANCH   7   8
HETATM    8  C   UNL     1      -9.767   9.206  68.639  1.00  0.00    -0.164 C  
BRANCH   8   9
HETATM    9  C   UNL     1     -10.412  10.013  67.551  1.00  0.00    -0.307 C  
HETATM   10  C   UNL     1      -9.844  11.005  66.844  1.00  0.00    -0.222 C  
BRANCH  10  11
HETATM   11  C   UNL     1      -8.418  11.478  66.932  1.00  0.00    -0.165 C  
BRANCH  11  12
HETATM   12  C   UNL     1      -8.225  12.599  67.917  1.00  0.00    -0.170 C  
HETATM   13  C   UNL     1      -8.567  13.885  67.746  1.00  0.00    -0.182 C  
BRANCH  13  14
HETATM   14  C   UNL     1      -9.144  14.468  66.499  1.00  0.00    -0.248 C  
BRANCH  14  15
HETATM   15  C   UNL     1     -10.647  14.475  66.492  1.00  0.00    -0.297 C  
HETATM   16  C   UNL     1     -11.390  14.410  67.610  1.00  0.00    -0.348 C  
BRANCH  16  17
HETATM   17  C   UNL     1     -10.821  14.260  68.989  1.00  0.00    -0.274 C  
BRANCH  17  18
HETATM   18  C   UNL     1     -10.812  15.545  69.770  1.00  0.00    -0.301 C  
HETATM   19  C   UNL     1     -11.791  15.881  70.630  1.00  0.00    -0.398 C  
BRANCH  19  20
HETATM   20  C   UNL     1     -12.967  14.976  70.881  1.00  0.00    -0.463 C  
BRANCH  20  21
HETATM   21  C   UNL     1     -12.660  13.485  70.810  1.00  0.00    -0.382 C  
HETATM   22  C   UNL     1     -13.383  12.780  71.937  1.00  0.00    -0.413 C  
HETATM   23  O   UNL     1     -12.785  11.620  72.304  1.00  0.00    -0.018 OA 
HETATM   24  O   UNL     1     -14.410  13.168  72.463  1.00  0.00    -0.613 OA 
ENDBRANCH  20  21
ENDBRANCH  19  20
ENDBRANCH  17  18
ENDBRANCH  16  17
ENDBRANCH  14  15
ENDBRANCH  13  14
ENDBRANCH  11  12
ENDBRANCH  10  11
ENDBRANCH   8   9
ENDBRANCH   7   8
ENDBRANCH   5   6
ENDBRANCH   4   5
ENDBRANCH   2   3
TORSDOF 13
ENDMDL
MODEL      473
REMARK 921   NORMALIZED FREE ENERGY PREDICTED BY IDOCK:   -1.92 KCAL/MOL
REMARK 922        TOTAL FREE ENERGY PREDICTED BY IDOCK:   -6.16 KCAL/MOL
REMARK 923 INTER-LIGAND FREE ENERGY PREDICTED BY IDOCK:   -4.62 KCAL/MOL
REMARK 924 INTRA-LIGAND FREE ENERGY PREDICTED BY IDOCK:   -1.54 KCAL/MOL
REMARK 927      BINDING AFFINITY PREDICTED BY RF-SCORE:    0.00 PKD
ROOT
HETATM    1  C   UNL     1     -12.672  13.692  65.479  1.00  0.00    -0.514 C  
HETATM    2  C   UNL     1     -11.789  12.489  65.767  1.00  0.00    -0.494 C  
ENDROOT
BRANCH   2   3
HETATM    3  C   UNL     1     -11.721  12.161  67.231  1.00  0.00    -0.369 C  
HETATM    4  C   UNL     1     -10.979  12.814  68.142  1.00  0.00    -0.273 C  
BRANCH   4   5
HETATM    5  C   UNL     1     -10.014  13.928  67.845  1.00  0.00    -0.242 C  
BRANCH   5   6
HETATM    6  C   UNL     1      -8.877  13.468  66.973  1.00  0.00    -0.219 C  
HETATM    7  C   UNL     1      -7.955  12.543  67.293  1.00  0.00    -0.173 C  
BRANCH   7   8
HETATM    8  C   UNL     1      -7.889  11.827  68.610  1.00  0.00    -0.117 C  
BRANCH   8   9
HETATM    9  C   UNL     1      -6.481  11.514  69.025  1.00  0.00    -0.076 C  
HETATM   10  C   UNL     1      -6.035  10.354  69.536  1.00  0.00    -0.044 C  
BRANCH  10  11
HETATM   11  C   UNL     1      -6.826   9.090  69.738  1.00  0.00    -0.050 C  
BRANCH  11  12
HETATM   12  C   UNL     1      -7.042   8.316  68.467  1.00  0.00    -0.077 C  
HETATM   13  C   UNL     1      -8.177   8.246  67.753  1.00  0.00    -0.127 C  
BRANCH  13  14
HETATM   14  C   UNL     1      -9.477   8.872  68.133  1.00  0.00    -0.155 C  
BRANCH  14  15
HETATM   15  C   UNL     1     -10.617   8.444  67.252  1.00  0.00    -0.328 C  
HETATM   16  C   UNL     1     -10.892   7.158  66.974  1.00  0.00    -0.382 C  
BRANCH  16  17
HETATM   17  C   UNL     1     -10.066   6.000  67.452  1.00  0.00    -0.196 C  
BRANCH  17  18
HETATM   18  C   UNL     1     -10.020   4.860  66.472  1.00  0.00    -0.256 C  
HETATM   19  C   UNL     1      -9.057   4.742  65.539  1.00  0.00    -0.152 C  
BRANCH  19  20
HETATM   20  C   UNL     1      -7.942   5.745  65.421  1.00  0.00    -0.117 C  
BRANCH  20  21
HETATM   21  C   UNL     1      -7.900   6.509  64.104  1.00  0.00    -0.111 C  
HETATM   22  C   UNL     1      -6.541   7.160  63.956  1.00  0.00    -0.044 C  
HETATM   23  O   UNL     1      -6.563   8.256  63.160  1.00  0.00    -0.084 OA 
HETATM   24  O   UNL     1      -5.511   6.754  64.462  1.00  0.00    -0.026 OA 
ENDBRANCH  20  21
ENDBRANCH  19  20
ENDBRANCH  17  18
ENDBRANCH  16  17
ENDBRANCH  14  15
ENDBRANCH  13  14
ENDBRANCH  11  12
ENDBRANCH  10  11
ENDBRANCH   8   9
ENDBRANCH   7   8
ENDBRANCH   5   6
ENDBRANCH   4   5
ENDBRANCH   2   3
TORSDOF 13
ENDMDL
MODEL      474
REMARK 921   NORMALIZED FREE ENERGY PREDICTED BY IDOCK:   -1.92 KCAL/MOL
REMARK 922        TOTAL FREE ENERGY PREDICTED BY IDOCK:   -6.16 KCAL/MOL
REMARK 923 INTER-LIGAND FREE ENERGY PREDICTED BY IDOCK:   -4.96 KCAL/MOL
REMARK 924 INTRA-LIGAND FREE ENERGY PREDICTED BY IDOCK:   -1.20 KCAL/MOL
REMARK 927      BINDING AFFINITY PREDICTED BY RF-SCORE:    0.00 PKD
ROOT
HETATM    1  C   UNL     1      -8.553   7.375  72.257  1.00  0.00    -0.135 C  
HETATM    2  C   UNL     1      -9.895   7.956  72.671  1.00  0.00    -0.316 C  
ENDROOT
BRANCH   2   3
HETATM    3  C   UNL     1     -10.935   6.896  72.901  1.00  0.00    -0.315 C  
HETATM    4  C   UNL     1     -12.135   6.840  72.299  1.00  0.00    -0.212 C  
BRANCH   4   5
HETATM    5  C   UNL     1     -12.690   7.874  71.361  1.00  0.00    -0.312 C  
BRANCH   5   6
HETATM    6  C   UNL     1     -13.305   9.031  72.100  1.00  0.00    -0.510 C  
HETATM    7  C   UNL     1     -12.938  10.321  72.004  1.00  0.00    -0.503 C  
BRANCH   7   8
HETATM    8  C   UNL     1     -11.811  10.824  71.150  1.00  0.00    -0.277 C  
BRANCH   8   9
HETATM    9  C   UNL     1     -12.144  10.803  69.687  1.00  0.00    -0.361 C  
HETATM   10  C   UNL     1     -11.537  11.509  68.718  1.00  0.00    -0.379 C  
BRANCH  10  11
HETATM   11  C   UNL     1     -10.346  12.416  68.867  1.00  0.00    -0.074 C  
BRANCH  11  12
HETATM   12  C   UNL     1      -9.799  12.899  67.552  1.00  0.00    -0.208 C  
HETATM   13  C   UNL     1      -8.650  12.519  66.972  1.00  0.00    -0.188 C  
BRANCH  13  14
HETATM   14  C   UNL     1      -7.647  11.588  67.569  1.00  0.00    -0.121 C  
BRANCH  14  15
HETATM   15  C   UNL     1      -6.227  12.001  67.303  1.00  0.00    -0.149 C  
HETATM   16  C   UNL     1      -5.447  11.408  66.381  1.00  0.00    -0.129 C  
BRANCH  16  17
HETATM   17  C   UNL     1      -5.870  10.231  65.554  1.00  0.00    -0.102 C  
BRANCH  17  18
HETATM   18  C   UNL     1      -6.187   9.012  66.376  1.00  0.00    -0.064 C  
HETATM   19  C   UNL     1      -7.235   8.210  66.114  1.00  0.00    -0.066 C  
BRANCH  19  20
HETATM   20  C   UNL     1      -8.164   8.475  64.959  1.00  0.00    -0.160 C  
BRANCH  20  21
HETATM   21  C   UNL     1      -8.869   9.826  64.997  1.00  0.00    -0.224 C  
HETATM   22  C   UNL     1     -10.230   9.652  65.635  1.00  0.00    -0.034 C  
HETATM   23  O   UNL     1     -11.121  10.594  65.244  1.00  0.00     0.100 OA 
HETATM   24  O   UNL     1     -10.521   8.787  66.441  1.00  0.00    -0.216 OA 
ENDBRANCH  20  21
ENDBRANCH  19  20
ENDBRANCH  17  18
ENDBRANCH  16  17
ENDBRANCH  14  15
ENDBRANCH  13  14
ENDBRANCH  11  12
ENDBRANCH  10  11
ENDBRANCH   8   9
ENDBRANCH   7   8
ENDBRANCH   5   6
ENDBRANCH   4   5
ENDBRANCH   2   3
TORSDOF 13
ENDMDL
MODEL      475
REMARK 921   NORMALIZED FREE ENERGY PREDICTED BY IDOCK:   -1.87 KCAL/MOL
REMARK 922        TOTAL FREE ENERGY PREDICTED BY IDOCK:   -6.06 KCAL/MOL
REMARK 923 INTER-LIGAND FREE ENERGY PREDICTED BY IDOCK:   -4.25 KCAL/MOL
REMARK 924 INTRA-LIGAND FREE ENERGY PREDICTED BY IDOCK:   -1.82 KCAL/MOL
REMARK 927      BINDING AFFINITY PREDICTED BY RF-SCORE:    0.00 PKD
ROOT
HETATM    1  C   UNL     1      -9.938  17.101  65.678  1.00  0.00    -0.041 C  
HETATM    2  C   UNL     1     -11.156  16.311  65.229  1.00  0.00    -0.156 C  
ENDROOT
BRANCH   2   3
HETATM    3  C   UNL     1     -10.792  15.099  64.420  1.00  0.00     0.051 C  
HETATM    4  C   UNL     1     -10.573  13.869  64.917  1.00  0.00    -0.436 C  
BRANCH   4   5
HETATM    5  C   UNL     1     -10.562  13.507  66.375  1.00  0.00    -0.283 C  
BRANCH   5   6
HETATM    6  C   UNL     1     -11.217  12.176  66.628  1.00  0.00    -0.375 C  
HETATM    7  C   UNL     1     -10.612  10.976  66.608  1.00  0.00    -0.315 C  
BRANCH   7   8
HETATM    8  C   UNL     1      -9.161  10.760  66.292  1.00  0.00    -0.195 C  
BRANCH   8   9
HETATM    9  C   UNL     1      -8.878   9.366  65.814  1.00  0.00    -0.204 C  
HETATM   10  C   UNL     1      -7.905   8.550  66.255  1.00  0.00    -0.098 C  
BRANCH  10  11
HETATM   11  C   UNL     1      -6.933   8.819  67.372  1.00  0.00    -0.075 C  
BRANCH  11  12
HETATM   12  C   UNL     1      -6.821   7.680  68.347  1.00  0.00    -0.070 C  
HETATM   13  C   UNL     1      -7.704   7.352  69.303  1.00  0.00    -0.107 C  
BRANCH  13  14
HETATM   14  C   UNL     1      -8.946   8.112  69.630  1.00  0.00    -0.154 C  
BRANCH  14  15
HETATM   15  C   UNL     1     -10.066   7.859  68.660  1.00  0.00    -0.210 C  
HETATM   16  C   UNL     1     -10.862   6.777  68.719  1.00  0.00    -0.280 C  
BRANCH  16  17
HETATM   17  C   UNL     1     -10.697   5.666  69.712  1.00  0.00    -0.401 C  
BRANCH  17  18
HETATM   18  C   UNL     1      -9.979   4.470  69.151  1.00  0.00    -0.169 C  
HETATM   19  C   UNL     1      -9.000   3.830  69.816  1.00  0.00    -0.167 C  
BRANCH  19  20
HETATM   20  C   UNL     1      -8.562   4.266  71.189  1.00  0.00    -0.118 C  
BRANCH  20  21
HETATM   21  C   UNL     1      -8.518   3.156  72.232  1.00  0.00    -0.081 C  
HETATM   22  C   UNL     1      -9.682   3.331  73.184  1.00  0.00    -0.110 C  
HETATM   23  O   UNL     1      -9.454   2.788  74.404  1.00  0.00    -0.084 OA 
HETATM   24  O   UNL     1     -10.738   3.871  72.908  1.00  0.00    -0.170 OA 
ENDBRANCH  20  21
ENDBRANCH  19  20
ENDBRANCH  17  18
ENDBRANCH  16  17
ENDBRANCH  14  15
ENDBRANCH  13  14
ENDBRANCH  11  12
ENDBRANCH  10  11
ENDBRANCH   8   9
ENDBRANCH   7   8
ENDBRANCH   5   6
ENDBRANCH   4   5
ENDBRANCH   2   3
TORSDOF 13
ENDMDL
MODEL      476
REMARK 921   NORMALIZED FREE ENERGY PREDICTED BY IDOCK:   -1.84 KCAL/MOL
REMARK 922        TOTAL FREE ENERGY PREDICTED BY IDOCK:   -6.02 KCAL/MOL
REMARK 923 INTER-LIGAND FREE ENERGY PREDICTED BY IDOCK:   -4.99 KCAL/MOL
REMARK 924 INTRA-LIGAND FREE ENERGY PREDICTED BY IDOCK:   -1.04 KCAL/MOL
REMARK 927      BINDING AFFINITY PREDICTED BY RF-SCORE:    0.00 PKD
ROOT
HETATM    1  C   UNL     1     -10.565   6.282  69.403  1.00  0.00    -0.330 C  
HETATM    2  C   UNL     1      -9.442   5.595  70.162  1.00  0.00    -0.200 C  
ENDROOT
BRANCH   2   3
HETATM    3  C   UNL     1      -8.700   6.535  71.069  1.00  0.00    -0.138 C  
HETATM    4  C   UNL     1      -8.069   7.656  70.681  1.00  0.00    -0.108 C  
BRANCH   4   5
HETATM    5  C   UNL     1      -7.913   8.122  69.260  1.00  0.00    -0.115 C  
BRANCH   5   6
HETATM    6  C   UNL     1      -6.468   8.195  68.849  1.00  0.00    -0.048 C  
HETATM    7  C   UNL     1      -5.999   8.647  67.673  1.00  0.00    -0.047 C  
BRANCH   7   8
HETATM    8  C   UNL     1      -6.859   9.133  66.544  1.00  0.00    -0.080 C  
BRANCH   8   9
HETATM    9  C   UNL     1      -7.532   8.011  65.809  1.00  0.00    -0.081 C  
HETATM   10  C   UNL     1      -8.750   8.041  65.242  1.00  0.00    -0.062 C  
BRANCH  10  11
HETATM   11  C   UNL     1      -9.678   9.222  65.150  1.00  0.00     0.003 C  
BRANCH  11  12
HETATM   12  C   UNL     1      -9.114  10.358  64.340  1.00  0.00    -0.267 C  
HETATM   13  C   UNL     1      -9.209  11.667  64.621  1.00  0.00     0.119 C  
BRANCH  13  14
HETATM   14  C   UNL     1      -9.965  12.254  65.765  1.00  0.00    -0.273 C  
BRANCH  14  15
HETATM   15  C   UNL     1     -11.444  12.342  65.511  1.00  0.00    -0.404 C  
HETATM   16  C   UNL     1     -12.175  13.438  65.782  1.00  0.00    -0.507 C  
BRANCH  16  17
HETATM   17  C   UNL     1     -11.625  14.677  66.422  1.00  0.00    -0.343 C  
BRANCH  17  18
HETATM   18  C   UNL     1     -10.695  15.446  65.525  1.00  0.00    -0.397 C  
HETATM   19  C   UNL     1      -9.596  16.074  65.982  1.00  0.00    -0.385 C  
BRANCH  19  20
HETATM   20  C   UNL     1      -9.212  16.037  67.437  1.00  0.00    -0.214 C  
BRANCH  20  21
HETATM   21  C   UNL     1      -8.706  17.357  68.003  1.00  0.00    -0.241 C  
HETATM   22  C   UNL     1      -9.854  18.074  68.681  1.00  0.00    -0.378 C  
HETATM   23  O   UNL     1      -9.686  19.417  68.727  1.00  0.00    -0.406 OA 
HETATM   24  O   UNL     1     -10.828  17.530  69.170  1.00  0.00    -0.084 OA 
ENDBRANCH  20  21
ENDBRANCH  19  20
ENDBRANCH  17  18
ENDBRANCH  16  17
ENDBRANCH  14  15
ENDBRANCH  13  14
ENDBRANCH  11  12
ENDBRANCH  10  11
ENDBRANCH   8   9
ENDBRANCH   7   8
ENDBRANCH   5   6
ENDBRANCH   4   5
ENDBRANCH   2   3
TORSDOF 13
ENDMDL
MODEL      477
REMARK 921   NORMALIZED FREE ENERGY PREDICTED BY IDOCK:   -1.79 KCAL/MOL
REMARK 922        TOTAL FREE ENERGY PREDICTED BY IDOCK:   -5.93 KCAL/MOL
REMARK 923 INTER-LIGAND FREE ENERGY PREDICTED BY IDOCK:   -5.21 KCAL/MOL
REMARK 924 INTRA-LIGAND FREE ENERGY PREDICTED BY IDOCK:   -0.72 KCAL/MOL
REMARK 927      BINDING AFFINITY PREDICTED BY RF-SCORE:    0.00 PKD
ROOT
HETATM    1  C   UNL     1     -10.232  17.285  65.254  1.00  0.00     0.285 C  
HETATM    2  C   UNL     1     -10.509  15.850  65.669  1.00  0.00    -0.411 C  
ENDROOT
BRANCH   2   3
HETATM    3  C   UNL     1      -9.296  15.170  66.237  1.00  0.00    -0.348 C  
HETATM    4  C   UNL     1      -9.300  14.303  67.265  1.00  0.00    -0.215 C  
BRANCH   4   5
HETATM    5  C   UNL     1     -10.501  13.930  68.087  1.00  0.00    -0.246 C  
BRANCH   5   6
HETATM    6  C   UNL     1     -11.561  13.256  67.259  1.00  0.00    -0.404 C  
HETATM    7  C   UNL     1     -11.471  12.040  66.691  1.00  0.00    -0.411 C  
BRANCH   7   8
HETATM    8  C   UNL     1     -10.263  11.153  66.765  1.00  0.00    -0.272 C  
BRANCH   8   9
HETATM    9  C   UNL     1     -10.168  10.213  65.600  1.00  0.00    -0.288 C  
HETATM   10  C   UNL     1      -9.503   9.046  65.564  1.00  0.00    -0.220 C  
BRANCH  10  11
HETATM   11  C   UNL     1      -8.771   8.385  66.700  1.00  0.00    -0.144 C  
BRANCH  11  12
HETATM   12  C   UNL     1      -9.641   8.137  67.902  1.00  0.00    -0.179 C  
HETATM   13  C   UNL     1     -10.534   7.147  68.056  1.00  0.00    -0.251 C  
BRANCH  13  14
HETATM   14  C   UNL     1     -10.890   6.135  67.019  1.00  0.00    -0.435 C  
BRANCH  14  15
HETATM   15  C   UNL     1      -9.689   5.532  66.346  1.00  0.00    -0.182 C  
HETATM   16  C   UNL     1      -9.122   4.379  66.744  1.00  0.00    -0.133 C  
BRANCH  16  17
HETATM   17  C   UNL     1      -9.573   3.588  67.935  1.00  0.00    -0.177 C  
BRANCH  17  18
HETATM   18  C   UNL     1      -8.631   3.687  69.103  1.00  0.00    -0.114 C  
HETATM   19  C   UNL     1      -9.034   4.058  70.333  1.00  0.00    -0.157 C  
BRANCH  19  20
HETATM   20  C   UNL     1     -10.472   4.389  70.628  1.00  0.00     0.234 C  
BRANCH  20  21
HETATM   21  C   UNL     1     -10.762   5.871  70.832  1.00  0.00    -0.338 C  
HETATM   22  C   UNL     1     -11.221   6.089  72.258  1.00  0.00    -0.293 C  
HETATM   23  O   UNL     1     -11.998   7.190  72.401  1.00  0.00    -0.239 OA 
HETATM   24  O   UNL     1     -10.920   5.387  73.207  1.00  0.00    -0.270 OA 
ENDBRANCH  20  21
ENDBRANCH  19  20
ENDBRANCH  17  18
ENDBRANCH  16  17
ENDBRANCH  14  15
ENDBRANCH  13  14
ENDBRANCH  11  12
ENDBRANCH  10  11
ENDBRANCH   8   9
ENDBRANCH   7   8
ENDBRANCH   5   6
ENDBRANCH   4   5
ENDBRANCH   2   3
TORSDOF 13
ENDMDL
MODEL      478
REMARK 921   NORMALIZED FREE ENERGY PREDICTED BY IDOCK:   -1.78 KCAL/MOL
REMARK 922        TOTAL FREE ENERGY PREDICTED BY IDOCK:   -5.91 KCAL/MOL
REMARK 923 INTER-LIGAND FREE ENERGY PREDICTED BY IDOCK:   -5.53 KCAL/MOL
REMARK 924 INTRA-LIGAND FREE ENERGY PREDICTED BY IDOCK:   -0.38 KCAL/MOL
REMARK 927      BINDING AFFINITY PREDICTED BY RF-SCORE:    0.00 PKD
ROOT
HETATM    1  C   UNL     1      -5.506   5.225  66.195  1.00  0.00    -0.013 C  
HETATM    2  C   UNL     1      -6.756   5.380  65.343  1.00  0.00    -0.041 C  
ENDROOT
BRANCH   2   3
HETATM    3  C   UNL     1      -6.467   5.992  64.002  1.00  0.00    -0.030 C  
HETATM    4  C   UNL     1      -6.931   7.177  63.571  1.00  0.00    -0.061 C  
BRANCH   4   5
HETATM    5  C   UNL     1      -7.896   8.058  64.314  1.00  0.00    -0.137 C  
BRANCH   5   6
HETATM    6  C   UNL     1      -7.622   8.068  65.793  1.00  0.00    -0.083 C  
HETATM    7  C   UNL     1      -7.711   9.132  66.611  1.00  0.00    -0.097 C  
BRANCH   7   8
HETATM    8  C   UNL     1      -8.073  10.518  66.166  1.00  0.00    -0.145 C  
BRANCH   8   9
HETATM    9  C   UNL     1      -9.339  10.553  65.362  1.00  0.00    -0.255 C  
HETATM   10  C   UNL     1     -10.591  10.634  65.842  1.00  0.00    -0.178 C  
BRANCH  10  11
HETATM   11  C   UNL     1     -11.002  10.785  67.282  1.00  0.00    -0.359 C  
BRANCH  11  12
HETATM   12  C   UNL     1     -10.070  11.658  68.076  1.00  0.00    -0.198 C  
HETATM   13  C   UNL     1      -9.977  12.995  68.016  1.00  0.00    -0.233 C  
BRANCH  13  14
HETATM   14  C   UNL     1     -10.740  13.874  67.082  1.00  0.00    -0.282 C  
BRANCH  14  15
HETATM   15  C   UNL     1      -9.884  14.468  65.998  1.00  0.00    -0.342 C  
HETATM   16  C   UNL     1      -9.011  15.467  66.214  1.00  0.00    -0.362 C  
BRANCH  16  17
HETATM   17  C   UNL     1      -8.827  16.152  67.535  1.00  0.00    -0.198 C  
BRANCH  17  18
HETATM   18  C   UNL     1      -9.918  17.138  67.850  1.00  0.00    -0.292 C  
HETATM   19  C   UNL     1     -10.679  17.051  68.955  1.00  0.00    -0.271 C  
BRANCH  19  20
HETATM   20  C   UNL     1     -10.479  15.958  69.970  1.00  0.00    -0.295 C  
BRANCH  20  21
HETATM   21  C   UNL     1     -11.417  16.013  71.170  1.00  0.00    -0.470 C  
HETATM   22  C   UNL     1     -12.726  15.349  70.801  1.00  0.00    -0.459 C  
HETATM   23  O   UNL     1     -13.772  15.800  71.535  1.00  0.00    -0.496 OA 
HETATM   24  O   UNL     1     -12.858  14.478  69.960  1.00  0.00    -0.233 OA 
ENDBRANCH  20  21
ENDBRANCH  19  20
ENDBRANCH  17  18
ENDBRANCH  16  17
ENDBRANCH  14  15
ENDBRANCH  13  14
ENDBRANCH  11  12
ENDBRANCH  10  11
ENDBRANCH   8   9
ENDBRANCH   7   8
ENDBRANCH   5   6
ENDBRANCH   4   5
ENDBRANCH   2   3
TORSDOF 13
ENDMDL
MODEL      479
REMARK 921   NORMALIZED FREE ENERGY PREDICTED BY IDOCK:   -1.77 KCAL/MOL
REMARK 922        TOTAL FREE ENERGY PREDICTED BY IDOCK:   -5.89 KCAL/MOL
REMARK 923 INTER-LIGAND FREE ENERGY PREDICTED BY IDOCK:   -4.28 KCAL/MOL
REMARK 924 INTRA-LIGAND FREE ENERGY PREDICTED BY IDOCK:   -1.61 KCAL/MOL
REMARK 927      BINDING AFFINITY PREDICTED BY RF-SCORE:    0.00 PKD
ROOT
HETATM    1  C   UNL     1      -7.649  13.422  67.479  1.00  0.00    -0.176 C  
HETATM    2  C   UNL     1      -8.710  13.273  66.402  1.00  0.00     0.198 C  
ENDROOT
BRANCH   2   3
HETATM    3  C   UNL     1     -10.040  13.835  66.821  1.00  0.00    -0.265 C  
HETATM    4  C   UNL     1     -11.032  13.136  67.399  1.00  0.00    -0.283 C  
BRANCH   4   5
HETATM    5  C   UNL     1     -11.027  11.654  67.645  1.00  0.00    -0.294 C  
BRANCH   5   6
HETATM    6  C   UNL     1     -10.278  11.294  68.899  1.00  0.00    -0.195 C  
HETATM    7  C   UNL     1     -10.820  11.048  70.105  1.00  0.00     0.046 C  
BRANCH   7   8
HETATM    8  C   UNL     1     -12.287  11.124  70.409  1.00  0.00    -0.430 C  
BRANCH   8   9
HETATM    9  C   UNL     1     -12.618  10.609  71.780  1.00  0.00    -0.411 C  
HETATM   10  C   UNL     1     -12.715   9.320  72.150  1.00  0.00    -0.465 C  
BRANCH  10  11
HETATM   11  C   UNL     1     -12.444   8.110  71.298  1.00  0.00    -0.269 C  
BRANCH  11  12
HETATM   12  C   UNL     1     -12.196   6.863  72.102  1.00  0.00    -0.253 C  
HETATM   13  C   UNL     1     -11.002   6.331  72.409  1.00  0.00    -0.291 C  
BRANCH  13  14
HETATM   14  C   UNL     1      -9.680   6.844  71.943  1.00  0.00    -0.166 C  
BRANCH  14  15
HETATM   15  C   UNL     1      -8.522   6.016  72.425  1.00  0.00    -0.116 C  
HETATM   16  C   UNL     1      -7.591   5.502  71.604  1.00  0.00    -0.098 C  
BRANCH  16  17
HETATM   17  C   UNL     1      -7.621   5.635  70.111  1.00  0.00    -0.085 C  
BRANCH  17  18
HETATM   18  C   UNL     1      -6.588   6.588  69.579  1.00  0.00    -0.048 C  
HETATM   19  C   UNL     1      -6.731   7.239  68.410  1.00  0.00    -0.054 C  
BRANCH  19  20
HETATM   20  C   UNL     1      -7.957   7.065  67.553  1.00  0.00    -0.113 C  
BRANCH  20  21
HETATM   21  C   UNL     1      -7.725   6.329  66.240  1.00  0.00    -0.099 C  
HETATM   22  C   UNL     1      -8.843   5.331  66.032  1.00  0.00    -0.141 C  
HETATM   23  O   UNL     1      -8.482   4.289  65.243  1.00  0.00    -0.112 OA 
HETATM   24  O   UNL     1      -9.968   5.434  66.486  1.00  0.00    -0.163 OA 
ENDBRANCH  20  21
ENDBRANCH  19  20
ENDBRANCH  17  18
ENDBRANCH  16  17
ENDBRANCH  14  15
ENDBRANCH  13  14
ENDBRANCH  11  12
ENDBRANCH  10  11
ENDBRANCH   8   9
ENDBRANCH   7   8
ENDBRANCH   5   6
ENDBRANCH   4   5
ENDBRANCH   2   3
TORSDOF 13
ENDMDL
MODEL      480
REMARK 921   NORMALIZED FREE ENERGY PREDICTED BY IDOCK:   -1.74 KCAL/MOL
REMARK 922        TOTAL FREE ENERGY PREDICTED BY IDOCK:   -5.83 KCAL/MOL
REMARK 923 INTER-LIGAND FREE ENERGY PREDICTED BY IDOCK:   -4.66 KCAL/MOL
REMARK 924 INTRA-LIGAND FREE ENERGY PREDICTED BY IDOCK:   -1.17 KCAL/MOL
REMARK 927      BINDING AFFINITY PREDICTED BY RF-SCORE:    0.00 PKD
ROOT
HETATM    1  C   UNL     1      -6.877  16.545  68.881  1.00  0.00    -0.186 C  
HETATM    2  C   UNL     1      -7.566  15.262  69.315  1.00  0.00    -0.213 C  
ENDROOT
BRANCH   2   3
HETATM    3  C   UNL     1      -6.712  14.430  70.229  1.00  0.00    -0.005 C  
HETATM    4  C   UNL     1      -6.124  13.267  69.899  1.00  0.00    -0.125 C  
BRANCH   4   5
HETATM    5  C   UNL     1      -6.292  12.544  68.592  1.00  0.00    -0.073 C  
BRANCH   5   6
HETATM    6  C   UNL     1      -7.671  11.962  68.446  1.00  0.00    -0.131 C  
HETATM    7  C   UNL     1      -8.169  10.917  69.129  1.00  0.00    -0.090 C  
BRANCH   7   8
HETATM    8  C   UNL     1      -7.404  10.124  70.148  1.00  0.00    -0.157 C  
BRANCH   8   9
HETATM    9  C   UNL     1      -6.387   9.215  69.525  1.00  0.00    -0.043 C  
HETATM   10  C   UNL     1      -6.632   8.066  68.872  1.00  0.00    -0.049 C  
BRANCH  10  11
HETATM   11  C   UNL     1      -7.979   7.473  68.556  1.00  0.00    -0.123 C  
BRANCH  11  12
HETATM   12  C   UNL     1      -8.379   7.643  67.116  1.00  0.00    -0.121 C  
HETATM   13  C   UNL     1      -9.622   7.828  66.645  1.00  0.00    -0.286 C  
BRANCH  13  14
HETATM   14  C   UNL     1     -10.868   7.824  67.467  1.00  0.00    -0.182 C  
BRANCH  14  15
HETATM   15  C   UNL     1     -10.751   8.647  68.720  1.00  0.00    -0.098 C  
HETATM   16  C   UNL     1     -11.128   9.935  68.793  1.00  0.00    -0.179 C  
BRANCH  16  17
HETATM   17  C   UNL     1     -11.651  10.725  67.631  1.00  0.00    -0.087 C  
BRANCH  17  18
HETATM   18  C   UNL     1     -11.194  12.158  67.635  1.00  0.00    -0.345 C  
HETATM   19  C   UNL     1     -10.584  12.730  66.582  1.00  0.00    -0.272 C  
BRANCH  19  20
HETATM   20  C   UNL     1     -10.326  11.970  65.309  1.00  0.00    -0.311 C  
BRANCH  20  21
HETATM   21  C   UNL     1     -10.642  12.732  64.028  1.00  0.00    -0.446 C  
HETATM   22  C   UNL     1     -12.132  12.990  63.966  1.00  0.00    -0.450 C  
HETATM   23  O   UNL     1     -12.589  13.148  62.700  1.00  0.00     0.020 OA 
HETATM   24  O   UNL     1     -12.869  13.082  64.931  1.00  0.00    -0.706 OA 
ENDBRANCH  20  21
ENDBRANCH  19  20
ENDBRANCH  17  18
ENDBRANCH  16  17
ENDBRANCH  14  15
ENDBRANCH  13  14
ENDBRANCH  11  12
ENDBRANCH  10  11
ENDBRANCH   8   9
ENDBRANCH   7   8
ENDBRANCH   5   6
ENDBRANCH   4   5
ENDBRANCH   2   3
TORSDOF 13
ENDMDL
MODEL      481
REMARK 921   NORMALIZED FREE ENERGY PREDICTED BY IDOCK:   -1.73 KCAL/MOL
REMARK 922        TOTAL FREE ENERGY PREDICTED BY IDOCK:   -5.82 KCAL/MOL
REMARK 923 INTER-LIGAND FREE ENERGY PREDICTED BY IDOCK:   -4.65 KCAL/MOL
REMARK 924 INTRA-LIGAND FREE ENERGY PREDICTED BY IDOCK:   -1.17 KCAL/MOL
REMARK 927      BINDING AFFINITY PREDICTED BY RF-SCORE:    0.00 PKD
ROOT
HETATM    1  C   UNL     1     -10.785   3.293  73.458  1.00  0.00    -0.306 C  
HETATM    2  C   UNL     1     -11.212   4.739  73.270  1.00  0.00    -0.421 C  
ENDROOT
BRANCH   2   3
HETATM    3  C   UNL     1     -10.766   5.305  71.951  1.00  0.00    -0.252 C  
HETATM    4  C   UNL     1      -9.697   6.099  71.767  1.00  0.00    -0.171 C  
BRANCH   4   5
HETATM    5  C   UNL     1      -8.813   6.638  72.856  1.00  0.00    -0.134 C  
BRANCH   5   6
HETATM    6  C   UNL     1      -7.777   5.636  73.286  1.00  0.00    -0.099 C  
HETATM    7  C   UNL     1      -6.575   5.442  72.715  1.00  0.00    -0.070 C  
BRANCH   7   8
HETATM    8  C   UNL     1      -6.074   6.185  71.512  1.00  0.00    -0.040 C  
BRANCH   8   9
HETATM    9  C   UNL     1      -5.639   7.583  71.840  1.00  0.00    -0.036 C  
HETATM   10  C   UNL     1      -5.227   8.519  70.968  1.00  0.00    -0.028 C  
BRANCH  10  11
HETATM   11  C   UNL     1      -5.181   8.404  69.468  1.00  0.00    -0.030 C  
BRANCH  11  12
HETATM   12  C   UNL     1      -5.322   9.727  68.767  1.00  0.00    -0.036 C  
HETATM   13  C   UNL     1      -6.345  10.120  67.993  1.00  0.00    -0.057 C  
BRANCH  13  14
HETATM   14  C   UNL     1      -7.518   9.278  67.617  1.00  0.00    -0.088 C  
BRANCH  14  15
HETATM   15  C   UNL     1      -7.212   8.294  66.522  1.00  0.00    -0.076 C  
HETATM   16  C   UNL     1      -7.730   8.383  65.285  1.00  0.00    -0.098 C  
BRANCH  16  17
HETATM   17  C   UNL     1      -8.718   9.428  64.861  1.00  0.00    -0.220 C  
BRANCH  17  18
HETATM   18  C   UNL     1     -10.026   9.342  65.598  1.00  0.00    -0.130 C  
HETATM   19  C   UNL     1     -10.780  10.422  65.871  1.00  0.00    -0.023 C  
BRANCH  19  20
HETATM   20  C   UNL     1     -10.367  11.804  65.440  1.00  0.00    -0.311 C  
BRANCH  20  21
HETATM   21  C   UNL     1     -10.919  12.249  64.091  1.00  0.00    -0.415 C  
HETATM   22  C   UNL     1     -12.414  12.444  64.212  1.00  0.00    -0.437 C  
HETATM   23  O   UNL     1     -13.064  12.299  63.032  1.00  0.00    -0.476 OA 
HETATM   24  O   UNL     1     -13.003  12.730  65.239  1.00  0.00    -0.690 OA 
ENDBRANCH  20  21
ENDBRANCH  19  20
ENDBRANCH  17  18
ENDBRANCH  16  17
ENDBRANCH  14  15
ENDBRANCH  13  14
ENDBRANCH  11  12
ENDBRANCH  10  11
ENDBRANCH   8   9
ENDBRANCH   7   8
ENDBRANCH   5   6
ENDBRANCH   4   5
ENDBRANCH   2   3
TORSDOF 13
ENDMDL
MODEL      482
REMARK 921   NORMALIZED FREE ENERGY PREDICTED BY IDOCK:   -1.66 KCAL/MOL
REMARK 922        TOTAL FREE ENERGY PREDICTED BY IDOCK:   -5.70 KCAL/MOL
REMARK 923 INTER-LIGAND FREE ENERGY PREDICTED BY IDOCK:   -4.63 KCAL/MOL
REMARK 924 INTRA-LIGAND FREE ENERGY PREDICTED BY IDOCK:   -1.06 KCAL/MOL
REMARK 927      BINDING AFFINITY PREDICTED BY RF-SCORE:    0.00 PKD
ROOT
HETATM    1  C   UNL     1     -12.672  13.692  65.479  1.00  0.00    -0.514 C  
HETATM    2  C   UNL     1     -11.789  12.489  65.767  1.00  0.00    -0.494 C  
ENDROOT
BRANCH   2   3
HETATM    3  C   UNL     1     -11.721  12.161  67.231  1.00  0.00    -0.369 C  
HETATM    4  C   UNL     1     -10.979  12.814  68.142  1.00  0.00    -0.273 C  
BRANCH   4   5
HETATM    5  C   UNL     1     -10.014  13.928  67.845  1.00  0.00    -0.242 C  
BRANCH   5   6
HETATM    6  C   UNL     1      -8.877  13.468  66.973  1.00  0.00    -0.219 C  
HETATM    7  C   UNL     1      -7.955  12.543  67.293  1.00  0.00    -0.173 C  
BRANCH   7   8
HETATM    8  C   UNL     1      -7.889  11.827  68.610  1.00  0.00    -0.117 C  
BRANCH   8   9
HETATM    9  C   UNL     1      -6.481  11.514  69.025  1.00  0.00    -0.076 C  
HETATM   10  C   UNL     1      -6.035  10.354  69.536  1.00  0.00    -0.044 C  
BRANCH  10  11
HETATM   11  C   UNL     1      -6.826   9.090  69.738  1.00  0.00    -0.050 C  
BRANCH  11  12
HETATM   12  C   UNL     1      -7.042   8.316  68.467  1.00  0.00    -0.077 C  
HETATM   13  C   UNL     1      -8.177   8.246  67.753  1.00  0.00    -0.127 C  
BRANCH  13  14
HETATM   14  C   UNL     1      -9.477   8.872  68.133  1.00  0.00    -0.155 C  
BRANCH  14  15
HETATM   15  C   UNL     1     -10.617   8.444  67.252  1.00  0.00    -0.328 C  
HETATM   16  C   UNL     1     -10.892   7.158  66.974  1.00  0.00    -0.382 C  
BRANCH  16  17
HETATM   17  C   UNL     1     -10.066   6.000  67.452  1.00  0.00    -0.196 C  
BRANCH  17  18
HETATM   18  C   UNL     1     -10.020   4.860  66.472  1.00  0.00    -0.256 C  
HETATM   19  C   UNL     1      -9.504   3.657  66.780  1.00  0.00    -0.203 C  
BRANCH  19  20
HETATM   20  C   UNL     1      -8.945   3.363  68.146  1.00  0.00    -0.182 C  
BRANCH  20  21
HETATM   21  C   UNL     1      -7.458   3.028  68.175  1.00  0.00    -0.053 C  
HETATM   22  C   UNL     1      -7.128   2.372  69.499  1.00  0.00    -0.040 C  
HETATM   23  O   UNL     1      -5.831   2.529  69.857  1.00  0.00    -0.021 OA 
HETATM   24  O   UNL     1      -7.912   1.739  70.183  1.00  0.00    -0.042 OA 
ENDBRANCH  20  21
ENDBRANCH  19  20
ENDBRANCH  17  18
ENDBRANCH  16  17
ENDBRANCH  14  15
ENDBRANCH  13  14
ENDBRANCH  11  12
ENDBRANCH  10  11
ENDBRANCH   8   9
ENDBRANCH   7   8
ENDBRANCH   5   6
ENDBRANCH   4   5
ENDBRANCH   2   3
TORSDOF 13
ENDMDL
MODEL      483
REMARK 921   NORMALIZED FREE ENERGY PREDICTED BY IDOCK:   -1.65 KCAL/MOL
REMARK 922        TOTAL FREE ENERGY PREDICTED BY IDOCK:   -5.68 KCAL/MOL
REMARK 923 INTER-LIGAND FREE ENERGY PREDICTED BY IDOCK:   -4.48 KCAL/MOL
REMARK 924 INTRA-LIGAND FREE ENERGY PREDICTED BY IDOCK:   -1.20 KCAL/MOL
REMARK 927      BINDING AFFINITY PREDICTED BY RF-SCORE:    0.00 PKD
ROOT
HETATM    1  C   UNL     1      -6.743   4.769  69.580  1.00  0.00    -0.044 C  
HETATM    2  C   UNL     1      -5.764   5.740  70.220  1.00  0.00    -0.016 C  
ENDROOT
BRANCH   2   3
HETATM    3  C   UNL     1      -6.055   5.975  71.675  1.00  0.00    -0.036 C  
HETATM    4  C   UNL     1      -7.018   6.781  72.156  1.00  0.00    -0.067 C  
BRANCH   4   5
HETATM    5  C   UNL     1      -7.913   7.660  71.328  1.00  0.00    -0.094 C  
BRANCH   5   6
HETATM    6  C   UNL     1      -7.319   9.025  71.117  1.00  0.00    -0.115 C  
HETATM    7  C   UNL     1      -6.960   9.561  69.937  1.00  0.00    -0.078 C  
BRANCH   7   8
HETATM    8  C   UNL     1      -7.065   8.858  68.616  1.00  0.00    -0.071 C  
BRANCH   8   9
HETATM    9  C   UNL     1      -8.427   8.991  68.000  1.00  0.00    -0.125 C  
HETATM   10  C   UNL     1      -8.894  10.045  67.308  1.00  0.00    -0.141 C  
BRANCH  10  11
HETATM   11  C   UNL     1      -8.137  11.289  66.932  1.00  0.00    -0.155 C  
BRANCH  11  12
HETATM   12  C   UNL     1      -8.113  12.322  68.025  1.00  0.00    -0.156 C  
HETATM   13  C   UNL     1      -9.011  13.300  68.225  1.00  0.00    -0.176 C  
BRANCH  13  14
HETATM   14  C   UNL     1     -10.177  13.597  67.343  1.00  0.00    -0.241 C  
BRANCH  14  15
HETATM   15  C   UNL     1     -11.384  12.757  67.658  1.00  0.00    -0.359 C  
HETATM   16  C   UNL     1     -12.128  12.924  68.765  1.00  0.00    -0.175 C  
BRANCH  16  17
HETATM   17  C   UNL     1     -11.817  13.915  69.846  1.00  0.00    -0.394 C  
BRANCH  17  18
HETATM   18  C   UNL     1     -12.986  14.194  70.750  1.00  0.00    -0.337 C  
HETATM   19  C   UNL     1     -13.388  13.336  71.705  1.00  0.00    -0.406 C  
BRANCH  19  20
HETATM   20  C   UNL     1     -12.678  12.030  71.944  1.00  0.00    -0.208 C  
BRANCH  20  21
HETATM   21  C   UNL     1     -12.873  10.982  70.856  1.00  0.00    -0.393 C  
HETATM   22  C   UNL     1     -11.741   9.980  70.931  1.00  0.00    -0.374 C  
HETATM   23  O   UNL     1     -11.500   9.365  69.748  1.00  0.00    -0.119 OA 
HETATM   24  O   UNL     1     -11.111   9.708  71.937  1.00  0.00    -0.201 OA 
ENDBRANCH  20  21
ENDBRANCH  19  20
ENDBRANCH  17  18
ENDBRANCH  16  17
ENDBRANCH  14  15
ENDBRANCH  13  14
ENDBRANCH  11  12
ENDBRANCH  10  11
ENDBRANCH   8   9
ENDBRANCH   7   8
ENDBRANCH   5   6
ENDBRANCH   4   5
ENDBRANCH   2   3
TORSDOF 13
ENDMDL
MODEL      484
REMARK 921   NORMALIZED FREE ENERGY PREDICTED BY IDOCK:   -1.59 KCAL/MOL
REMARK 922        TOTAL FREE ENERGY PREDICTED BY IDOCK:   -5.58 KCAL/MOL
REMARK 923 INTER-LIGAND FREE ENERGY PREDICTED BY IDOCK:   -5.40 KCAL/MOL
REMARK 924 INTRA-LIGAND FREE ENERGY PREDICTED BY IDOCK:   -0.18 KCAL/MOL
REMARK 927      BINDING AFFINITY PREDICTED BY RF-SCORE:    0.00 PKD
ROOT
HETATM    1  C   UNL     1     -14.327   8.070  71.513  1.00  0.00    -0.546 C  
HETATM    2  C   UNL     1     -13.895   9.399  72.110  1.00  0.00    -0.433 C  
ENDROOT
BRANCH   2   3
HETATM    3  C   UNL     1     -13.045  10.205  71.169  1.00  0.00    -0.480 C  
HETATM    4  C   UNL     1     -12.633  11.467  71.379  1.00  0.00    -0.439 C  
BRANCH   4   5
HETATM    5  C   UNL     1     -13.025  12.329  72.546  1.00  0.00     0.464 C  
BRANCH   5   6
HETATM    6  C   UNL     1     -13.345  13.736  72.122  1.00  0.00    -0.569 C  
HETATM    7  C   UNL     1     -12.688  14.455  71.194  1.00  0.00    -0.422 C  
BRANCH   7   8
HETATM    8  C   UNL     1     -11.485  13.973  70.439  1.00  0.00    -0.107 C  
BRANCH   8   9
HETATM    9  C   UNL     1     -11.846  13.325  69.135  1.00  0.00    -0.378 C  
HETATM   10  C   UNL     1     -11.100  12.448  68.442  1.00  0.00    -0.288 C  
BRANCH  10  11
HETATM   11  C   UNL     1      -9.776  11.863  68.851  1.00  0.00     0.041 C  
BRANCH  11  12
HETATM   12  C   UNL     1      -8.788  11.782  67.719  1.00  0.00    -0.163 C  
HETATM   13  C   UNL     1      -8.444  12.774  66.882  1.00  0.00    -0.106 C  
BRANCH  13  14
HETATM   14  C   UNL     1      -9.042  14.142  66.870  1.00  0.00    -0.260 C  
BRANCH  14  15
HETATM   15  C   UNL     1     -10.179  14.280  65.897  1.00  0.00    -0.338 C  
HETATM   16  C   UNL     1     -10.738  15.460  65.580  1.00  0.00    -0.397 C  
BRANCH  16  17
HETATM   17  C   UNL     1     -10.344  16.769  66.195  1.00  0.00    -0.338 C  
BRANCH  17  18
HETATM   18  C   UNL     1     -10.693  17.956  65.341  1.00  0.00     0.121 C  
HETATM   19  C   UNL     1     -10.298  19.208  65.637  1.00  0.00    -0.193 C  
BRANCH  19  20
HETATM   20  C   UNL     1      -9.458  19.506  66.850  1.00  0.00    -0.429 C  
BRANCH  20  21
HETATM   21  C   UNL     1     -10.244  19.779  68.126  1.00  0.00    -0.577 C  
HETATM   22  C   UNL     1      -9.353  19.511  69.319  1.00  0.00    -0.093 C  
HETATM   23  O   UNL     1     -10.048  19.191  70.437  1.00  0.00     0.776 OA 
HETATM   24  O   UNL     1      -8.138  19.593  69.319  1.00  0.00    -0.244 OA 
ENDBRANCH  20  21
ENDBRANCH  19  20
ENDBRANCH  17  18
ENDBRANCH  16  17
ENDBRANCH  14  15
ENDBRANCH  13  14
ENDBRANCH  11  12
ENDBRANCH  10  11
ENDBRANCH   8   9
ENDBRANCH   7   8
ENDBRANCH   5   6
ENDBRANCH   4   5
ENDBRANCH   2   3
TORSDOF 13
ENDMDL
MODEL      485
REMARK 921   NORMALIZED FREE ENERGY PREDICTED BY IDOCK:   -1.43 KCAL/MOL
REMARK 922        TOTAL FREE ENERGY PREDICTED BY IDOCK:   -5.29 KCAL/MOL
REMARK 923 INTER-LIGAND FREE ENERGY PREDICTED BY IDOCK:   -4.40 KCAL/MOL
REMARK 924 INTRA-LIGAND FREE ENERGY PREDICTED BY IDOCK:   -0.89 KCAL/MOL
REMARK 927      BINDING AFFINITY PREDICTED BY RF-SCORE:    0.00 PKD
ROOT
HETATM    1  C   UNL     1      -6.658   4.726  69.614  1.00  0.00    -0.036 C  
HETATM    2  C   UNL     1      -5.447   5.573  69.969  1.00  0.00    -0.004 C  
ENDROOT
BRANCH   2   3
HETATM    3  C   UNL     1      -5.436   5.987  71.413  1.00  0.00    -0.021 C  
HETATM    4  C   UNL     1      -6.238   6.915  71.963  1.00  0.00    -0.041 C  
BRANCH   4   5
HETATM    5  C   UNL     1      -7.222   7.770  71.216  1.00  0.00    -0.062 C  
BRANCH   5   6
HETATM    6  C   UNL     1      -6.555   8.942  70.549  1.00  0.00    -0.049 C  
HETATM    7  C   UNL     1      -6.334   9.085  69.231  1.00  0.00    -0.042 C  
BRANCH   7   8
HETATM    8  C   UNL     1      -6.696   8.065  68.191  1.00  0.00    -0.064 C  
BRANCH   8   9
HETATM    9  C   UNL     1      -8.153   8.098  67.835  1.00  0.00    -0.128 C  
HETATM   10  C   UNL     1      -8.741   8.912  66.942  1.00  0.00    -0.128 C  
BRANCH  10  11
HETATM   11  C   UNL     1      -8.065   9.917  66.048  1.00  0.00    -0.120 C  
BRANCH  11  12
HETATM   12  C   UNL     1      -7.944  11.280  66.674  1.00  0.00    -0.159 C  
HETATM   13  C   UNL     1      -8.865  12.255  66.656  1.00  0.00    -0.167 C  
BRANCH  13  14
HETATM   14  C   UNL     1     -10.172  12.198  65.938  1.00  0.00    -0.272 C  
BRANCH  14  15
HETATM   15  C   UNL     1     -11.196  11.354  66.645  1.00  0.00    -0.298 C  
HETATM   16  C   UNL     1     -11.718  11.675  67.842  1.00  0.00    -0.329 C  
BRANCH  16  17
HETATM   17  C   UNL     1     -11.303  12.871  68.645  1.00  0.00    -0.327 C  
BRANCH  17  18
HETATM   18  C   UNL     1     -12.096  13.039  69.912  1.00  0.00    -0.347 C  
HETATM   19  C   UNL     1     -12.416  14.244  70.416  1.00  0.00    -0.426 C  
BRANCH  19  20
HETATM   20  C   UNL     1     -12.009  15.521  69.730  1.00  0.00    -0.384 C  
BRANCH  20  21
HETATM   21  C   UNL     1     -10.537  15.604  69.345  1.00  0.00    -0.253 C  
HETATM   22  C   UNL     1     -10.375  16.626  68.241  1.00  0.00    -0.304 C  
HETATM   23  O   UNL     1      -9.283  16.404  67.470  1.00  0.00    -0.198 OA 
HETATM   24  O   UNL     1     -11.112  17.577  68.052  1.00  0.00    -0.241 OA 
ENDBRANCH  20  21
ENDBRANCH  19  20
ENDBRANCH  17  18
ENDBRANCH  16  17
ENDBRANCH  14  15
ENDBRANCH  13  14
ENDBRANCH  11  12
ENDBRANCH  10  11
ENDBRANCH   8   9
ENDBRANCH   7   8
ENDBRANCH   5   6
ENDBRANCH   4   5
ENDBRANCH   2   3
TORSDOF 13
ENDMDL
MODEL      486
REMARK 921   NORMALIZED FREE ENERGY PREDICTED BY IDOCK:   -1.37 KCAL/MOL
REMARK 922        TOTAL FREE ENERGY PREDICTED BY IDOCK:   -5.19 KCAL/MOL
REMARK 923 INTER-LIGAND FREE ENERGY PREDICTED BY IDOCK:   -4.41 KCAL/MOL
REMARK 924 INTRA-LIGAND FREE ENERGY PREDICTED BY IDOCK:   -0.79 KCAL/MOL
REMARK 927      BINDING AFFINITY PREDICTED BY RF-SCORE:    0.00 PKD
ROOT
HETATM    1  C   UNL     1      -6.282  10.094  69.667  1.00  0.00    -0.052 C  
HETATM    2  C   UNL     1      -6.909   9.332  68.512  1.00  0.00    -0.062 C  
ENDROOT
BRANCH   2   3
HETATM    3  C   UNL     1      -6.399   9.789  67.175  1.00  0.00    -0.068 C  
HETATM    4  C   UNL     1      -6.933   9.463  65.985  1.00  0.00    -0.090 C  
BRANCH   4   5
HETATM    5  C   UNL     1      -8.076   8.511  65.774  1.00  0.00    -0.116 C  
BRANCH   5   6
HETATM    6  C   UNL     1      -8.487   8.438  64.328  1.00  0.00    -0.036 C  
HETATM    7  C   UNL     1      -8.894   9.468  63.565  1.00  0.00    -0.235 C  
BRANCH   7   8
HETATM    8  C   UNL     1      -9.040  10.880  64.049  1.00  0.00    -0.163 C  
BRANCH   8   9
HETATM    9  C   UNL     1     -10.035  11.007  65.165  1.00  0.00    -0.333 C  
HETATM   10  C   UNL     1      -9.935  11.804  66.242  1.00  0.00    -0.246 C  
BRANCH  10  11
HETATM   11  C   UNL     1      -8.845  12.800  66.534  1.00  0.00    -0.046 C  
BRANCH  11  12
HETATM   12  C   UNL     1      -8.595  12.991  68.005  1.00  0.00    -0.186 C  
HETATM   13  C   UNL     1      -7.417  13.255  68.591  1.00  0.00    -0.099 C  
BRANCH  13  14
HETATM   14  C   UNL     1      -6.101  13.334  67.891  1.00  0.00    -0.143 C  
BRANCH  14  15
HETATM   15  C   UNL     1      -5.211  14.419  68.430  1.00  0.00    -0.105 C  
HETATM   16  C   UNL     1      -5.475  15.729  68.287  1.00  0.00    -0.112 C  
BRANCH  16  17
HETATM   17  C   UNL     1      -6.648  16.271  67.525  1.00  0.00    -0.193 C  
BRANCH  17  18
HETATM   18  C   UNL     1      -6.250  17.157  66.376  1.00  0.00    -0.202 C  
HETATM   19  C   UNL     1      -6.750  18.395  66.206  1.00  0.00    -0.262 C  
BRANCH  19  20
HETATM   20  C   UNL     1      -7.740  18.988  67.171  1.00  0.00    -0.249 C  
BRANCH  20  21
HETATM   21  C   UNL     1      -8.673  17.983  67.836  1.00  0.00    -0.258 C  
HETATM   22  C   UNL     1      -9.896  17.797  66.965  1.00  0.00    -0.309 C  
HETATM   23  O   UNL     1     -10.985  17.392  67.662  1.00  0.00    -0.294 OA 
HETATM   24  O   UNL     1      -9.928  17.958  65.758  1.00  0.00    -0.551 OA 
ENDBRANCH  20  21
ENDBRANCH  19  20
ENDBRANCH  17  18
ENDBRANCH  16  17
ENDBRANCH  14  15
ENDBRANCH  13  14
ENDBRANCH  11  12
ENDBRANCH  10  11
ENDBRANCH   8   9
ENDBRANCH   7   8
ENDBRANCH   5   6
ENDBRANCH   4   5
ENDBRANCH   2   3
TORSDOF 13
ENDMDL
MODEL      487
REMARK 921   NORMALIZED FREE ENERGY PREDICTED BY IDOCK:   -1.19 KCAL/MOL
REMARK 922        TOTAL FREE ENERGY PREDICTED BY IDOCK:   -4.87 KCAL/MOL
REMARK 923 INTER-LIGAND FREE ENERGY PREDICTED BY IDOCK:   -4.47 KCAL/MOL
REMARK 924 INTRA-LIGAND FREE ENERGY PREDICTED BY IDOCK:   -0.40 KCAL/MOL
REMARK 927      BINDING AFFINITY PREDICTED BY RF-SCORE:    0.00 PKD
ROOT
HETATM    1  C   UNL     1     -10.753   3.255  73.463  1.00  0.00    -0.306 C  
HETATM    2  C   UNL     1     -11.263   4.671  73.252  1.00  0.00    -0.411 C  
ENDROOT
BRANCH   2   3
HETATM    3  C   UNL     1     -10.919   5.211  71.893  1.00  0.00    -0.112 C  
HETATM    4  C   UNL     1      -9.974   6.132  71.638  1.00  0.00    -0.203 C  
BRANCH   4   5
HETATM    5  C   UNL     1      -9.158   6.854  72.673  1.00  0.00    -0.150 C  
BRANCH   5   6
HETATM    6  C   UNL     1      -7.895   6.111  73.011  1.00  0.00    -0.104 C  
HETATM    7  C   UNL     1      -6.680   6.327  72.478  1.00  0.00    -0.069 C  
BRANCH   7   8
HETATM    8  C   UNL     1      -6.385   7.343  71.414  1.00  0.00    -0.036 C  
BRANCH   8   9
HETATM    9  C   UNL     1      -6.312   8.740  71.958  1.00  0.00    -0.069 C  
HETATM   10  C   UNL     1      -6.158   9.870  71.247  1.00  0.00     0.036 C  
BRANCH  10  11
HETATM   11  C   UNL     1      -6.102   9.997  69.749  1.00  0.00    -0.047 C  
BRANCH  11  12
HETATM   12  C   UNL     1      -6.485  11.365  69.254  1.00  0.00    -0.096 C  
HETATM   13  C   UNL     1      -7.578  11.685  68.544  1.00  0.00    -0.127 C  
BRANCH  13  14
HETATM   14  C   UNL     1      -8.596  10.716  68.040  1.00  0.00    -0.122 C  
BRANCH  14  15
HETATM   15  C   UNL     1      -8.134   9.951  66.832  1.00  0.00    -0.113 C  
HETATM   16  C   UNL     1      -8.696  10.081  65.617  1.00  0.00    -0.171 C  
BRANCH  16  17
HETATM   17  C   UNL     1      -9.883  10.951  65.330  1.00  0.00    -0.318 C  
BRANCH  17  18
HETATM   18  C   UNL     1     -10.720  11.234  66.547  1.00  0.00    -0.323 C  
HETATM   19  C   UNL     1     -11.387  12.390  66.718  1.00  0.00    -0.391 C  
BRANCH  19  20
HETATM   20  C   UNL     1     -11.352  13.484  65.685  1.00  0.00    -0.312 C  
BRANCH  20  21
HETATM   21  C   UNL     1     -11.303  14.899  66.247  1.00  0.00    -0.306 C  
HETATM   22  C   UNL     1      -9.993  15.091  66.980  1.00  0.00    -0.242 C  
HETATM   23  O   UNL     1     -10.060  16.044  67.941  1.00  0.00    -0.235 OA 
HETATM   24  O   UNL     1      -8.960  14.492  66.740  1.00  0.00    -0.246 OA 
ENDBRANCH  20  21
ENDBRANCH  19  20
ENDBRANCH  17  18
ENDBRANCH  16  17
ENDBRANCH  14  15
ENDBRANCH  13  14
ENDBRANCH  11  12
ENDBRANCH  10  11
ENDBRANCH   8   9
ENDBRANCH   7   8
ENDBRANCH   5   6
ENDBRANCH   4   5
ENDBRANCH   2   3
TORSDOF 13
ENDMDL
MODEL      488
REMARK 921   NORMALIZED FREE ENERGY PREDICTED BY IDOCK:   -1.06 KCAL/MOL
REMARK 922        TOTAL FREE ENERGY PREDICTED BY IDOCK:   -4.65 KCAL/MOL
REMARK 923 INTER-LIGAND FREE ENERGY PREDICTED BY IDOCK:   -3.65 KCAL/MOL
REMARK 924 INTRA-LIGAND FREE ENERGY PREDICTED BY IDOCK:   -1.00 KCAL/MOL
REMARK 927      BINDING AFFINITY PREDICTED BY RF-SCORE:    0.00 PKD
ROOT
HETATM    1  C   UNL     1     -12.305  13.567  65.916  1.00  0.00    -0.507 C  
HETATM    2  C   UNL     1     -10.825  13.603  65.574  1.00  0.00    -0.295 C  
ENDROOT
BRANCH   2   3
HETATM    3  C   UNL     1     -10.007  12.701  66.455  1.00  0.00    -0.256 C  
HETATM    4  C   UNL     1      -9.905  12.803  67.792  1.00  0.00    -0.220 C  
BRANCH   4   5
HETATM    5  C   UNL     1     -10.513  13.891  68.632  1.00  0.00    -0.249 C  
BRANCH   5   6
HETATM    6  C   UNL     1      -9.651  15.123  68.665  1.00  0.00    -0.213 C  
HETATM    7  C   UNL     1      -8.344  15.170  68.974  1.00  0.00    -0.209 C  
BRANCH   7   8
HETATM    8  C   UNL     1      -7.521  13.981  69.375  1.00  0.00     0.134 C  
BRANCH   8   9
HETATM    9  C   UNL     1      -6.516  13.598  68.328  1.00  0.00    -0.109 C  
HETATM   10  C   UNL     1      -5.910  12.405  68.198  1.00  0.00    -0.066 C  
BRANCH  10  11
HETATM   11  C   UNL     1      -6.155  11.169  69.020  1.00  0.00    -0.044 C  
BRANCH  11  12
HETATM   12  C   UNL     1      -5.131  10.092  68.792  1.00  0.00    -0.036 C  
HETATM   13  C   UNL     1      -5.372   8.797  68.532  1.00  0.00    -0.037 C  
BRANCH  13  14
HETATM   14  C   UNL     1      -6.722   8.160  68.494  1.00  0.00    -0.063 C  
BRANCH  14  15
HETATM   15  C   UNL     1      -6.856   7.129  67.409  1.00  0.00    -0.070 C  
HETATM   16  C   UNL     1      -7.557   5.991  67.556  1.00  0.00    -0.090 C  
BRANCH  16  17
HETATM   17  C   UNL     1      -8.234   5.580  68.829  1.00  0.00    -0.102 C  
BRANCH  17  18
HETATM   18  C   UNL     1      -9.709   5.870  68.837  1.00  0.00    -0.168 C  
HETATM   19  C   UNL     1     -10.444   5.874  69.964  1.00  0.00    -0.334 C  
BRANCH  19  20
HETATM   20  C   UNL     1      -9.829   5.598  71.310  1.00  0.00    -0.225 C  
BRANCH  20  21
HETATM   21  C   UNL     1     -10.549   4.545  72.143  1.00  0.00    -0.137 C  
HETATM   22  C   UNL     1      -9.789   3.239  72.048  1.00  0.00    -0.170 C  
HETATM   23  O   UNL     1     -10.573   2.155  72.264  1.00  0.00    -0.112 OA 
HETATM   24  O   UNL     1      -8.596   3.137  71.830  1.00  0.00    -0.071 OA 
ENDBRANCH  20  21
ENDBRANCH  19  20
ENDBRANCH  17  18
ENDBRANCH  16  17
ENDBRANCH  14  15
ENDBRANCH  13  14
ENDBRANCH  11  12
ENDBRANCH  10  11
ENDBRANCH   8   9
ENDBRANCH   7   8
ENDBRANCH   5   6
ENDBRANCH   4   5
ENDBRANCH   2   3
TORSDOF 13
ENDMDL
MODEL      489
REMARK 921   NORMALIZED FREE ENERGY PREDICTED BY IDOCK:   -0.96 KCAL/MOL
REMARK 922        TOTAL FREE ENERGY PREDICTED BY IDOCK:   -4.46 KCAL/MOL
REMARK 923 INTER-LIGAND FREE ENERGY PREDICTED BY IDOCK:   -4.41 KCAL/MOL
REMARK 924 INTRA-LIGAND FREE ENERGY PREDICTED BY IDOCK:   -0.05 KCAL/MOL
REMARK 927      BINDING AFFINITY PREDICTED BY RF-SCORE:    0.00 PKD
ROOT
HETATM    1  C   UNL     1      -5.926  19.295  64.415  1.00  0.00    -0.286 C  
HETATM    2  C   UNL     1      -5.640  20.368  65.452  1.00  0.00    -0.220 C  
ENDROOT
BRANCH   2   3
HETATM    3  C   UNL     1      -6.536  20.263  66.653  1.00  0.00    -0.250 C  
HETATM    4  C   UNL     1      -7.125  19.136  67.088  1.00  0.00    -0.212 C  
BRANCH   4   5
HETATM    5  C   UNL     1      -7.070  17.801  66.399  1.00  0.00    -0.299 C  
BRANCH   5   6
HETATM    6  C   UNL     1      -8.418  17.380  65.882  1.00  0.00     0.015 C  
HETATM    7  C   UNL     1      -9.192  16.402  66.384  1.00  0.00    -0.335 C  
BRANCH   7   8
HETATM    8  C   UNL     1      -8.815  15.532  67.547  1.00  0.00    -0.191 C  
BRANCH   8   9
HETATM    9  C   UNL     1      -8.183  16.307  68.665  1.00  0.00    -0.214 C  
HETATM   10  C   UNL     1      -7.358  15.824  69.609  1.00  0.00    -0.118 C  
BRANCH  10  11
HETATM   11  C   UNL     1      -6.824  14.421  69.714  1.00  0.00    -0.095 C  
BRANCH  11  12
HETATM   12  C   UNL     1      -5.710  14.136  68.743  1.00  0.00    -0.082 C  
HETATM   13  C   UNL     1      -5.127  12.948  68.517  1.00  0.00    -0.063 C  
BRANCH  13  14
HETATM   14  C   UNL     1      -5.429  11.683  69.250  1.00  0.00    -0.049 C  
BRANCH  14  15
HETATM   15  C   UNL     1      -5.926  10.585  68.351  1.00  0.00    -0.043 C  
HETATM   16  C   UNL     1      -7.211  10.467  67.974  1.00  0.00    -0.084 C  
BRANCH  16  17
HETATM   17  C   UNL     1      -8.312  11.368  68.446  1.00  0.00    -0.153 C  
BRANCH  17  18
HETATM   18  C   UNL     1      -9.364  10.651  69.246  1.00  0.00    -0.136 C  
HETATM   19  C   UNL     1     -10.542  10.268  68.722  1.00  0.00    -0.231 C  
BRANCH  19  20
HETATM   20  C   UNL     1     -10.885  10.522  67.278  1.00  0.00    -0.338 C  
BRANCH  20  21
HETATM   21  C   UNL     1     -10.100   9.688  66.274  1.00  0.00    -0.322 C  
HETATM   22  C   UNL     1      -9.780  10.544  65.067  1.00  0.00    -0.292 C  
HETATM   23  O   UNL     1      -9.593   9.818  63.938  1.00  0.00    -0.175 OA 
HETATM   24  O   UNL     1      -9.666  11.756  65.078  1.00  0.00    -0.240 OA 
ENDBRANCH  20  21
ENDBRANCH  19  20
ENDBRANCH  17  18
ENDBRANCH  16  17
ENDBRANCH  14  15
ENDBRANCH  13  14
ENDBRANCH  11  12
ENDBRANCH  10  11
ENDBRANCH   8   9
ENDBRANCH   7   8
ENDBRANCH   5   6
ENDBRANCH   4   5
ENDBRANCH   2   3
TORSDOF 13
ENDMDL
MODEL      490
REMARK 921   NORMALIZED FREE ENERGY PREDICTED BY IDOCK:   -0.74 KCAL/MOL
REMARK 922        TOTAL FREE ENERGY PREDICTED BY IDOCK:   -4.09 KCAL/MOL
REMARK 923 INTER-LIGAND FREE ENERGY PREDICTED BY IDOCK:   -3.44 KCAL/MOL
REMARK 924 INTRA-LIGAND FREE ENERGY PREDICTED BY IDOCK:   -0.64 KCAL/MOL
REMARK 927      BINDING AFFINITY PREDICTED BY RF-SCORE:    0.00 PKD
ROOT
HETATM    1  C   UNL     1     -12.305  13.567  65.916  1.00  0.00    -0.507 C  
HETATM    2  C   UNL     1     -10.825  13.603  65.574  1.00  0.00    -0.295 C  
ENDROOT
BRANCH   2   3
HETATM    3  C   UNL     1     -10.007  12.701  66.455  1.00  0.00    -0.256 C  
HETATM    4  C   UNL     1      -9.905  12.803  67.792  1.00  0.00    -0.220 C  
BRANCH   4   5
HETATM    5  C   UNL     1     -10.513  13.891  68.632  1.00  0.00    -0.249 C  
BRANCH   5   6
HETATM    6  C   UNL     1      -9.651  15.123  68.665  1.00  0.00    -0.213 C  
HETATM    7  C   UNL     1      -8.344  15.170  68.974  1.00  0.00    -0.209 C  
BRANCH   7   8
HETATM    8  C   UNL     1      -7.521  13.981  69.375  1.00  0.00     0.134 C  
BRANCH   8   9
HETATM    9  C   UNL     1      -6.516  13.598  68.328  1.00  0.00    -0.109 C  
HETATM   10  C   UNL     1      -5.910  12.405  68.198  1.00  0.00    -0.066 C  
BRANCH  10  11
HETATM   11  C   UNL     1      -6.155  11.169  69.020  1.00  0.00    -0.044 C  
BRANCH  11  12
HETATM   12  C   UNL     1      -5.131  10.092  68.792  1.00  0.00    -0.036 C  
HETATM   13  C   UNL     1      -5.372   8.797  68.532  1.00  0.00    -0.037 C  
BRANCH  13  14
HETATM   14  C   UNL     1      -6.722   8.160  68.494  1.00  0.00    -0.063 C  
BRANCH  14  15
HETATM   15  C   UNL     1      -7.806   9.101  68.049  1.00  0.00    -0.100 C  
HETATM   16  C   UNL     1      -8.839   8.722  67.277  1.00  0.00    -0.141 C  
BRANCH  16  17
HETATM   17  C   UNL     1      -9.007   7.342  66.715  1.00  0.00    -0.154 C  
BRANCH  17  18
HETATM   18  C   UNL     1      -9.966   6.493  67.503  1.00  0.00    -0.169 C  
HETATM   19  C   UNL     1     -10.031   5.156  67.371  1.00  0.00    -0.215 C  
BRANCH  19  20
HETATM   20  C   UNL     1      -9.129   4.409  66.424  1.00  0.00    -0.126 C  
BRANCH  20  21
HETATM   21  C   UNL     1      -9.840   3.442  65.486  1.00  0.00     0.041 C  
HETATM   22  C   UNL     1      -9.965   4.085  64.121  1.00  0.00    -0.163 C  
HETATM   23  O   UNL     1     -11.004   3.597  63.401  1.00  0.00    -0.203 OA 
HETATM   24  O   UNL     1      -9.214   4.932  63.673  1.00  0.00    -0.043 OA 
ENDBRANCH  20  21
ENDBRANCH  19  20
ENDBRANCH  17  18
ENDBRANCH  16  17
ENDBRANCH  14  15
ENDBRANCH  13  14
ENDBRANCH  11  12
ENDBRANCH  10  11
ENDBRANCH   8   9
ENDBRANCH   7   8
ENDBRANCH   5   6
ENDBRANCH   4   5
ENDBRANCH   2   3
TORSDOF 13
ENDMDL
MODEL      491
REMARK 921   NORMALIZED FREE ENERGY PREDICTED BY IDOCK:   -0.73 KCAL/MOL
REMARK 922        TOTAL FREE ENERGY PREDICTED BY IDOCK:   -4.06 KCAL/MOL
REMARK 923 INTER-LIGAND FREE ENERGY PREDICTED BY IDOCK:   -3.80 KCAL/MOL
REMARK 924 INTRA-LIGAND FREE ENERGY PREDICTED BY IDOCK:   -0.25 KCAL/MOL
REMARK 927      BINDING AFFINITY PREDICTED BY RF-SCORE:    0.00 PKD
ROOT
HETATM    1  C   UNL     1     -11.892  14.053  64.336  1.00  0.00    -0.453 C  
HETATM    2  C   UNL     1     -10.396  14.196  64.558  1.00  0.00    -0.133 C  
ENDROOT
BRANCH   2   3
HETATM    3  C   UNL     1     -10.069  14.987  65.793  1.00  0.00    -0.367 C  
HETATM    4  C   UNL     1     -10.754  14.943  66.949  1.00  0.00    -0.308 C  
BRANCH   4   5
HETATM    5  C   UNL     1     -12.021  14.168  67.183  1.00  0.00    -0.460 C  
BRANCH   5   6
HETATM    6  C   UNL     1     -12.460  14.232  68.621  1.00  0.00     0.151 C  
HETATM    7  C   UNL     1     -12.135  13.359  69.590  1.00  0.00    -0.349 C  
BRANCH   7   8
HETATM    8  C   UNL     1     -11.289  12.136  69.386  1.00  0.00    -0.311 C  
BRANCH   8   9
HETATM    9  C   UNL     1     -11.198  11.735  67.943  1.00  0.00    -0.331 C  
HETATM   10  C   UNL     1     -11.000  10.493  67.467  1.00  0.00    -0.365 C  
BRANCH  10  11
HETATM   11  C   UNL     1     -10.900   9.222  68.266  1.00  0.00    -0.132 C  
BRANCH  11  12
HETATM   12  C   UNL     1     -11.260   7.995  67.475  1.00  0.00     0.554 C  
HETATM   13  C   UNL     1     -10.433   7.259  66.716  1.00  0.00    -0.311 C  
BRANCH  13  14
HETATM   14  C   UNL     1      -8.997   7.568  66.451  1.00  0.00    -0.196 C  
BRANCH  14  15
HETATM   15  C   UNL     1      -8.594   7.325  65.023  1.00  0.00     0.096 C  
HETATM   16  C   UNL     1      -7.463   7.810  64.484  1.00  0.00    -0.097 C  
BRANCH  16  17
HETATM   17  C   UNL     1      -6.498   8.698  65.212  1.00  0.00    -0.063 C  
BRANCH  17  18
HETATM   18  C   UNL     1      -7.061  10.058  65.521  1.00  0.00    -0.132 C  
HETATM   19  C   UNL     1      -7.006  10.606  66.749  1.00  0.00    -0.110 C  
BRANCH  19  20
HETATM   20  C   UNL     1      -6.357   9.893  67.905  1.00  0.00    -0.055 C  
BRANCH  20  21
HETATM   21  C   UNL     1      -6.831  10.338  69.283  1.00  0.00    -0.068 C  
HETATM   22  C   UNL     1      -6.383   9.320  70.309  1.00  0.00    -0.051 C  
HETATM   23  O   UNL     1      -7.167   9.302  71.414  1.00  0.00    -0.288 OA 
HETATM   24  O   UNL     1      -5.409   8.596  70.200  1.00  0.00    -0.025 OA 
ENDBRANCH  20  21
ENDBRANCH  19  20
ENDBRANCH  17  18
ENDBRANCH  16  17
ENDBRANCH  14  15
ENDBRANCH  13  14
ENDBRANCH  11  12
ENDBRANCH  10  11
ENDBRANCH   8   9
ENDBRANCH   7   8
ENDBRANCH   5   6
ENDBRANCH   4   5
ENDBRANCH   2   3
TORSDOF 13
ENDMDL
MODEL      492
REMARK 921   NORMALIZED FREE ENERGY PREDICTED BY IDOCK:   -0.46 KCAL/MOL
REMARK 922        TOTAL FREE ENERGY PREDICTED BY IDOCK:   -3.58 KCAL/MOL
REMARK 923 INTER-LIGAND FREE ENERGY PREDICTED BY IDOCK:   -2.64 KCAL/MOL
REMARK 924 INTRA-LIGAND FREE ENERGY PREDICTED BY IDOCK:   -0.94 KCAL/MOL
REMARK 927      BINDING AFFINITY PREDICTED BY RF-SCORE:    0.00 PKD
ROOT
HETATM    1  C   UNL     1      -6.880  16.478  68.906  1.00  0.00    -0.186 C  
HETATM    2  C   UNL     1      -7.463  15.210  69.506  1.00  0.00    -0.213 C  
ENDROOT
BRANCH   2   3
HETATM    3  C   UNL     1      -6.514  14.532  70.454  1.00  0.00    -0.111 C  
HETATM    4  C   UNL     1      -5.789  13.434  70.176  1.00  0.00    -0.148 C  
BRANCH   4   5
HETATM    5  C   UNL     1      -5.868  12.636  68.906  1.00  0.00    -0.071 C  
BRANCH   5   6
HETATM    6  C   UNL     1      -7.104  11.780  68.855  1.00  0.00    -0.114 C  
HETATM    7  C   UNL     1      -7.317  10.651  69.554  1.00  0.00    -0.141 C  
BRANCH   7   8
HETATM    8  C   UNL     1      -6.324  10.030  70.492  1.00  0.00    -0.116 C  
BRANCH   8   9
HETATM    9  C   UNL     1      -5.182   9.376  69.771  1.00  0.00    -0.033 C  
HETATM   10  C   UNL     1      -5.228   8.230  69.071  1.00  0.00    -0.027 C  
BRANCH  10  11
HETATM   11  C   UNL     1      -6.442   7.387  68.790  1.00  0.00    -0.044 C  
BRANCH  11  12
HETATM   12  C   UNL     1      -6.869   7.424  67.349  1.00  0.00    -0.078 C  
HETATM   13  C   UNL     1      -6.424   6.633  66.359  1.00  0.00    -0.043 C  
BRANCH  13  14
HETATM   14  C   UNL     1      -5.352   5.604  66.491  1.00  0.00    -0.012 C  
BRANCH  14  15
HETATM   15  C   UNL     1      -5.245   5.037  67.880  1.00  0.00    -0.007 C  
HETATM   16  C   UNL     1      -6.028   4.042  68.332  1.00  0.00    -0.027 C  
BRANCH  16  17
HETATM   17  C   UNL     1      -7.138   3.420  67.539  1.00  0.00    -0.058 C  
BRANCH  17  18
HETATM   18  C   UNL     1      -8.474   3.501  68.224  1.00  0.00    -0.106 C  
HETATM   19  C   UNL     1      -9.534   4.128  67.680  1.00  0.00    -0.225 C  
BRANCH  19  20
HETATM   20  C   UNL     1      -9.455   4.785  66.328  1.00  0.00    -0.160 C  
BRANCH  20  21
HETATM   21  C   UNL     1     -10.617   4.474  65.393  1.00  0.00    -0.195 C  
HETATM   22  C   UNL     1     -10.095   3.705  64.199  1.00  0.00    -0.212 C  
HETATM   23  O   UNL     1     -10.870   3.850  63.096  1.00  0.00    -0.207 OA 
HETATM   24  O   UNL     1      -9.103   2.998  64.199  1.00  0.00    -0.105 OA 
ENDBRANCH  20  21
ENDBRANCH  19  20
ENDBRANCH  17  18
ENDBRANCH  16  17
ENDBRANCH  14  15
ENDBRANCH  13  14
ENDBRANCH  11  12
ENDBRANCH  10  11
ENDBRANCH   8   9
ENDBRANCH   7   8
ENDBRANCH   5   6
ENDBRANCH   4   5
ENDBRANCH   2   3
TORSDOF 13
ENDMDL
MODEL      493
REMARK 921   NORMALIZED FREE ENERGY PREDICTED BY IDOCK:   -0.35 KCAL/MOL
REMARK 922        TOTAL FREE ENERGY PREDICTED BY IDOCK:   -3.40 KCAL/MOL
REMARK 923 INTER-LIGAND FREE ENERGY PREDICTED BY IDOCK:   -4.64 KCAL/MOL
REMARK 924 INTRA-LIGAND FREE ENERGY PREDICTED BY IDOCK:    1.24 KCAL/MOL
REMARK 927      BINDING AFFINITY PREDICTED BY RF-SCORE:    0.00 PKD
ROOT
HETATM    1  C   UNL     1     -12.261  13.544  65.976  1.00  0.00    -0.493 C  
HETATM    2  C   UNL     1     -10.789  13.769  65.668  1.00  0.00    -0.287 C  
ENDROOT
BRANCH   2   3
HETATM    3  C   UNL     1      -9.889  13.279  66.767  1.00  0.00    -0.264 C  
HETATM    4  C   UNL     1      -9.955  13.660  68.055  1.00  0.00    -0.247 C  
BRANCH   4   5
HETATM    5  C   UNL     1     -10.877  14.711  68.607  1.00  0.00    -0.261 C  
BRANCH   5   6
HETATM    6  C   UNL     1     -10.488  16.092  68.156  1.00  0.00    -0.279 C  
HETATM    7  C   UNL     1      -9.258  16.631  68.217  1.00  0.00    -0.217 C  
BRANCH   7   8
HETATM    8  C   UNL     1      -8.053  15.939  68.784  1.00  0.00    -0.190 C  
BRANCH   8   9
HETATM    9  C   UNL     1      -7.045  15.582  67.732  1.00  0.00    -0.179 C  
HETATM   10  C   UNL     1      -6.203  14.535  67.751  1.00  0.00    -0.152 C  
BRANCH  10  11
HETATM   11  C   UNL     1      -6.131  13.449  68.790  1.00  0.00    -0.086 C  
BRANCH  11  12
HETATM   12  C   UNL     1      -5.182  12.341  68.424  1.00  0.00    -0.053 C  
HETATM   13  C   UNL     1      -5.471  11.033  68.338  1.00  0.00    -0.043 C  
BRANCH  13  14
HETATM   14  C   UNL     1      -6.789  10.414  68.665  1.00  0.00    -0.058 C  
BRANCH  14  15
HETATM   15  C   UNL     1      -7.952  11.329  68.400  1.00  0.00    -0.140 C  
HETATM   16  C   UNL     1      -9.165  10.889  68.024  1.00  0.00    -0.156 C  
BRANCH  16  17
HETATM   17  C   UNL     1      -9.494   9.449  67.765  1.00  0.00    -0.152 C  
BRANCH  17  18
HETATM   18  C   UNL     1     -10.254   8.802  68.889  1.00  0.00    -0.221 C  
HETATM   19  C   UNL     1     -10.188   7.483  69.147  1.00  0.00    -0.202 C  
BRANCH  19  20
HETATM   20  C   UNL     1      -9.328   6.559  68.328  1.00  0.00    -0.118 C  
BRANCH  20  21
HETATM   21  C   UNL     1     -10.043   5.329  67.783  1.00  0.00    -0.205 C  
HETATM   22  C   UNL     1      -9.880   5.292  66.279  1.00  0.00    -0.182 C  
HETATM   23  O   UNL     1     -10.873   4.611  65.656  1.00  0.00    -0.292 OA 
HETATM   24  O   UNL     1      -8.954   5.785  65.662  1.00  0.00    -0.159 OA 
ENDBRANCH  20  21
ENDBRANCH  19  20
ENDBRANCH  17  18
ENDBRANCH  16  17
ENDBRANCH  14  15
ENDBRANCH  13  14
ENDBRANCH  11  12
ENDBRANCH  10  11
ENDBRANCH   8   9
ENDBRANCH   7   8
ENDBRANCH   5   6
ENDBRANCH   4   5
ENDBRANCH   2   3
TORSDOF 13
ENDMDL
MODEL      494
REMARK 921   NORMALIZED FREE ENERGY PREDICTED BY IDOCK:   -0.10 KCAL/MOL
REMARK 922        TOTAL FREE ENERGY PREDICTED BY IDOCK:   -2.95 KCAL/MOL
REMARK 923 INTER-LIGAND FREE ENERGY PREDICTED BY IDOCK:   -4.89 KCAL/MOL
REMARK 924 INTRA-LIGAND FREE ENERGY PREDICTED BY IDOCK:    1.94 KCAL/MOL
REMARK 927      BINDING AFFINITY PREDICTED BY RF-SCORE:    0.00 PKD
ROOT
HETATM    1  C   UNL     1     -12.549  14.854  66.311  1.00  0.00     0.490 C  
HETATM    2  C   UNL     1     -11.642  13.794  66.914  1.00  0.00    -0.394 C  
ENDROOT
BRANCH   2   3
HETATM    3  C   UNL     1     -11.721  13.753  68.414  1.00  0.00    -0.393 C  
HETATM    4  C   UNL     1     -11.111  14.611  69.249  1.00  0.00    -0.290 C  
BRANCH   4   5
HETATM    5  C   UNL     1     -10.167  15.706  68.838  1.00  0.00    -0.214 C  
BRANCH   5   6
HETATM    6  C   UNL     1      -9.488  15.400  67.532  1.00  0.00    -0.205 C  
HETATM    7  C   UNL     1      -8.659  14.370  67.289  1.00  0.00    -0.230 C  
BRANCH   7   8
HETATM    8  C   UNL     1      -8.243  13.354  68.312  1.00  0.00    -0.160 C  
BRANCH   8   9
HETATM    9  C   UNL     1      -6.753  13.266  68.462  1.00  0.00    -0.092 C  
HETATM   10  C   UNL     1      -6.056  12.223  68.944  1.00  0.00    -0.073 C  
BRANCH  10  11
HETATM   11  C   UNL     1      -6.602  10.887  69.369  1.00  0.00    -0.095 C  
BRANCH  11  12
HETATM   12  C   UNL     1      -6.773   9.925  68.226  1.00  0.00    -0.060 C  
HETATM   13  C   UNL     1      -7.786   9.896  67.346  1.00  0.00    -0.091 C  
BRANCH  13  14
HETATM   14  C   UNL     1      -8.988  10.779  67.382  1.00  0.00    -0.141 C  
BRANCH  14  15
HETATM   15  C   UNL     1     -10.266  10.049  67.074  1.00  0.00    -0.295 C  
HETATM   16  C   UNL     1     -11.179   9.736  68.010  1.00  0.00    -0.059 C  
BRANCH  16  17
HETATM   17  C   UNL     1     -11.014  10.016  69.473  1.00  0.00    -0.289 C  
BRANCH  17  18
HETATM   18  C   UNL     1     -11.895  11.130  69.967  1.00  0.00    -0.441 C  
HETATM   19  C   UNL     1     -12.872  10.938  70.873  1.00  0.00    -0.418 C  
BRANCH  19  20
HETATM   20  C   UNL     1     -13.141   9.583  71.469  1.00  0.00    -0.470 C  
BRANCH  20  21
HETATM   21  C   UNL     1     -12.342   8.439  70.857  1.00  0.00    -0.051 C  
HETATM   22  C   UNL     1     -12.793   7.136  71.480  1.00  0.00    -0.391 C  
HETATM   23  O   UNL     1     -11.840   6.173  71.442  1.00  0.00    -0.260 OA 
HETATM   24  O   UNL     1     -13.898   6.928  71.950  1.00  0.00    -0.266 OA 
ENDBRANCH  20  21
ENDBRANCH  19  20
ENDBRANCH  17  18
ENDBRANCH  16  17
ENDBRANCH  14  15
ENDBRANCH  13  14
ENDBRANCH  11  12
ENDBRANCH  10  11
ENDBRANCH   8   9
ENDBRANCH   7   8
ENDBRANCH   5   6
ENDBRANCH   4   5
ENDBRANCH   2   3
TORSDOF 13
ENDMDL
MODEL      495
REMARK 921   NORMALIZED FREE ENERGY PREDICTED BY IDOCK:    0.15 KCAL/MOL
REMARK 922        TOTAL FREE ENERGY PREDICTED BY IDOCK:   -2.51 KCAL/MOL
REMARK 923 INTER-LIGAND FREE ENERGY PREDICTED BY IDOCK:   -2.10 KCAL/MOL
REMARK 924 INTRA-LIGAND FREE ENERGY PREDICTED BY IDOCK:   -0.41 KCAL/MOL
REMARK 927      BINDING AFFINITY PREDICTED BY RF-SCORE:    0.00 PKD
ROOT
HETATM    1  C   UNL     1      -6.928  20.064  66.719  1.00  0.00    -0.250 C  
HETATM    2  C   UNL     1      -8.084  19.668  65.815  1.00  0.00    -0.111 C  
ENDROOT
BRANCH   2   3
HETATM    3  C   UNL     1      -9.417  20.081  66.371  1.00  0.00    -0.512 C  
HETATM    4  C   UNL     1     -10.133  19.389  67.274  1.00  0.00    -0.497 C  
BRANCH   4   5
HETATM    5  C   UNL     1      -9.773  18.035  67.819  1.00  0.00    -0.292 C  
BRANCH   5   6
HETATM    6  C   UNL     1     -10.772  17.557  68.837  1.00  0.00    -0.072 C  
HETATM    7  C   UNL     1     -11.490  16.421  68.772  1.00  0.00    -0.222 C  
BRANCH   7   8
HETATM    8  C   UNL     1     -11.434  15.443  67.636  1.00  0.00    -0.255 C  
BRANCH   8   9
HETATM    9  C   UNL     1     -12.043  15.988  66.377  1.00  0.00     1.491 C  
HETATM   10  C   UNL     1     -11.699  15.668  65.118  1.00  0.00     0.124 C  
BRANCH  10  11
HETATM   11  C   UNL     1     -10.685  14.643  64.687  1.00  0.00    -0.309 C  
BRANCH  11  12
HETATM   12  C   UNL     1     -11.213  13.235  64.724  1.00  0.00    -0.350 C  
HETATM   13  C   UNL     1     -10.586  12.156  65.217  1.00  0.00    -0.319 C  
BRANCH  13  14
HETATM   14  C   UNL     1      -9.196  12.136  65.760  1.00  0.00    -0.019 C  
BRANCH  14  15
HETATM   15  C   UNL     1      -9.100  12.688  67.155  1.00  0.00    -0.210 C  
HETATM   16  C   UNL     1      -8.225  12.234  68.069  1.00  0.00    -0.163 C  
BRANCH  16  17
HETATM   17  C   UNL     1      -7.285  11.090  67.837  1.00  0.00    -0.086 C  
BRANCH  17  18
HETATM   18  C   UNL     1      -7.972   9.852  67.328  1.00  0.00    -0.109 C  
HETATM   19  C   UNL     1      -8.130   8.747  68.079  1.00  0.00    -0.107 C  
BRANCH  19  20
HETATM   20  C   UNL     1      -7.637   8.679  69.500  1.00  0.00    -0.088 C  
BRANCH  20  21
HETATM   21  C   UNL     1      -6.235   9.234  69.722  1.00  0.00    -0.039 C  
HETATM   22  C   UNL     1      -6.251  10.137  70.937  1.00  0.00    -0.027 C  
HETATM   23  O   UNL     1      -5.273  11.074  70.912  1.00  0.00    -0.096 OA 
HETATM   24  O   UNL     1      -7.028  10.043  71.870  1.00  0.00     0.413 OA 
ENDBRANCH  20  21
ENDBRANCH  19  20
ENDBRANCH  17  18
ENDBRANCH  16  17
ENDBRANCH  14  15
ENDBRANCH  13  14
ENDBRANCH  11  12
ENDBRANCH  10  11
ENDBRANCH   8   9
ENDBRANCH   7   8
ENDBRANCH   5   6
ENDBRANCH   4   5
ENDBRANCH   2   3
TORSDOF 13
ENDMDL
MODEL      496
REMARK 921   NORMALIZED FREE ENERGY PREDICTED BY IDOCK:    0.22 KCAL/MOL
REMARK 922        TOTAL FREE ENERGY PREDICTED BY IDOCK:   -2.39 KCAL/MOL
REMARK 923 INTER-LIGAND FREE ENERGY PREDICTED BY IDOCK:   -3.70 KCAL/MOL
REMARK 924 INTRA-LIGAND FREE ENERGY PREDICTED BY IDOCK:    1.30 KCAL/MOL
REMARK 927      BINDING AFFINITY PREDICTED BY RF-SCORE:    0.00 PKD
ROOT
HETATM    1  C   UNL     1     -12.536  14.334  66.041  1.00  0.00    -0.392 C  
HETATM    2  C   UNL     1     -11.744  13.042  66.145  1.00  0.00    -0.445 C  
ENDROOT
BRANCH   2   3
HETATM    3  C   UNL     1     -11.510  12.621  67.568  1.00  0.00    -0.397 C  
HETATM    4  C   UNL     1     -10.493  13.033  68.345  1.00  0.00    -0.261 C  
BRANCH   4   5
HETATM    5  C   UNL     1      -9.358  13.912  67.901  1.00  0.00    -0.208 C  
BRANCH   5   6
HETATM    6  C   UNL     1      -8.806  13.486  66.568  1.00  0.00     0.005 C  
HETATM    7  C   UNL     1      -8.100  12.369  66.321  1.00  0.00     0.506 C  
BRANCH   7   8
HETATM    8  C   UNL     1      -7.712  11.360  67.361  1.00  0.00    -0.135 C  
BRANCH   8   9
HETATM    9  C   UNL     1      -6.294  10.894  67.210  1.00  0.00    -0.068 C  
HETATM   10  C   UNL     1      -5.814   9.675  67.512  1.00  0.00    -0.047 C  
BRANCH  10  11
HETATM   11  C   UNL     1      -6.599   8.486  67.994  1.00  0.00    -0.058 C  
BRANCH  11  12
HETATM   12  C   UNL     1      -7.212   7.687  66.878  1.00  0.00    -0.088 C  
HETATM   13  C   UNL     1      -8.518   7.586  66.586  1.00  0.00    -0.130 C  
BRANCH  13  14
HETATM   14  C   UNL     1      -9.630   8.198  67.372  1.00  0.00    -0.204 C  
BRANCH  14  15
HETATM   15  C   UNL     1     -10.854   7.329  67.437  1.00  0.00    -0.317 C  
HETATM   16  C   UNL     1     -10.843   6.017  67.144  1.00  0.00    -0.414 C  
BRANCH  16  17
HETATM   17  C   UNL     1      -9.634   5.274  66.661  1.00  0.00    -0.160 C  
BRANCH  17  18
HETATM   18  C   UNL     1      -9.327   4.047  67.474  1.00  0.00    -0.219 C  
HETATM   19  C   UNL     1      -9.248   2.817  66.935  1.00  0.00    -0.141 C  
BRANCH  19  20
HETATM   20  C   UNL     1      -9.451   2.585  65.462  1.00  0.00     0.066 C  
BRANCH  20  21
HETATM   21  C   UNL     1     -10.266   3.656  64.748  1.00  0.00    -0.103 C  
HETATM   22  C   UNL     1     -10.459   3.246  63.304  1.00  0.00    -0.224 C  
HETATM   23  O   UNL     1     -10.664   4.300  62.477  1.00  0.00    -0.149 OA 
HETATM   24  O   UNL     1     -10.463   2.098  62.895  1.00  0.00    -0.112 OA 
ENDBRANCH  20  21
ENDBRANCH  19  20
ENDBRANCH  17  18
ENDBRANCH  16  17
ENDBRANCH  14  15
ENDBRANCH  13  14
ENDBRANCH  11  12
ENDBRANCH  10  11
ENDBRANCH   8   9
ENDBRANCH   7   8
ENDBRANCH   5   6
ENDBRANCH   4   5
ENDBRANCH   2   3
TORSDOF 13
ENDMDL
MODEL      497
REMARK 921   NORMALIZED FREE ENERGY PREDICTED BY IDOCK:    0.86 KCAL/MOL
REMARK 922        TOTAL FREE ENERGY PREDICTED BY IDOCK:   -1.26 KCAL/MOL
REMARK 923 INTER-LIGAND FREE ENERGY PREDICTED BY IDOCK:   -5.10 KCAL/MOL
REMARK 924 INTRA-LIGAND FREE ENERGY PREDICTED BY IDOCK:    3.85 KCAL/MOL
REMARK 927      BINDING AFFINITY PREDICTED BY RF-SCORE:    0.00 PKD
ROOT
HETATM    1  C   UNL     1      -5.979  19.368  63.517  1.00  0.00     0.028 C  
HETATM    2  C   UNL     1      -5.143  20.530  64.027  1.00  0.00    -0.215 C  
ENDROOT
BRANCH   2   3
HETATM    3  C   UNL     1      -5.201  20.669  65.522  1.00  0.00    -0.216 C  
HETATM    4  C   UNL     1      -5.953  19.918  66.345  1.00  0.00    -0.176 C  
BRANCH   4   5
HETATM    5  C   UNL     1      -6.939  18.870  65.912  1.00  0.00    -0.304 C  
BRANCH   5   6
HETATM    6  C   UNL     1      -8.332  19.426  65.788  1.00  0.00     0.072 C  
HETATM    7  C   UNL     1      -9.129  19.803  66.803  1.00  0.00    -0.442 C  
BRANCH   7   8
HETATM    8  C   UNL     1      -8.766  19.698  68.255  1.00  0.00    -0.361 C  
BRANCH   8   9
HETATM    9  C   UNL     1      -7.327  20.034  68.513  1.00  0.00    -0.263 C  
HETATM   10  C   UNL     1      -6.400  19.225  69.054  1.00  0.00    -0.306 C  
BRANCH  10  11
HETATM   11  C   UNL     1      -6.576  17.784  69.452  1.00  0.00    -0.202 C  
BRANCH  11  12
HETATM   12  C   UNL     1      -5.489  16.887  68.926  1.00  0.00    -0.134 C  
HETATM   13  C   UNL     1      -5.393  15.559  69.095  1.00  0.00    -0.096 C  
BRANCH  13  14
HETATM   14  C   UNL     1      -6.321  14.721  69.910  1.00  0.00    -0.158 C  
BRANCH  14  15
HETATM   15  C   UNL     1      -7.187  13.818  69.077  1.00  0.00    -0.063 C  
HETATM   16  C   UNL     1      -8.444  14.130  68.715  1.00  0.00    -0.069 C  
BRANCH  16  17
HETATM   17  C   UNL     1      -9.157  15.377  69.145  1.00  0.00    -0.243 C  
BRANCH  17  18
HETATM   18  C   UNL     1     -10.321  15.110  70.060  1.00  0.00    -0.180 C  
HETATM   19  C   UNL     1     -11.578  14.950  69.609  1.00  0.00    -0.337 C  
BRANCH  19  20
HETATM   20  C   UNL     1     -11.907  15.015  68.142  1.00  0.00    -0.286 C  
BRANCH  20  21
HETATM   21  C   UNL     1     -10.819  14.488  67.214  1.00  0.00    -0.297 C  
HETATM   22  C   UNL     1     -10.539  15.524  66.147  1.00  0.00    -0.315 C  
HETATM   23  O   UNL     1     -10.035  14.988  65.009  1.00  0.00    -0.307 OA 
HETATM   24  O   UNL     1     -10.710  16.723  66.272  1.00  0.00    -0.234 OA 
ENDBRANCH  20  21
ENDBRANCH  19  20
ENDBRANCH  17  18
ENDBRANCH  16  17
ENDBRANCH  14  15
ENDBRANCH  13  14
ENDBRANCH  11  12
ENDBRANCH  10  11
ENDBRANCH   8   9
ENDBRANCH   7   8
ENDBRANCH   5   6
ENDBRANCH   4   5
ENDBRANCH   2   3
TORSDOF 13
ENDMDL
MODEL      498
REMARK 921   NORMALIZED FREE ENERGY PREDICTED BY IDOCK:    1.30 KCAL/MOL
REMARK 922        TOTAL FREE ENERGY PREDICTED BY IDOCK:   -0.49 KCAL/MOL
REMARK 923 INTER-LIGAND FREE ENERGY PREDICTED BY IDOCK:   -2.57 KCAL/MOL
REMARK 924 INTRA-LIGAND FREE ENERGY PREDICTED BY IDOCK:    2.08 KCAL/MOL
REMARK 927      BINDING AFFINITY PREDICTED BY RF-SCORE:    0.00 PKD
ROOT
HETATM    1  C   UNL     1     -10.697   2.776  73.048  1.00  0.00    -0.227 C  
HETATM    2  C   UNL     1     -10.959   4.273  73.053  1.00  0.00    -0.255 C  
ENDROOT
BRANCH   2   3
HETATM    3  C   UNL     1     -10.351   4.968  71.867  1.00  0.00    -0.270 C  
HETATM    4  C   UNL     1      -9.042   5.223  71.702  1.00  0.00    -0.156 C  
BRANCH   4   5
HETATM    5  C   UNL     1      -7.964   4.943  72.711  1.00  0.00    -0.098 C  
BRANCH   5   6
HETATM    6  C   UNL     1      -7.057   3.827  72.270  1.00  0.00    -0.047 C  
HETATM    7  C   UNL     1      -5.922   3.958  71.561  1.00  0.00    -0.013 C  
BRANCH   7   8
HETATM    8  C   UNL     1      -5.381   5.264  71.057  1.00  0.00    -0.005 C  
BRANCH   8   9
HETATM    9  C   UNL     1      -5.249   6.290  72.143  1.00  0.00    -0.027 C  
HETATM   10  C   UNL     1      -5.161   7.621  71.981  1.00  0.00    -0.036 C  
BRANCH  10  11
HETATM   11  C   UNL     1      -5.250   8.385  70.688  1.00  0.00    -0.021 C  
BRANCH  11  12
HETATM   12  C   UNL     1      -5.906   9.730  70.837  1.00  0.00    -0.084 C  
HETATM   13  C   UNL     1      -6.998  10.165  70.189  1.00  0.00    -0.157 C  
BRANCH  13  14
HETATM   14  C   UNL     1      -7.733   9.414  69.129  1.00  0.00    -0.079 C  
BRANCH  14  15
HETATM   15  C   UNL     1      -6.863   9.037  67.963  1.00  0.00    -0.069 C  
HETATM   16  C   UNL     1      -7.284   9.074  66.686  1.00  0.00    -0.085 C  
BRANCH  16  17
HETATM   17  C   UNL     1      -8.679   9.434  66.272  1.00  0.00    -0.157 C  
BRANCH  17  18
HETATM   18  C   UNL     1      -9.698   9.200  67.353  1.00  0.00    -0.211 C  
HETATM   19  C   UNL     1     -10.201  10.194  68.107  1.00  0.00    -0.200 C  
BRANCH  19  20
HETATM   20  C   UNL     1      -9.784  11.627  67.906  1.00  0.00    -0.181 C  
BRANCH  20  21
HETATM   21  C   UNL     1     -10.233  12.587  69.000  1.00  0.00     0.096 C  
HETATM   22  C   UNL     1     -11.038  11.820  70.027  1.00  0.00     0.233 C  
HETATM   23  O   UNL     1     -11.912  12.603  70.705  1.00  0.00    -0.253 OA 
HETATM   24  O   UNL     1     -10.920  10.632  70.266  1.00  0.00    -0.273 OA 
ENDBRANCH  20  21
ENDBRANCH  19  20
ENDBRANCH  17  18
ENDBRANCH  16  17
ENDBRANCH  14  15
ENDBRANCH  13  14
ENDBRANCH  11  12
ENDBRANCH  10  11
ENDBRANCH   8   9
ENDBRANCH   7   8
ENDBRANCH   5   6
ENDBRANCH   4   5
ENDBRANCH   2   3
TORSDOF 13
ENDMDL
MODEL      499
REMARK 921   NORMALIZED FREE ENERGY PREDICTED BY IDOCK:    2.20 KCAL/MOL
REMARK 922        TOTAL FREE ENERGY PREDICTED BY IDOCK:    1.10 KCAL/MOL
REMARK 923 INTER-LIGAND FREE ENERGY PREDICTED BY IDOCK:   -4.04 KCAL/MOL
REMARK 924 INTRA-LIGAND FREE ENERGY PREDICTED BY IDOCK:    5.14 KCAL/MOL
REMARK 927      BINDING AFFINITY PREDICTED BY RF-SCORE:    0.00 PKD
ROOT
HETATM    1  C   UNL     1      -9.551   7.726  67.577  1.00  0.00    -0.184 C  
HETATM    2  C   UNL     1      -8.495   8.734  67.156  1.00  0.00    -0.110 C  
ENDROOT
BRANCH   2   3
HETATM    3  C   UNL     1      -7.099   8.193  67.285  1.00  0.00    -0.079 C  
HETATM    4  C   UNL     1      -6.704   6.962  66.918  1.00  0.00    -0.056 C  
BRANCH   4   5
HETATM    5  C   UNL     1      -7.605   5.875  66.401  1.00  0.00    -0.091 C  
BRANCH   5   6
HETATM    6  C   UNL     1      -7.822   4.793  67.423  1.00  0.00    -0.094 C  
HETATM    7  C   UNL     1      -6.901   4.305  68.272  1.00  0.00    -0.048 C  
BRANCH   7   8
HETATM    8  C   UNL     1      -5.467   4.745  68.317  1.00  0.00    -0.015 C  
BRANCH   8   9
HETATM    9  C   UNL     1      -5.288   6.049  69.037  1.00  0.00    -0.004 C  
HETATM   10  C   UNL     1      -5.993   6.483  70.096  1.00  0.00    -0.023 C  
BRANCH  10  11
HETATM   11  C   UNL     1      -7.064   5.732  70.841  1.00  0.00    -0.071 C  
BRANCH  11  12
HETATM   12  C   UNL     1      -8.412   5.810  70.180  1.00  0.00    -0.121 C  
HETATM   13  C   UNL     1      -9.607   5.791  70.790  1.00  0.00    -0.210 C  
BRANCH  13  14
HETATM   14  C   UNL     1      -9.827   5.610  72.255  1.00  0.00    -0.185 C  
BRANCH  14  15
HETATM   15  C   UNL     1      -9.188   6.688  73.085  1.00  0.00    -0.142 C  
HETATM   16  C   UNL     1      -9.647   7.951  73.133  1.00  0.00    -0.352 C  
BRANCH  16  17
HETATM   17  C   UNL     1     -10.804   8.456  72.324  1.00  0.00    -0.422 C  
BRANCH  17  18
HETATM   18  C   UNL     1     -11.851   7.407  72.067  1.00  0.00    -0.335 C  
HETATM   19  C   UNL     1     -13.143   7.708  71.844  1.00  0.00    -0.292 C  
BRANCH  19  20
HETATM   20  C   UNL     1     -13.631   9.132  71.822  1.00  0.00    -0.476 C  
BRANCH  20  21
HETATM   21  C   UNL     1     -12.537  10.185  71.698  1.00  0.00    -0.533 C  
HETATM   22  C   UNL     1     -12.359  10.538  70.237  1.00  0.00    -0.298 C  
HETATM   23  O   UNL     1     -11.120  11.009  69.954  1.00  0.00    -0.259 OA 
HETATM   24  O   UNL     1     -13.223  10.449  69.383  1.00  0.00     0.357 OA 
ENDBRANCH  20  21
ENDBRANCH  19  20
ENDBRANCH  17  18
ENDBRANCH  16  17
ENDBRANCH  14  15
ENDBRANCH  13  14
ENDBRANCH  11  12
ENDBRANCH  10  11
ENDBRANCH   8   9
ENDBRANCH   7   8
ENDBRANCH   5   6
ENDBRANCH   4   5
ENDBRANCH   2   3
TORSDOF 13
ENDMDL
MODEL      500
REMARK 921   NORMALIZED FREE ENERGY PREDICTED BY IDOCK:    2.96 KCAL/MOL
REMARK 922        TOTAL FREE ENERGY PREDICTED BY IDOCK:    2.43 KCAL/MOL
REMARK 923 INTER-LIGAND FREE ENERGY PREDICTED BY IDOCK:    1.14 KCAL/MOL
REMARK 924 INTRA-LIGAND FREE ENERGY PREDICTED BY IDOCK:    1.30 KCAL/MOL
REMARK 927      BINDING AFFINITY PREDICTED BY RF-SCORE:    0.00 PKD
ROOT
HETATM    1  C   UNL     1     -10.778   2.737  72.871  1.00  0.00    -0.185 C  
HETATM    2  C   UNL     1     -10.993   4.200  73.221  1.00  0.00    -0.324 C  
ENDROOT
BRANCH   2   3
HETATM    3  C   UNL     1      -9.960   5.099  72.604  1.00  0.00    -0.203 C  
HETATM    4  C   UNL     1      -8.632   4.995  72.782  1.00  0.00    -0.119 C  
BRANCH   4   5
HETATM    5  C   UNL     1      -7.949   4.022  73.702  1.00  0.00    -0.088 C  
BRANCH   5   6
HETATM    6  C   UNL     1      -6.972   3.146  72.967  1.00  0.00    -0.039 C  
HETATM    7  C   UNL     1      -5.741   3.498  72.556  1.00  0.00    -0.008 C  
BRANCH   7   8
HETATM    8  C   UNL     1      -5.141   4.861  72.739  1.00  0.00    -0.008 C  
BRANCH   8   9
HETATM    9  C   UNL     1      -5.617   5.537  73.991  1.00  0.00    -0.032 C  
HETATM   10  C   UNL     1      -5.667   6.860  74.219  1.00  0.00    -0.055 C  
BRANCH  10  11
HETATM   11  C   UNL     1      -5.330   7.960  73.249  1.00  0.00    -0.044 C  
BRANCH  11  12
HETATM   12  C   UNL     1      -5.839   9.308  73.680  1.00  0.00     0.073 C  
HETATM   13  C   UNL     1      -6.941   9.930  73.231  1.00  0.00     2.351 C  
BRANCH  13  14
HETATM   14  C   UNL     1      -7.840   9.427  72.152  1.00  0.00     1.037 C  
BRANCH  14  15
HETATM   15  C   UNL     1      -7.571   7.995  71.779  1.00  0.00    -0.095 C  
HETATM   16  C   UNL     1      -7.875   7.476  70.577  1.00  0.00    -0.096 C  
BRANCH  16  17
HETATM   17  C   UNL     1      -8.572   8.234  69.487  1.00  0.00    -0.134 C  
BRANCH  17  18
HETATM   18  C   UNL     1      -7.889   8.116  68.153  1.00  0.00    -0.122 C  
HETATM   19  C   UNL     1      -8.275   7.234  67.213  1.00  0.00    -0.115 C  
BRANCH  19  20
HETATM   20  C   UNL     1      -9.439   6.305  67.432  1.00  0.00    -0.120 C  
BRANCH  20  21
HETATM   21  C   UNL     1      -9.737   5.362  66.272  1.00  0.00    -0.181 C  
HETATM   22  C   UNL     1      -8.473   5.166  65.462  1.00  0.00    -0.138 C  
HETATM   23  O   UNL     1      -8.719   4.828  64.173  1.00  0.00    -0.141 OA 
HETATM   24  O   UNL     1      -7.340   5.264  65.896  1.00  0.00    -0.078 OA 
ENDBRANCH  20  21
ENDBRANCH  19  20
ENDBRANCH  17  18
ENDBRANCH  16  17
ENDBRANCH  14  15
ENDBRANCH  13  14
ENDBRANCH  11  12
ENDBRANCH  10  11
ENDBRANCH   8   9
ENDBRANCH   7   8
ENDBRANCH   5   6
ENDBRANCH   4   5
ENDBRANCH   2   3
TORSDOF 13
ENDMDL
MODEL      501
REMARK 921   NORMALIZED FREE ENERGY PREDICTED BY IDOCK:    3.60 KCAL/MOL
REMARK 922        TOTAL FREE ENERGY PREDICTED BY IDOCK:    3.57 KCAL/MOL
REMARK 923 INTER-LIGAND FREE ENERGY PREDICTED BY IDOCK:   -1.45 KCAL/MOL
REMARK 924 INTRA-LIGAND FREE ENERGY PREDICTED BY IDOCK:    5.01 KCAL/MOL
REMARK 927      BINDING AFFINITY PREDICTED BY RF-SCORE:    0.00 PKD
ROOT
HETATM    1  C   UNL     1      -7.192  16.498  65.649  1.00  0.00     1.820 C  
HETATM    2  C   UNL     1      -7.171  17.675  66.610  1.00  0.00    -0.264 C  
ENDROOT
BRANCH   2   3
HETATM    3  C   UNL     1      -8.470  18.430  66.625  1.00  0.00    -0.283 C  
HETATM    4  C   UNL     1      -9.680  17.893  66.861  1.00  0.00    -0.309 C  
BRANCH   4   5
HETATM    5  C   UNL     1      -9.961  16.430  67.060  1.00  0.00    -0.261 C  
BRANCH   5   6
HETATM    6  C   UNL     1     -10.809  15.866  65.952  1.00  0.00    -0.237 C  
HETATM    7  C   UNL     1     -11.433  14.675  65.957  1.00  0.00    -0.332 C  
BRANCH   7   8
HETATM    8  C   UNL     1     -11.359  13.681  67.078  1.00  0.00    -0.344 C  
BRANCH   8   9
HETATM    9  C   UNL     1     -10.052  12.943  67.107  1.00  0.00    -0.243 C  
HETATM   10  C   UNL     1      -9.247  12.697  66.060  1.00  0.00     0.011 C  
BRANCH  10  11
HETATM   11  C   UNL     1      -9.435  13.167  64.643  1.00  0.00     0.601 C  
BRANCH  11  12
HETATM   12  C   UNL     1     -10.417  12.334  63.866  1.00  0.00    -0.458 C  
HETATM   13  C   UNL     1     -10.173  11.157  63.268  1.00  0.00    -0.403 C  
BRANCH  13  14
HETATM   14  C   UNL     1      -8.845  10.481  63.197  1.00  0.00    -0.216 C  
BRANCH  14  15
HETATM   15  C   UNL     1      -8.948   8.983  63.129  1.00  0.00     0.088 C  
HETATM   16  C   UNL     1      -8.275   8.159  63.951  1.00  0.00    -0.066 C  
BRANCH  16  17
HETATM   17  C   UNL     1      -7.298   8.622  64.989  1.00  0.00    -0.086 C  
BRANCH  17  18
HETATM   18  C   UNL     1      -6.107   9.334  64.408  1.00  0.00    -0.076 C  
HETATM   19  C   UNL     1      -5.429  10.284  65.077  1.00  0.00    -0.119 C  
BRANCH  19  20
HETATM   20  C   UNL     1      -5.812  10.693  66.474  1.00  0.00    -0.081 C  
BRANCH  20  21
HETATM   21  C   UNL     1      -5.319   9.763  67.575  1.00  0.00    -0.036 C  
HETATM   22  C   UNL     1      -6.164   8.506  67.571  1.00  0.00    -0.053 C  
HETATM   23  O   UNL     1      -6.198   7.888  68.777  1.00  0.00    -0.038 OA 
HETATM   24  O   UNL     1      -6.742   8.054  66.600  1.00  0.00    -0.061 OA 
ENDBRANCH  20  21
ENDBRANCH  19  20
ENDBRANCH  17  18
ENDBRANCH  16  17
ENDBRANCH  14  15
ENDBRANCH  13  14
ENDBRANCH  11  12
ENDBRANCH  10  11
ENDBRANCH   8   9
ENDBRANCH   7   8
ENDBRANCH   5   6
ENDBRANCH   4   5
ENDBRANCH   2   3
TORSDOF 13
ENDMDL
MODEL      502
REMARK 921   NORMALIZED FREE ENERGY PREDICTED BY IDOCK:    9.86 KCAL/MOL
REMARK 922        TOTAL FREE ENERGY PREDICTED BY IDOCK:   14.58 KCAL/MOL
REMARK 923 INTER-LIGAND FREE ENERGY PREDICTED BY IDOCK:   -0.45 KCAL/MOL
REMARK 924 INTRA-LIGAND FREE ENERGY PREDICTED BY IDOCK:   15.02 KCAL/MOL
REMARK 927      BINDING AFFINITY PREDICTED BY RF-SCORE:    0.00 PKD
ROOT
HETATM    1  C   UNL     1     -11.222   8.189  72.754  1.00  0.00    -0.407 C  
HETATM    2  C   UNL     1     -10.486   8.407  71.442  1.00  0.00    -0.286 C  
ENDROOT
BRANCH   2   3
HETATM    3  C   UNL     1     -10.038   9.830  71.263  1.00  0.00     0.208 C  
HETATM    4  C   UNL     1     -10.078  10.520  70.110  1.00  0.00     0.156 C  
BRANCH   4   5
HETATM    5  C   UNL     1     -10.490   9.964  68.776  1.00  0.00    -0.234 C  
BRANCH   5   6
HETATM    6  C   UNL     1      -9.464  10.240  67.712  1.00  0.00    -0.163 C  
HETATM    7  C   UNL     1      -8.489  11.165  67.768  1.00  0.00    -0.124 C  
BRANCH   7   8
HETATM    8  C   UNL     1      -8.282  12.113  68.912  1.00  0.00     0.161 C  
BRANCH   8   9
HETATM    9  C   UNL     1      -7.217  13.132  68.629  1.00  0.00    -0.106 C  
HETATM   10  C   UNL     1      -7.392  14.457  68.491  1.00  0.00    -0.122 C  
BRANCH  10  11
HETATM   11  C   UNL     1      -8.675  15.224  68.662  1.00  0.00    -0.182 C  
BRANCH  11  12
HETATM   12  C   UNL     1      -9.074  15.996  67.434  1.00  0.00    -0.207 C  
HETATM   13  C   UNL     1      -9.862  15.565  66.436  1.00  0.00    -0.298 C  
BRANCH  13  14
HETATM   14  C   UNL     1     -10.439  14.194  66.321  1.00  0.00    -0.286 C  
BRANCH  14  15
HETATM   15  C   UNL     1     -11.652  14.137  65.435  1.00  0.00    -0.334 C  
HETATM   16  C   UNL     1     -11.796  13.246  64.439  1.00  0.00    -0.448 C  
BRANCH  16  17
HETATM   17  C   UNL     1     -10.749  12.246  64.047  1.00  0.00    -0.438 C  
BRANCH  17  18
HETATM   18  C   UNL     1     -11.064  11.530  62.763  1.00  0.00     0.494 C  
HETATM   19  C   UNL     1     -10.410  10.422  62.368  1.00  0.00     0.917 C  
BRANCH  19  20
HETATM   20  C   UNL     1      -9.317   9.810  63.203  1.00  0.00    -0.125 C  
BRANCH  20  21
HETATM   21  C   UNL     1      -8.407  10.810  63.906  1.00  0.00     0.062 C  
HETATM   22  C   UNL     1      -9.250  11.707  64.786  1.00  0.00     0.111 C  
HETATM   23  O   UNL     1      -8.679  12.914  65.012  1.00  0.00     1.466 OA 
HETATM   24  O   UNL     1     -10.320  11.399  65.281  1.00  0.00    -0.259 OA 
ENDBRANCH  20  21
ENDBRANCH  19  20
ENDBRANCH  17  18
ENDBRANCH  16  17
ENDBRANCH  14  15
ENDBRANCH  13  14
ENDBRANCH  11  12
ENDBRANCH  10  11
ENDBRANCH   8   9
ENDBRANCH   7   8
ENDBRANCH   5   6
ENDBRANCH   4   5
ENDBRANCH   2   3
TORSDOF 13
ENDMDL
MODEL      503
REMARK 921   NORMALIZED FREE ENERGY PREDICTED BY IDOCK:   18.31 KCAL/MOL
REMARK 922        TOTAL FREE ENERGY PREDICTED BY IDOCK:   29.44 KCAL/MOL
REMARK 923 INTER-LIGAND FREE ENERGY PREDICTED BY IDOCK:    3.39 KCAL/MOL
REMARK 924 INTRA-LIGAND FREE ENERGY PREDICTED BY IDOCK:   26.05 KCAL/MOL
REMARK 927      BINDING AFFINITY PREDICTED BY RF-SCORE:    0.00 PKD
ROOT
HETATM    1  C   UNL     1      -7.047  16.468  65.366  1.00  0.00     3.214 C  
HETATM    2  C   UNL     1      -6.978  17.866  65.958  1.00  0.00    -0.346 C  
ENDROOT
BRANCH   2   3
HETATM    3  C   UNL     1      -8.108  18.743  65.497  1.00  0.00     0.649 C  
HETATM    4  C   UNL     1      -9.407  18.557  65.788  1.00  0.00     0.399 C  
BRANCH   4   5
HETATM    5  C   UNL     1      -9.972  17.388  66.546  1.00  0.00    -0.314 C  
BRANCH   5   6
HETATM    6  C   UNL     1     -10.692  16.427  65.640  1.00  0.00    -0.280 C  
HETATM    7  C   UNL     1     -11.473  15.404  66.028  1.00  0.00    -0.002 C  
BRANCH   7   8
HETATM    8  C   UNL     1     -11.733  15.026  67.457  1.00  0.00    -0.270 C  
BRANCH   8   9
HETATM    9  C   UNL     1     -10.522  14.447  68.128  1.00  0.00    -0.237 C  
HETATM   10  C   UNL     1      -9.481  13.848  67.526  1.00  0.00    -0.216 C  
BRANCH  10  11
HETATM   11  C   UNL     1      -9.259  13.689  66.046  1.00  0.00     0.072 C  
BRANCH  11  12
HETATM   12  C   UNL     1     -10.313  12.851  65.375  1.00  0.00    -0.310 C  
HETATM   13  C   UNL     1     -10.175  11.592  64.932  1.00  0.00    -0.324 C  
BRANCH  13  14
HETATM   14  C   UNL     1      -8.910  10.800  64.956  1.00  0.00    -0.190 C  
BRANCH  14  15
HETATM   15  C   UNL     1      -9.087   9.422  65.529  1.00  0.00    -0.270 C  
HETATM   16  C   UNL     1      -8.900   9.135  66.829  1.00  0.00    -0.143 C  
BRANCH  16  17
HETATM   17  C   UNL     1      -8.436  10.129  67.851  1.00  0.00    -0.118 C  
BRANCH  17  18
HETATM   18  C   UNL     1      -7.220  10.900  67.419  1.00  0.00    -0.094 C  
HETATM   19  C   UNL     1      -7.173  12.245  67.416  1.00  0.00    -0.147 C  
BRANCH  19  20
HETATM   20  C   UNL     1      -8.345  13.077  67.864  1.00  0.00    -0.170 C  
BRANCH  20  21
HETATM   21  C   UNL     1      -8.795  12.835  69.300  1.00  0.00     0.965 C  
HETATM   22  C   UNL     1      -9.276  11.406  69.429  1.00  0.00     0.527 C  
HETATM   23  O   UNL     1     -10.169  11.237  70.435  1.00  0.00     1.136 OA 
HETATM   24  O   UNL     1      -8.902  10.474  68.739  1.00  0.00    -0.141 OA 
ENDBRANCH  20  21
ENDBRANCH  19  20
ENDBRANCH  17  18
ENDBRANCH  16  17
ENDBRANCH  14  15
ENDBRANCH  13  14
ENDBRANCH  11  12
ENDBRANCH  10  11
ENDBRANCH   8   9
ENDBRANCH   7   8
ENDBRANCH   5   6
ENDBRANCH   4   5
ENDBRANCH   2   3
TORSDOF 13
ENDMDL
