MODEL        1
REMARK 921   NORMALIZED FREE ENERGY PREDICTED BY IDOCK:   -4.56 KCAL/MOL
REMARK 922        TOTAL FREE ENERGY PREDICTED BY IDOCK:  -12.76 KCAL/MOL
REMARK 923 INTER-LIGAND FREE ENERGY PREDICTED BY IDOCK:   -9.89 KCAL/MOL
REMARK 924 INTRA-LIGAND FREE ENERGY PREDICTED BY IDOCK:   -2.87 KCAL/MOL
REMARK 927      BINDING AFFINITY PREDICTED BY RF-SCORE:    0.00 PKD
ROOT
HETATM    1  C   UNL     1     -10.724   7.638  71.455  1.00  0.00    -0.249 C  
HETATM    2  C   UNL     1     -10.043   8.874  70.893  1.00  0.00    -0.304 C  
ENDROOT
BRANCH   2   3
HETATM    3  C   UNL     1     -10.996  10.066  70.876  1.00  0.00    -0.337 C  
BRANCH   3   4
HETATM    4  C   UNL     1     -12.449   9.611  70.978  1.00  0.00    -0.382 C  
BRANCH   4   5
HETATM    5  C   UNL     1     -13.264  10.589  71.819  1.00  0.00    -0.522 C  
BRANCH   5   6
HETATM    6  C   UNL     1     -12.799  12.023  71.586  1.00  0.00    -0.399 C  
BRANCH   6   7
HETATM    7  C   UNL     1     -13.680  13.004  72.349  1.00  0.00    -0.593 C  
BRANCH   7   8
HETATM    8  C   UNL     1     -12.947  14.320  72.573  1.00  0.00    -0.506 C  
BRANCH   8   9
HETATM    9  C   UNL     1     -13.194  15.276  71.414  1.00  0.00    -0.555 C  
BRANCH   9  10
HETATM   10  C   UNL     1     -11.916  16.019  71.052  1.00  0.00    -0.407 C  
BRANCH  10  11
HETATM   11  C   UNL     1     -10.927  15.080  70.374  1.00  0.00    -0.222 C  
BRANCH  11  12
HETATM   12  C   UNL     1     -11.470  14.612  69.031  1.00  0.00    -0.317 C  
BRANCH  12  13
HETATM   13  C   UNL     1     -10.865  13.270  68.651  1.00  0.00    -0.285 C  
BRANCH  13  14
HETATM   14  C   UNL     1     -11.882  12.415  67.906  1.00  0.00    -0.370 C  
BRANCH  14  15
HETATM   15  C   UNL     1     -11.251  11.108  67.452  1.00  0.00    -0.363 C  
BRANCH  15  16
HETATM   16  C   UNL     1      -9.956  11.373  66.695  1.00  0.00    -0.239 C  
BRANCH  16  17
HETATM   17  C   UNL     1      -9.941  10.617  65.372  1.00  0.00    -0.343 C  
BRANCH  17  18
HETATM   18  C   UNL     1     -11.017  11.154  64.435  1.00  0.00    -0.270 C  
BRANCH  18  19
HETATM   19  C   UNL     1     -10.552  12.437  63.754  1.00  0.00    -0.486 C  
BRANCH  19  20
HETATM   20  C   UNL     1     -11.352  13.634  64.255  1.00  0.00    -0.372 C  
BRANCH  20  21
HETATM   21  C   UNL     1     -10.460  14.609  65.013  1.00  0.00    -0.447 C  
BRANCH  21  22
HETATM   22  C   UNL     1     -11.025  16.023  64.972  1.00  0.00    -0.380 C  
HETATM   23  O   UNL     1     -11.640  16.259  63.712  1.00  0.00    -1.539 OA 
HETATM   24  H   UNL     1     -11.992  17.141  63.687  1.00  0.00     0.000 HD 
ENDBRANCH  21  22
ENDBRANCH  20  21
ENDBRANCH  19  20
ENDBRANCH  18  19
ENDBRANCH  17  18
ENDBRANCH  16  17
ENDBRANCH  15  16
ENDBRANCH  14  15
ENDBRANCH  13  14
ENDBRANCH  12  13
ENDBRANCH  11  12
ENDBRANCH  10  11
ENDBRANCH   9  10
ENDBRANCH   8   9
ENDBRANCH   7   8
ENDBRANCH   6   7
ENDBRANCH   5   6
ENDBRANCH   4   5
ENDBRANCH   3   4
ENDBRANCH   2   3
TORSDOF 20
ENDMDL
MODEL        2
REMARK 921   NORMALIZED FREE ENERGY PREDICTED BY IDOCK:   -4.48 KCAL/MOL
REMARK 922        TOTAL FREE ENERGY PREDICTED BY IDOCK:  -12.58 KCAL/MOL
REMARK 923 INTER-LIGAND FREE ENERGY PREDICTED BY IDOCK:   -9.72 KCAL/MOL
REMARK 924 INTRA-LIGAND FREE ENERGY PREDICTED BY IDOCK:   -2.85 KCAL/MOL
REMARK 927      BINDING AFFINITY PREDICTED BY RF-SCORE:    0.00 PKD
ROOT
HETATM    1  C   UNL     1      -6.597  19.043  65.291  1.00  0.00    -0.270 C  
HETATM    2  C   UNL     1      -7.081  20.284  66.021  1.00  0.00    -0.293 C  
ENDROOT
BRANCH   2   3
HETATM    3  C   UNL     1      -8.152  19.934  67.050  1.00  0.00    -0.345 C  
BRANCH   3   4
HETATM    4  C   UNL     1      -9.545  19.964  66.427  1.00  0.00    -0.537 C  
BRANCH   4   5
HETATM    5  C   UNL     1     -10.578  19.377  67.384  1.00  0.00    -0.603 C  
BRANCH   5   6
HETATM    6  C   UNL     1      -9.934  19.003  68.715  1.00  0.00    -0.475 C  
BRANCH   6   7
HETATM    7  C   UNL     1     -10.263  17.562  69.086  1.00  0.00    -0.256 C  
BRANCH   7   8
HETATM    8  C   UNL     1     -10.567  16.743  67.838  1.00  0.00    -0.350 C  
BRANCH   8   9
HETATM    9  C   UNL     1      -9.360  15.904  67.440  1.00  0.00    -0.214 C  
BRANCH   9  10
HETATM   10  C   UNL     1      -9.320  15.708  65.931  1.00  0.00    -0.357 C  
BRANCH  10  11
HETATM   11  C   UNL     1     -10.673  16.031  65.314  1.00  0.00    -0.417 C  
BRANCH  11  12
HETATM   12  C   UNL     1     -11.295  14.782  64.707  1.00  0.00    -0.399 C  
BRANCH  12  13
HETATM   13  C   UNL     1     -12.325  14.186  65.653  1.00  0.00    -0.473 C  
BRANCH  13  14
HETATM   14  C   UNL     1     -12.105  12.687  65.809  1.00  0.00    -0.484 C  
BRANCH  14  15
HETATM   15  C   UNL     1     -11.047  12.409  66.866  1.00  0.00    -0.335 C  
BRANCH  15  16
HETATM   16  C   UNL     1     -11.693  12.214  68.232  1.00  0.00    -0.401 C  
BRANCH  16  17
HETATM   17  C   UNL     1     -11.229  13.292  69.204  1.00  0.00    -0.305 C  
BRANCH  17  18
HETATM   18  C   UNL     1     -12.290  13.549  70.268  1.00  0.00    -0.370 C  
BRANCH  18  19
HETATM   19  C   UNL     1     -12.499  15.045  70.476  1.00  0.00    -0.425 C  
BRANCH  19  20
HETATM   20  C   UNL     1     -13.776  15.307  71.266  1.00  0.00    -0.570 C  
BRANCH  20  21
HETATM   21  C   UNL     1     -13.677  14.732  72.673  1.00  0.00    -0.547 C  
BRANCH  21  22
HETATM   22  C   UNL     1     -12.851  15.633  73.582  1.00  0.00    -0.574 C  
HETATM   23  O   UNL     1     -12.043  14.840  74.441  1.00  0.00    -0.723 OA 
HETATM   24  H   UNL     1     -11.528  15.402  75.008  1.00  0.00     0.000 HD 
ENDBRANCH  21  22
ENDBRANCH  20  21
ENDBRANCH  19  20
ENDBRANCH  18  19
ENDBRANCH  17  18
ENDBRANCH  16  17
ENDBRANCH  15  16
ENDBRANCH  14  15
ENDBRANCH  13  14
ENDBRANCH  12  13
ENDBRANCH  11  12
ENDBRANCH  10  11
ENDBRANCH   9  10
ENDBRANCH   8   9
ENDBRANCH   7   8
ENDBRANCH   6   7
ENDBRANCH   5   6
ENDBRANCH   4   5
ENDBRANCH   3   4
ENDBRANCH   2   3
TORSDOF 20
ENDMDL
MODEL        3
REMARK 921   NORMALIZED FREE ENERGY PREDICTED BY IDOCK:   -4.35 KCAL/MOL
REMARK 922        TOTAL FREE ENERGY PREDICTED BY IDOCK:  -12.32 KCAL/MOL
REMARK 923 INTER-LIGAND FREE ENERGY PREDICTED BY IDOCK:   -9.22 KCAL/MOL
REMARK 924 INTRA-LIGAND FREE ENERGY PREDICTED BY IDOCK:   -3.10 KCAL/MOL
REMARK 927      BINDING AFFINITY PREDICTED BY RF-SCORE:    0.00 PKD
ROOT
HETATM    1  C   UNL     1     -10.792  19.379  67.173  1.00  0.00    -0.561 C  
HETATM    2  C   UNL     1     -10.075  19.211  68.501  1.00  0.00    -0.499 C  
ENDROOT
BRANCH   2   3
HETATM    3  C   UNL     1      -8.578  19.001  68.295  1.00  0.00    -0.366 C  
BRANCH   3   4
HETATM    4  C   UNL     1      -8.159  17.590  68.700  1.00  0.00    -0.263 C  
BRANCH   4   5
HETATM    5  C   UNL     1      -8.464  16.595  67.584  1.00  0.00    -0.200 C  
BRANCH   5   6
HETATM    6  C   UNL     1      -9.417  15.509  68.071  1.00  0.00    -0.194 C  
BRANCH   6   7
HETATM    7  C   UNL     1     -10.852  15.834  67.675  1.00  0.00    -0.310 C  
BRANCH   7   8
HETATM    8  C   UNL     1     -11.778  15.729  68.880  1.00  0.00    -0.404 C  
BRANCH   8   9
HETATM    9  C   UNL     1     -10.998  15.317  70.121  1.00  0.00    -0.312 C  
BRANCH   9  10
HETATM   10  C   UNL     1     -11.930  15.181  71.317  1.00  0.00    -0.399 C  
BRANCH  10  11
HETATM   11  C   UNL     1     -13.382  15.132  70.860  1.00  0.00    -0.463 C  
BRANCH  11  12
HETATM   12  C   UNL     1     -14.185  14.183  71.738  1.00  0.00    -0.493 C  
BRANCH  12  13
HETATM   13  C   UNL     1     -13.263  13.200  72.442  1.00  0.00    -0.519 C  
BRANCH  13  14
HETATM   14  C   UNL     1     -13.396  11.810  71.832  1.00  0.00    -0.401 C  
BRANCH  14  15
HETATM   15  C   UNL     1     -12.146  11.453  71.042  1.00  0.00    -0.303 C  
BRANCH  15  16
HETATM   16  C   UNL     1     -12.405  11.575  69.546  1.00  0.00    -0.190 C  
BRANCH  16  17
HETATM   17  C   UNL     1     -11.137  11.278  68.754  1.00  0.00    -0.288 C  
BRANCH  17  18
HETATM   18  C   UNL     1     -11.020  12.212  67.556  1.00  0.00    -0.304 C  
BRANCH  18  19
HETATM   19  C   UNL     1     -10.568  11.450  66.315  1.00  0.00    -0.312 C  
BRANCH  19  20
HETATM   20  C   UNL     1     -11.245  12.002  65.066  1.00  0.00    -0.374 C  
BRANCH  20  21
HETATM   21  C   UNL     1     -12.230  13.109  65.421  1.00  0.00    -0.510 C  
BRANCH  21  22
HETATM   22  C   UNL     1     -12.125  14.276  64.448  1.00  0.00    -0.468 C  
HETATM   23  O   UNL     1     -12.412  13.829  63.129  1.00  0.00    -1.089 OA 
HETATM   24  H   UNL     1     -12.346  14.557  62.522  1.00  0.00     0.000 HD 
ENDBRANCH  21  22
ENDBRANCH  20  21
ENDBRANCH  19  20
ENDBRANCH  18  19
ENDBRANCH  17  18
ENDBRANCH  16  17
ENDBRANCH  15  16
ENDBRANCH  14  15
ENDBRANCH  13  14
ENDBRANCH  12  13
ENDBRANCH  11  12
ENDBRANCH  10  11
ENDBRANCH   9  10
ENDBRANCH   8   9
ENDBRANCH   7   8
ENDBRANCH   6   7
ENDBRANCH   5   6
ENDBRANCH   4   5
ENDBRANCH   3   4
ENDBRANCH   2   3
TORSDOF 20
ENDMDL
MODEL        4
REMARK 921   NORMALIZED FREE ENERGY PREDICTED BY IDOCK:   -4.33 KCAL/MOL
REMARK 922        TOTAL FREE ENERGY PREDICTED BY IDOCK:  -12.26 KCAL/MOL
REMARK 923 INTER-LIGAND FREE ENERGY PREDICTED BY IDOCK:   -9.34 KCAL/MOL
REMARK 924 INTRA-LIGAND FREE ENERGY PREDICTED BY IDOCK:   -2.92 KCAL/MOL
REMARK 927      BINDING AFFINITY PREDICTED BY RF-SCORE:    0.00 PKD
ROOT
HETATM    1  C   UNL     1     -10.845   5.943  66.766  1.00  0.00    -0.347 C  
HETATM    2  C   UNL     1      -9.979   7.129  67.157  1.00  0.00    -0.270 C  
ENDROOT
BRANCH   2   3
HETATM    3  C   UNL     1     -10.181   7.496  68.624  1.00  0.00    -0.210 C  
BRANCH   3   4
HETATM    4  C   UNL     1     -11.330   6.701  69.237  1.00  0.00    -0.301 C  
BRANCH   4   5
HETATM    5  C   UNL     1     -11.260   6.739  70.761  1.00  0.00    -0.352 C  
BRANCH   5   6
HETATM    6  C   UNL     1     -12.410   7.560  71.336  1.00  0.00    -0.374 C  
BRANCH   6   7
HETATM    7  C   UNL     1     -11.959   8.986  71.629  1.00  0.00    -0.426 C  
BRANCH   7   8
HETATM    8  C   UNL     1     -13.102   9.967  71.403  1.00  0.00    -0.500 C  
BRANCH   8   9
HETATM    9  C   UNL     1     -12.577  11.284  70.848  1.00  0.00    -0.467 C  
BRANCH   9  10
HETATM   10  C   UNL     1     -11.388  11.040  69.928  1.00  0.00    -0.364 C  
BRANCH  10  11
HETATM   11  C   UNL     1     -11.513  11.876  68.662  1.00  0.00    -0.350 C  
BRANCH  11  12
HETATM   12  C   UNL     1     -10.942  11.124  67.468  1.00  0.00    -0.331 C  
BRANCH  12  13
HETATM   13  C   UNL     1      -9.456  11.409  67.320  1.00  0.00    -0.176 C  
BRANCH  13  14
HETATM   14  C   UNL     1      -8.960  10.968  65.949  1.00  0.00    -0.208 C  
BRANCH  14  15
HETATM   15  C   UNL     1     -10.096  10.360  65.141  1.00  0.00    -0.379 C  
BRANCH  15  16
HETATM   16  C   UNL     1      -9.944  10.700  63.664  1.00  0.00    -0.364 C  
BRANCH  16  17
HETATM   17  C   UNL     1     -10.428  12.118  63.385  1.00  0.00    -0.450 C  
BRANCH  17  18
HETATM   18  C   UNL     1     -11.914  12.249  63.697  1.00  0.00    -0.633 C  
BRANCH  18  19
HETATM   19  C   UNL     1     -12.151  13.301  64.776  1.00  0.00    -0.456 C  
BRANCH  19  20
HETATM   20  C   UNL     1     -10.866  14.065  65.076  1.00  0.00    -0.401 C  
BRANCH  20  21
HETATM   21  C   UNL     1     -11.134  15.240  66.009  1.00  0.00    -0.278 C  
BRANCH  21  22
HETATM   22  C   UNL     1     -10.718  16.559  65.371  1.00  0.00    -0.259 C  
HETATM   23  O   UNL     1     -11.273  16.658  64.066  1.00  0.00    -1.449 OA 
HETATM   24  H   UNL     1     -11.013  17.481  63.668  1.00  0.00     0.000 HD 
ENDBRANCH  21  22
ENDBRANCH  20  21
ENDBRANCH  19  20
ENDBRANCH  18  19
ENDBRANCH  17  18
ENDBRANCH  16  17
ENDBRANCH  15  16
ENDBRANCH  14  15
ENDBRANCH  13  14
ENDBRANCH  12  13
ENDBRANCH  11  12
ENDBRANCH  10  11
ENDBRANCH   9  10
ENDBRANCH   8   9
ENDBRANCH   7   8
ENDBRANCH   6   7
ENDBRANCH   5   6
ENDBRANCH   4   5
ENDBRANCH   3   4
ENDBRANCH   2   3
TORSDOF 20
ENDMDL
MODEL        5
REMARK 921   NORMALIZED FREE ENERGY PREDICTED BY IDOCK:   -4.32 KCAL/MOL
REMARK 922        TOTAL FREE ENERGY PREDICTED BY IDOCK:  -12.23 KCAL/MOL
REMARK 923 INTER-LIGAND FREE ENERGY PREDICTED BY IDOCK:   -9.42 KCAL/MOL
REMARK 924 INTRA-LIGAND FREE ENERGY PREDICTED BY IDOCK:   -2.81 KCAL/MOL
REMARK 927      BINDING AFFINITY PREDICTED BY RF-SCORE:    0.00 PKD
ROOT
HETATM    1  C   UNL     1     -11.813   6.712  70.542  1.00  0.00    -0.430 C  
HETATM    2  C   UNL     1     -10.739   7.762  70.316  1.00  0.00    -0.237 C  
ENDROOT
BRANCH   2   3
HETATM    3  C   UNL     1     -10.966   8.981  71.205  1.00  0.00    -0.384 C  
BRANCH   3   4
HETATM    4  C   UNL     1     -12.235   8.826  72.038  1.00  0.00    -0.447 C  
BRANCH   4   5
HETATM    5  C   UNL     1     -13.136  10.047  71.883  1.00  0.00    -0.563 C  
BRANCH   5   6
HETATM    6  C   UNL     1     -12.770  10.836  70.630  1.00  0.00    -0.417 C  
BRANCH   6   7
HETATM    7  C   UNL     1     -12.557  12.307  70.963  1.00  0.00    -0.352 C  
BRANCH   7   8
HETATM    8  C   UNL     1     -13.449  12.728  72.124  1.00  0.00    -0.591 C  
BRANCH   8   9
HETATM    9  C   UNL     1     -13.282  14.214  72.417  1.00  0.00    -0.566 C  
BRANCH   9  10
HETATM   10  C   UNL     1     -13.387  15.027  71.135  1.00  0.00    -0.510 C  
BRANCH  10  11
HETATM   11  C   UNL     1     -12.055  15.690  70.812  1.00  0.00    -0.454 C  
BRANCH  11  12
HETATM   12  C   UNL     1     -11.777  15.630  69.317  1.00  0.00    -0.388 C  
BRANCH  12  13
HETATM   13  C   UNL     1     -10.311  15.319  69.059  1.00  0.00    -0.242 C  
BRANCH  13  14
HETATM   14  C   UNL     1      -9.943  15.631  67.615  1.00  0.00    -0.237 C  
BRANCH  14  15
HETATM   15  C   UNL     1      -8.771  14.772  67.165  1.00  0.00    -0.241 C  
BRANCH  15  16
HETATM   16  C   UNL     1      -8.481  13.683  68.190  1.00  0.00    -0.175 C  
BRANCH  16  17
HETATM   17  C   UNL     1      -8.780  12.306  67.611  1.00  0.00    -0.175 C  
BRANCH  17  18
HETATM   18  C   UNL     1      -9.973  11.674  68.318  1.00  0.00    -0.201 C  
BRANCH  18  19
HETATM   19  C   UNL     1     -11.095  11.376  67.329  1.00  0.00    -0.363 C  
BRANCH  19  20
HETATM   20  C   UNL     1     -11.820  12.659  66.934  1.00  0.00    -0.425 C  
BRANCH  20  21
HETATM   21  C   UNL     1     -12.086  12.696  65.434  1.00  0.00    -0.516 C  
BRANCH  21  22
HETATM   22  C   UNL     1     -12.154  14.128  64.919  1.00  0.00    -0.428 C  
HETATM   23  O   UNL     1     -12.534  14.130  63.550  1.00  0.00    -1.076 OA 
HETATM   24  H   UNL     1     -12.577  15.023  63.229  1.00  0.00     0.000 HD 
ENDBRANCH  21  22
ENDBRANCH  20  21
ENDBRANCH  19  20
ENDBRANCH  18  19
ENDBRANCH  17  18
ENDBRANCH  16  17
ENDBRANCH  15  16
ENDBRANCH  14  15
ENDBRANCH  13  14
ENDBRANCH  12  13
ENDBRANCH  11  12
ENDBRANCH  10  11
ENDBRANCH   9  10
ENDBRANCH   8   9
ENDBRANCH   7   8
ENDBRANCH   6   7
ENDBRANCH   5   6
ENDBRANCH   4   5
ENDBRANCH   3   4
ENDBRANCH   2   3
TORSDOF 20
ENDMDL
MODEL        6
REMARK 921   NORMALIZED FREE ENERGY PREDICTED BY IDOCK:   -4.31 KCAL/MOL
REMARK 922        TOTAL FREE ENERGY PREDICTED BY IDOCK:  -12.21 KCAL/MOL
REMARK 923 INTER-LIGAND FREE ENERGY PREDICTED BY IDOCK:  -10.15 KCAL/MOL
REMARK 924 INTRA-LIGAND FREE ENERGY PREDICTED BY IDOCK:   -2.07 KCAL/MOL
REMARK 927      BINDING AFFINITY PREDICTED BY RF-SCORE:    0.00 PKD
ROOT
HETATM    1  C   UNL     1     -12.642  11.874  63.426  1.00  0.00    -0.555 C  
HETATM    2  C   UNL     1     -11.850  13.099  63.851  1.00  0.00    -0.533 C  
ENDROOT
BRANCH   2   3
HETATM    3  C   UNL     1     -12.302  13.599  65.219  1.00  0.00    -0.498 C  
BRANCH   3   4
HETATM    4  C   UNL     1     -11.233  13.344  66.279  1.00  0.00    -0.322 C  
BRANCH   4   5
HETATM    5  C   UNL     1     -11.737  12.357  67.328  1.00  0.00    -0.419 C  
BRANCH   5   6
HETATM    6  C   UNL     1     -10.965  11.044  67.253  1.00  0.00    -0.356 C  
BRANCH   6   7
HETATM    7  C   UNL     1     -11.063  10.286  68.571  1.00  0.00    -0.294 C  
BRANCH   7   8
HETATM    8  C   UNL     1     -11.916  11.057  69.570  1.00  0.00    -0.413 C  
BRANCH   8   9
HETATM    9  C   UNL     1     -12.311  10.164  70.739  1.00  0.00    -0.422 C  
BRANCH   9  10
HETATM   10  C   UNL     1     -13.057  10.966  71.796  1.00  0.00    -0.564 C  
BRANCH  10  11
HETATM   11  C   UNL     1     -13.030  12.450  71.458  1.00  0.00    -0.385 C  
BRANCH  11  12
HETATM   12  C   UNL     1     -13.675  13.263  72.572  1.00  0.00    -0.613 C  
BRANCH  12  13
HETATM   13  C   UNL     1     -14.195  14.586  72.034  1.00  0.00    -0.630 C  
BRANCH  13  14
HETATM   14  C   UNL     1     -13.464  15.754  72.685  1.00  0.00    -0.624 C  
BRANCH  14  15
HETATM   15  C   UNL     1     -12.045  15.861  72.148  1.00  0.00    -0.596 C  
BRANCH  15  16
HETATM   16  C   UNL     1     -12.052  15.951  70.628  1.00  0.00    -0.367 C  
BRANCH  16  17
HETATM   17  C   UNL     1     -11.105  14.920  70.024  1.00  0.00    -0.263 C  
BRANCH  17  18
HETATM   18  C   UNL     1     -10.351  15.513  68.840  1.00  0.00    -0.221 C  
BRANCH  18  19
HETATM   19  C   UNL     1     -11.060  16.755  68.311  1.00  0.00    -0.259 C  
BRANCH  19  20
HETATM   20  C   UNL     1     -10.056  17.742  67.726  1.00  0.00    -0.345 C  
BRANCH  20  21
HETATM   21  C   UNL     1     -10.759  18.981  67.185  1.00  0.00    -0.541 C  
BRANCH  21  22
HETATM   22  C   UNL     1     -10.273  20.243  67.887  1.00  0.00    -0.304 C  
HETATM   23  O   UNL     1      -9.277  20.879  67.096  1.00  0.00    -0.621 OA 
HETATM   24  H   UNL     1      -8.974  21.666  67.534  1.00  0.00     0.000 HD 
ENDBRANCH  21  22
ENDBRANCH  20  21
ENDBRANCH  19  20
ENDBRANCH  18  19
ENDBRANCH  17  18
ENDBRANCH  16  17
ENDBRANCH  15  16
ENDBRANCH  14  15
ENDBRANCH  13  14
ENDBRANCH  12  13
ENDBRANCH  11  12
ENDBRANCH  10  11
ENDBRANCH   9  10
ENDBRANCH   8   9
ENDBRANCH   7   8
ENDBRANCH   6   7
ENDBRANCH   5   6
ENDBRANCH   4   5
ENDBRANCH   3   4
ENDBRANCH   2   3
TORSDOF 20
ENDMDL
MODEL        7
REMARK 921   NORMALIZED FREE ENERGY PREDICTED BY IDOCK:   -4.29 KCAL/MOL
REMARK 922        TOTAL FREE ENERGY PREDICTED BY IDOCK:  -12.17 KCAL/MOL
REMARK 923 INTER-LIGAND FREE ENERGY PREDICTED BY IDOCK:   -9.95 KCAL/MOL
REMARK 924 INTRA-LIGAND FREE ENERGY PREDICTED BY IDOCK:   -2.22 KCAL/MOL
REMARK 927      BINDING AFFINITY PREDICTED BY RF-SCORE:    0.00 PKD
ROOT
HETATM    1  C   UNL     1     -12.015  14.502  64.480  1.00  0.00    -0.482 C  
HETATM    2  C   UNL     1     -12.458  13.814  65.760  1.00  0.00    -0.527 C  
ENDROOT
BRANCH   2   3
HETATM    3  C   UNL     1     -11.954  12.375  65.813  1.00  0.00    -0.437 C  
BRANCH   3   4
HETATM    4  C   UNL     1     -11.002  12.169  66.988  1.00  0.00    -0.319 C  
BRANCH   4   5
HETATM    5  C   UNL     1     -11.764  12.189  68.310  1.00  0.00    -0.401 C  
BRANCH   5   6
HETATM    6  C   UNL     1     -11.610  10.862  69.045  1.00  0.00    -0.387 C  
BRANCH   6   7
HETATM    7  C   UNL     1     -12.074  10.990  70.491  1.00  0.00    -0.470 C  
BRANCH   7   8
HETATM    8  C   UNL     1     -12.357  12.446  70.835  1.00  0.00    -0.358 C  
BRANCH   8   9
HETATM    9  C   UNL     1     -13.410  12.543  71.931  1.00  0.00    -0.467 C  
BRANCH   9  10
HETATM   10  C   UNL     1     -13.772  13.997  72.198  1.00  0.00    -0.603 C  
BRANCH  10  11
HETATM   11  C   UNL     1     -12.796  14.617  73.188  1.00  0.00    -0.586 C  
BRANCH  11  12
HETATM   12  C   UNL     1     -12.122  15.839  72.579  1.00  0.00    -0.591 C  
BRANCH  12  13
HETATM   13  C   UNL     1     -12.478  15.964  71.106  1.00  0.00    -0.417 C  
BRANCH  13  14
HETATM   14  C   UNL     1     -11.218  16.078  70.258  1.00  0.00    -0.397 C  
BRANCH  14  15
HETATM   15  C   UNL     1     -11.525  15.769  68.801  1.00  0.00    -0.391 C  
BRANCH  15  16
HETATM   16  C   UNL     1     -10.676  16.634  67.879  1.00  0.00    -0.344 C  
BRANCH  16  17
HETATM   17  C   UNL     1     -10.357  17.971  68.538  1.00  0.00    -0.359 C  
BRANCH  17  18
HETATM   18  C   UNL     1     -10.806  19.127  67.653  1.00  0.00    -0.467 C  
BRANCH  18  19
HETATM   19  C   UNL     1      -9.678  20.134  67.461  1.00  0.00    -0.557 C  
BRANCH  19  20
HETATM   20  C   UNL     1      -8.992  19.927  66.115  1.00  0.00    -0.373 C  
BRANCH  20  21
HETATM   21  C   UNL     1      -7.496  19.695  66.293  1.00  0.00    -0.300 C  
BRANCH  21  22
HETATM   22  C   UNL     1      -7.205  18.259  66.710  1.00  0.00    -0.212 C  
HETATM   23  O   UNL     1      -7.677  17.364  65.712  1.00  0.00    -0.508 OA 
HETATM   24  H   UNL     1      -7.496  16.468  65.973  1.00  0.00     0.000 HD 
ENDBRANCH  21  22
ENDBRANCH  20  21
ENDBRANCH  19  20
ENDBRANCH  18  19
ENDBRANCH  17  18
ENDBRANCH  16  17
ENDBRANCH  15  16
ENDBRANCH  14  15
ENDBRANCH  13  14
ENDBRANCH  12  13
ENDBRANCH  11  12
ENDBRANCH  10  11
ENDBRANCH   9  10
ENDBRANCH   8   9
ENDBRANCH   7   8
ENDBRANCH   6   7
ENDBRANCH   5   6
ENDBRANCH   4   5
ENDBRANCH   3   4
ENDBRANCH   2   3
TORSDOF 20
ENDMDL
MODEL        8
REMARK 921   NORMALIZED FREE ENERGY PREDICTED BY IDOCK:   -4.19 KCAL/MOL
REMARK 922        TOTAL FREE ENERGY PREDICTED BY IDOCK:  -11.96 KCAL/MOL
REMARK 923 INTER-LIGAND FREE ENERGY PREDICTED BY IDOCK:   -8.93 KCAL/MOL
REMARK 924 INTRA-LIGAND FREE ENERGY PREDICTED BY IDOCK:   -3.02 KCAL/MOL
REMARK 927      BINDING AFFINITY PREDICTED BY RF-SCORE:    0.00 PKD
ROOT
HETATM    1  C   UNL     1     -10.872   6.146  68.989  1.00  0.00    -0.416 C  
HETATM    2  C   UNL     1     -11.737   6.517  70.181  1.00  0.00    -0.419 C  
ENDROOT
BRANCH   2   3
HETATM    3  C   UNL     1     -10.899   7.130  71.299  1.00  0.00    -0.254 C  
BRANCH   3   4
HETATM    4  C   UNL     1     -11.779   7.859  72.311  1.00  0.00    -0.408 C  
BRANCH   4   5
HETATM    5  C   UNL     1     -13.233   7.872  71.850  1.00  0.00    -0.314 C  
BRANCH   5   6
HETATM    6  C   UNL     1     -13.775   9.297  71.804  1.00  0.00    -0.443 C  
BRANCH   6   7
HETATM    7  C   UNL     1     -12.637  10.302  71.672  1.00  0.00    -0.534 C  
BRANCH   7   8
HETATM    8  C   UNL     1     -12.427  10.685  70.213  1.00  0.00    -0.381 C  
BRANCH   8   9
HETATM    9  C   UNL     1     -10.960  10.549  69.828  1.00  0.00    -0.350 C  
BRANCH   9  10
HETATM   10  C   UNL     1     -10.820   9.787  68.518  1.00  0.00    -0.227 C  
BRANCH  10  11
HETATM   11  C   UNL     1     -11.158  10.687  67.338  1.00  0.00    -0.341 C  
BRANCH  11  12
HETATM   12  C   UNL     1      -9.927  10.916  66.473  1.00  0.00    -0.255 C  
BRANCH  12  13
HETATM   13  C   UNL     1     -10.234  10.607  65.016  1.00  0.00    -0.380 C  
BRANCH  13  14
HETATM   14  C   UNL     1     -10.346  11.893  64.208  1.00  0.00    -0.362 C  
BRANCH  14  15
HETATM   15  C   UNL     1     -11.805  12.272  64.005  1.00  0.00    -0.530 C  
BRANCH  15  16
HETATM   16  C   UNL     1     -12.037  13.730  64.378  1.00  0.00    -0.474 C  
BRANCH  16  17
HETATM   17  C   UNL     1     -12.253  13.874  65.879  1.00  0.00    -0.497 C  
BRANCH  17  18
HETATM   18  C   UNL     1     -11.121  14.675  66.511  1.00  0.00    -0.329 C  
BRANCH  18  19
HETATM   19  C   UNL     1     -10.806  14.158  67.910  1.00  0.00    -0.253 C  
BRANCH  19  20
HETATM   20  C   UNL     1     -12.084  13.993  68.726  1.00  0.00    -0.338 C  
BRANCH  20  21
HETATM   21  C   UNL     1     -11.832  14.284  70.201  1.00  0.00    -0.379 C  
BRANCH  21  22
HETATM   22  C   UNL     1     -12.811  15.322  70.734  1.00  0.00    -0.437 C  
HETATM   23  O   UNL     1     -12.110  16.296  71.496  1.00  0.00    -0.612 OA 
HETATM   24  H   UNL     1     -12.720  16.944  71.828  1.00  0.00     0.000 HD 
ENDBRANCH  21  22
ENDBRANCH  20  21
ENDBRANCH  19  20
ENDBRANCH  18  19
ENDBRANCH  17  18
ENDBRANCH  16  17
ENDBRANCH  15  16
ENDBRANCH  14  15
ENDBRANCH  13  14
ENDBRANCH  12  13
ENDBRANCH  11  12
ENDBRANCH  10  11
ENDBRANCH   9  10
ENDBRANCH   8   9
ENDBRANCH   7   8
ENDBRANCH   6   7
ENDBRANCH   5   6
ENDBRANCH   4   5
ENDBRANCH   3   4
ENDBRANCH   2   3
TORSDOF 20
ENDMDL
MODEL        9
REMARK 921   NORMALIZED FREE ENERGY PREDICTED BY IDOCK:   -4.19 KCAL/MOL
REMARK 922        TOTAL FREE ENERGY PREDICTED BY IDOCK:  -11.95 KCAL/MOL
REMARK 923 INTER-LIGAND FREE ENERGY PREDICTED BY IDOCK:   -9.51 KCAL/MOL
REMARK 924 INTRA-LIGAND FREE ENERGY PREDICTED BY IDOCK:   -2.44 KCAL/MOL
REMARK 927      BINDING AFFINITY PREDICTED BY RF-SCORE:    0.00 PKD
ROOT
HETATM    1  C   UNL     1     -12.898  15.829  73.461  1.00  0.00    -0.702 C  
HETATM    2  C   UNL     1     -13.760  15.238  72.359  1.00  0.00    -0.622 C  
ENDROOT
BRANCH   2   3
HETATM    3  C   UNL     1     -13.081  15.371  70.999  1.00  0.00    -0.565 C  
BRANCH   3   4
HETATM    4  C   UNL     1     -12.284  14.115  70.657  1.00  0.00    -0.432 C  
BRANCH   4   5
HETATM    5  C   UNL     1     -12.901  12.887  71.320  1.00  0.00    -0.361 C  
BRANCH   5   6
HETATM    6  C   UNL     1     -12.361  11.604  70.697  1.00  0.00    -0.437 C  
BRANCH   6   7
HETATM    7  C   UNL     1     -11.965  11.837  69.244  1.00  0.00    -0.354 C  
BRANCH   7   8
HETATM    8  C   UNL     1     -10.838  10.897  68.837  1.00  0.00    -0.262 C  
BRANCH   8   9
HETATM    9  C   UNL     1     -10.501  11.070  67.362  1.00  0.00    -0.255 C  
BRANCH   9  10
HETATM   10  C   UNL     1     -10.399   9.715  66.675  1.00  0.00    -0.279 C  
BRANCH  10  11
HETATM   11  C   UNL     1      -9.892   9.877  65.249  1.00  0.00    -0.373 C  
BRANCH  11  12
HETATM   12  C   UNL     1      -9.825  11.349  64.870  1.00  0.00    -0.301 C  
BRANCH  12  13
HETATM   13  C   UNL     1     -10.467  11.579  63.511  1.00  0.00    -0.486 C  
BRANCH  13  14
HETATM   14  C   UNL     1     -11.880  12.125  63.671  1.00  0.00    -0.608 C  
BRANCH  14  15
HETATM   15  C   UNL     1     -11.845  13.556  64.185  1.00  0.00    -0.483 C  
BRANCH  15  16
HETATM   16  C   UNL     1     -12.843  13.743  65.320  1.00  0.00    -0.430 C  
BRANCH  16  17
HETATM   17  C   UNL     1     -12.135  14.204  66.589  1.00  0.00    -0.480 C  
BRANCH  17  18
HETATM   18  C   UNL     1     -10.701  14.619  66.283  1.00  0.00    -0.316 C  
BRANCH  18  19
HETATM   19  C   UNL     1     -10.254  15.747  67.207  1.00  0.00    -0.268 C  
BRANCH  19  20
HETATM   20  C   UNL     1      -9.479  16.806  66.431  1.00  0.00    -0.307 C  
BRANCH  20  21
HETATM   21  C   UNL     1     -10.365  18.003  66.106  1.00  0.00    -0.368 C  
BRANCH  21  22
HETATM   22  C   UNL     1     -10.615  18.857  67.341  1.00  0.00    -0.460 C  
HETATM   23  O   UNL     1      -9.754  19.989  67.326  1.00  0.00    -0.359 OA 
HETATM   24  H   UNL     1      -9.910  20.522  68.097  1.00  0.00     0.000 HD 
ENDBRANCH  21  22
ENDBRANCH  20  21
ENDBRANCH  19  20
ENDBRANCH  18  19
ENDBRANCH  17  18
ENDBRANCH  16  17
ENDBRANCH  15  16
ENDBRANCH  14  15
ENDBRANCH  13  14
ENDBRANCH  12  13
ENDBRANCH  11  12
ENDBRANCH  10  11
ENDBRANCH   9  10
ENDBRANCH   8   9
ENDBRANCH   7   8
ENDBRANCH   6   7
ENDBRANCH   5   6
ENDBRANCH   4   5
ENDBRANCH   3   4
ENDBRANCH   2   3
TORSDOF 20
ENDMDL
MODEL       10
REMARK 921   NORMALIZED FREE ENERGY PREDICTED BY IDOCK:   -4.19 KCAL/MOL
REMARK 922        TOTAL FREE ENERGY PREDICTED BY IDOCK:  -11.95 KCAL/MOL
REMARK 923 INTER-LIGAND FREE ENERGY PREDICTED BY IDOCK:   -8.68 KCAL/MOL
REMARK 924 INTRA-LIGAND FREE ENERGY PREDICTED BY IDOCK:   -3.27 KCAL/MOL
REMARK 927      BINDING AFFINITY PREDICTED BY RF-SCORE:    0.00 PKD
ROOT
HETATM    1  C   UNL     1      -7.902   9.893  69.364  1.00  0.00    -0.127 C  
HETATM    2  C   UNL     1      -8.740   9.186  70.415  1.00  0.00    -0.245 C  
ENDROOT
BRANCH   2   3
HETATM    3  C   UNL     1      -7.861   8.387  71.373  1.00  0.00    -0.137 C  
BRANCH   3   4
HETATM    4  C   UNL     1      -8.554   8.185  72.717  1.00  0.00    -0.269 C  
BRANCH   4   5
HETATM    5  C   UNL     1     -10.069   8.280  72.564  1.00  0.00    -0.376 C  
BRANCH   5   6
HETATM    6  C   UNL     1     -10.761   7.122  73.275  1.00  0.00    -0.403 C  
BRANCH   6   7
HETATM    7  C   UNL     1     -11.224   6.074  72.271  1.00  0.00    -0.341 C  
BRANCH   7   8
HETATM    8  C   UNL     1     -11.421   6.698  70.896  1.00  0.00    -0.401 C  
BRANCH   8   9
HETATM    9  C   UNL     1     -10.696   5.887  69.830  1.00  0.00    -0.411 C  
BRANCH   9  10
HETATM   10  C   UNL     1     -11.134   6.320  68.438  1.00  0.00    -0.371 C  
BRANCH  10  11
HETATM   11  C   UNL     1      -9.990   7.008  67.707  1.00  0.00    -0.186 C  
BRANCH  11  12
HETATM   12  C   UNL     1     -10.490   8.246  66.978  1.00  0.00    -0.384 C  
BRANCH  12  13
HETATM   13  C   UNL     1      -9.392   8.829  66.103  1.00  0.00    -0.297 C  
BRANCH  13  14
HETATM   14  C   UNL     1      -9.881  10.086  65.395  1.00  0.00    -0.384 C  
BRANCH  14  15
HETATM   15  C   UNL     1      -9.936  11.257  66.363  1.00  0.00    -0.252 C  
BRANCH  15  16
HETATM   16  C   UNL     1     -11.295  11.942  66.299  1.00  0.00    -0.394 C  
BRANCH  16  17
HETATM   17  C   UNL     1     -11.731  12.404  67.684  1.00  0.00    -0.412 C  
BRANCH  17  18
HETATM   18  C   UNL     1     -11.218  11.449  68.755  1.00  0.00    -0.308 C  
BRANCH  18  19
HETATM   19  C   UNL     1     -11.878  11.736  70.099  1.00  0.00    -0.408 C  
BRANCH  19  20
HETATM   20  C   UNL     1     -11.973  10.464  70.936  1.00  0.00    -0.478 C  
BRANCH  20  21
HETATM   21  C   UNL     1     -13.160  10.525  71.890  1.00  0.00    -0.567 C  
BRANCH  21  22
HETATM   22  C   UNL     1     -13.921   9.205  71.911  1.00  0.00    -0.345 C  
HETATM   23  O   UNL     1     -14.122   8.787  73.254  1.00  0.00    -1.180 OA 
HETATM   24  H   UNL     1     -14.596   7.964  73.267  1.00  0.00     0.000 HD 
ENDBRANCH  21  22
ENDBRANCH  20  21
ENDBRANCH  19  20
ENDBRANCH  18  19
ENDBRANCH  17  18
ENDBRANCH  16  17
ENDBRANCH  15  16
ENDBRANCH  14  15
ENDBRANCH  13  14
ENDBRANCH  12  13
ENDBRANCH  11  12
ENDBRANCH  10  11
ENDBRANCH   9  10
ENDBRANCH   8   9
ENDBRANCH   7   8
ENDBRANCH   6   7
ENDBRANCH   5   6
ENDBRANCH   4   5
ENDBRANCH   3   4
ENDBRANCH   2   3
TORSDOF 20
ENDMDL
MODEL       11
REMARK 921   NORMALIZED FREE ENERGY PREDICTED BY IDOCK:   -4.18 KCAL/MOL
REMARK 922        TOTAL FREE ENERGY PREDICTED BY IDOCK:  -11.94 KCAL/MOL
REMARK 923 INTER-LIGAND FREE ENERGY PREDICTED BY IDOCK:   -9.10 KCAL/MOL
REMARK 924 INTRA-LIGAND FREE ENERGY PREDICTED BY IDOCK:   -2.84 KCAL/MOL
REMARK 927      BINDING AFFINITY PREDICTED BY RF-SCORE:    0.00 PKD
ROOT
HETATM    1  C   UNL     1     -10.107  14.775  65.889  1.00  0.00    -0.343 C  
HETATM    2  C   UNL     1     -11.512  14.396  66.325  1.00  0.00    -0.361 C  
ENDROOT
BRANCH   2   3
HETATM    3  C   UNL     1     -12.410  14.137  65.119  1.00  0.00    -0.460 C  
BRANCH   3   4
HETATM    4  C   UNL     1     -12.612  12.641  64.894  1.00  0.00    -0.525 C  
BRANCH   4   5
HETATM    5  C   UNL     1     -12.097  12.229  63.518  1.00  0.00    -0.649 C  
BRANCH   5   6
HETATM    6  C   UNL     1     -10.582  12.055  63.535  1.00  0.00    -0.514 C  
BRANCH   6   7
HETATM    7  C   UNL     1     -10.197  10.753  64.225  1.00  0.00    -0.422 C  
BRANCH   7   8
HETATM    8  C   UNL     1      -9.442  11.034  65.518  1.00  0.00    -0.250 C  
BRANCH   8   9
HETATM    9  C   UNL     1     -10.146  10.384  66.702  1.00  0.00    -0.279 C  
BRANCH   9  10
HETATM   10  C   UNL     1     -10.269  11.368  67.857  1.00  0.00    -0.201 C  
BRANCH  10  11
HETATM   11  C   UNL     1     -11.680  11.347  68.429  1.00  0.00    -0.373 C  
BRANCH  11  12
HETATM   12  C   UNL     1     -11.692  10.674  69.794  1.00  0.00    -0.385 C  
BRANCH  12  13
HETATM   13  C   UNL     1     -12.356  11.573  70.825  1.00  0.00    -0.472 C  
BRANCH  13  14
HETATM   14  C   UNL     1     -12.274  13.032  70.395  1.00  0.00    -0.386 C  
BRANCH  14  15
HETATM   15  C   UNL     1     -12.812  13.942  71.489  1.00  0.00    -0.441 C  
BRANCH  15  16
HETATM   16  C   UNL     1     -12.474  15.397  71.190  1.00  0.00    -0.463 C  
BRANCH  16  17
HETATM   17  C   UNL     1     -11.985  15.552  69.755  1.00  0.00    -0.384 C  
BRANCH  17  18
HETATM   18  C   UNL     1     -10.626  16.240  69.723  1.00  0.00    -0.316 C  
BRANCH  18  19
HETATM   19  C   UNL     1     -10.566  17.271  68.601  1.00  0.00    -0.329 C  
BRANCH  19  20
HETATM   20  C   UNL     1      -9.125  17.689  68.327  1.00  0.00    -0.276 C  
BRANCH  20  21
HETATM   21  C   UNL     1      -8.996  18.338  66.954  1.00  0.00    -0.281 C  
BRANCH  21  22
HETATM   22  C   UNL     1      -9.014  19.857  67.057  1.00  0.00    -0.340 C  
HETATM   23  O   UNL     1      -9.700  20.407  65.939  1.00  0.00    -0.652 OA 
HETATM   24  H   UNL     1      -9.711  21.355  66.003  1.00  0.00     0.000 HD 
ENDBRANCH  21  22
ENDBRANCH  20  21
ENDBRANCH  19  20
ENDBRANCH  18  19
ENDBRANCH  17  18
ENDBRANCH  16  17
ENDBRANCH  15  16
ENDBRANCH  14  15
ENDBRANCH  13  14
ENDBRANCH  12  13
ENDBRANCH  11  12
ENDBRANCH  10  11
ENDBRANCH   9  10
ENDBRANCH   8   9
ENDBRANCH   7   8
ENDBRANCH   6   7
ENDBRANCH   5   6
ENDBRANCH   4   5
ENDBRANCH   3   4
ENDBRANCH   2   3
TORSDOF 20
ENDMDL
MODEL       12
REMARK 921   NORMALIZED FREE ENERGY PREDICTED BY IDOCK:   -4.18 KCAL/MOL
REMARK 922        TOTAL FREE ENERGY PREDICTED BY IDOCK:  -11.94 KCAL/MOL
REMARK 923 INTER-LIGAND FREE ENERGY PREDICTED BY IDOCK:   -9.27 KCAL/MOL
REMARK 924 INTRA-LIGAND FREE ENERGY PREDICTED BY IDOCK:   -2.67 KCAL/MOL
REMARK 927      BINDING AFFINITY PREDICTED BY RF-SCORE:    0.00 PKD
ROOT
HETATM    1  C   UNL     1     -12.519  15.236  73.984  1.00  0.00    -0.757 C  
HETATM    2  C   UNL     1     -13.151  15.565  72.642  1.00  0.00    -0.553 C  
ENDROOT
BRANCH   2   3
HETATM    3  C   UNL     1     -14.118  14.469  72.207  1.00  0.00    -0.594 C  
BRANCH   3   4
HETATM    4  C   UNL     1     -13.417  13.116  72.127  1.00  0.00    -0.653 C  
BRANCH   4   5
HETATM    5  C   UNL     1     -12.460  13.072  70.939  1.00  0.00    -0.396 C  
BRANCH   5   6
HETATM    6  C   UNL     1     -12.246  11.638  70.467  1.00  0.00    -0.451 C  
BRANCH   6   7
HETATM    7  C   UNL     1     -12.755  10.647  71.507  1.00  0.00    -0.549 C  
BRANCH   7   8
HETATM    8  C   UNL     1     -12.396   9.221  71.110  1.00  0.00    -0.363 C  
BRANCH   8   9
HETATM    9  C   UNL     1     -11.125   8.771  71.817  1.00  0.00    -0.417 C  
BRANCH   9  10
HETATM   10  C   UNL     1     -10.530   7.553  71.124  1.00  0.00    -0.216 C  
BRANCH  10  11
HETATM   11  C   UNL     1     -11.606   6.796  70.358  1.00  0.00    -0.422 C  
BRANCH  11  12
HETATM   12  C   UNL     1     -11.100   6.397  68.980  1.00  0.00    -0.424 C  
BRANCH  12  13
HETATM   13  C   UNL     1      -9.952   7.298  68.553  1.00  0.00    -0.168 C  
BRANCH  13  14
HETATM   14  C   UNL     1     -10.311   8.058  67.283  1.00  0.00    -0.371 C  
BRANCH  14  15
HETATM   15  C   UNL     1     -10.604   9.517  67.598  1.00  0.00    -0.329 C  
BRANCH  15  16
HETATM   16  C   UNL     1      -9.436  10.149  68.346  1.00  0.00    -0.147 C  
BRANCH  16  17
HETATM   17  C   UNL     1      -9.300  11.623  67.984  1.00  0.00    -0.178 C  
BRANCH  17  18
HETATM   18  C   UNL     1      -9.027  11.788  66.494  1.00  0.00    -0.196 C  
BRANCH  18  19
HETATM   19  C   UNL     1      -9.749  13.013  65.943  1.00  0.00    -0.187 C  
BRANCH  19  20
HETATM   20  C   UNL     1     -11.081  13.221  66.656  1.00  0.00    -0.311 C  
BRANCH  20  21
HETATM   21  C   UNL     1     -12.251  12.884  65.740  1.00  0.00    -0.498 C  
BRANCH  21  22
HETATM   22  C   UNL     1     -12.910  14.146  65.198  1.00  0.00    -0.294 C  
HETATM   23  O   UNL     1     -12.209  14.600  64.048  1.00  0.00    -0.794 OA 
HETATM   24  H   UNL     1     -12.620  15.387  63.710  1.00  0.00     0.000 HD 
ENDBRANCH  21  22
ENDBRANCH  20  21
ENDBRANCH  19  20
ENDBRANCH  18  19
ENDBRANCH  17  18
ENDBRANCH  16  17
ENDBRANCH  15  16
ENDBRANCH  14  15
ENDBRANCH  13  14
ENDBRANCH  12  13
ENDBRANCH  11  12
ENDBRANCH  10  11
ENDBRANCH   9  10
ENDBRANCH   8   9
ENDBRANCH   7   8
ENDBRANCH   6   7
ENDBRANCH   5   6
ENDBRANCH   4   5
ENDBRANCH   3   4
ENDBRANCH   2   3
TORSDOF 20
ENDMDL
MODEL       13
REMARK 921   NORMALIZED FREE ENERGY PREDICTED BY IDOCK:   -4.17 KCAL/MOL
REMARK 922        TOTAL FREE ENERGY PREDICTED BY IDOCK:  -11.91 KCAL/MOL
REMARK 923 INTER-LIGAND FREE ENERGY PREDICTED BY IDOCK:   -9.28 KCAL/MOL
REMARK 924 INTRA-LIGAND FREE ENERGY PREDICTED BY IDOCK:   -2.63 KCAL/MOL
REMARK 927      BINDING AFFINITY PREDICTED BY RF-SCORE:    0.00 PKD
ROOT
HETATM    1  C   UNL     1     -10.467  19.635  67.309  1.00  0.00    -0.596 C  
HETATM    2  C   UNL     1     -10.491  18.501  66.298  1.00  0.00    -0.441 C  
ENDROOT
BRANCH   2   3
HETATM    3  C   UNL     1     -10.308  17.150  66.983  1.00  0.00    -0.308 C  
BRANCH   3   4
HETATM    4  C   UNL     1      -9.520  16.188  66.098  1.00  0.00    -0.362 C  
BRANCH   4   5
HETATM    5  C   UNL     1     -10.250  14.854  65.968  1.00  0.00    -0.317 C  
BRANCH   5   6
HETATM    6  C   UNL     1     -11.355  14.939  64.921  1.00  0.00    -0.415 C  
BRANCH   6   7
HETATM    7  C   UNL     1     -12.591  14.176  65.380  1.00  0.00    -0.485 C  
BRANCH   7   8
HETATM    8  C   UNL     1     -12.577  12.754  64.836  1.00  0.00    -0.541 C  
BRANCH   8   9
HETATM    9  C   UNL     1     -11.888  12.706  63.479  1.00  0.00    -0.619 C  
BRANCH   9  10
HETATM   10  C   UNL     1     -10.780  11.662  63.479  1.00  0.00    -0.495 C  
BRANCH  10  11
HETATM   11  C   UNL     1     -10.569  11.107  64.881  1.00  0.00    -0.356 C  
BRANCH  11  12
HETATM   12  C   UNL     1      -9.455  10.070  64.881  1.00  0.00    -0.355 C  
BRANCH  12  13
HETATM   13  C   UNL     1      -9.180   9.585  66.296  1.00  0.00    -0.219 C  
BRANCH  13  14
HETATM   14  C   UNL     1     -10.378   9.855  67.197  1.00  0.00    -0.304 C  
BRANCH  14  15
HETATM   15  C   UNL     1      -9.936  10.537  68.483  1.00  0.00    -0.181 C  
BRANCH  15  16
HETATM   16  C   UNL     1     -10.245  12.028  68.432  1.00  0.00    -0.211 C  
BRANCH  16  17
HETATM   17  C   UNL     1     -11.735  12.276  68.636  1.00  0.00    -0.377 C  
BRANCH  17  18
HETATM   18  C   UNL     1     -11.968  13.207  69.819  1.00  0.00    -0.382 C  
BRANCH  18  19
HETATM   19  C   UNL     1     -11.381  14.588  69.546  1.00  0.00    -0.313 C  
BRANCH  19  20
HETATM   20  C   UNL     1     -12.199  15.669  70.245  1.00  0.00    -0.416 C  
BRANCH  20  21
HETATM   21  C   UNL     1     -11.730  15.867  71.681  1.00  0.00    -0.563 C  
BRANCH  21  22
HETATM   22  C   UNL     1     -12.885  15.728  72.664  1.00  0.00    -0.461 C  
HETATM   23  O   UNL     1     -12.436  15.075  73.844  1.00  0.00    -0.557 OA 
HETATM   24  H   UNL     1     -13.156  14.988  74.457  1.00  0.00     0.000 HD 
ENDBRANCH  21  22
ENDBRANCH  20  21
ENDBRANCH  19  20
ENDBRANCH  18  19
ENDBRANCH  17  18
ENDBRANCH  16  17
ENDBRANCH  15  16
ENDBRANCH  14  15
ENDBRANCH  13  14
ENDBRANCH  12  13
ENDBRANCH  11  12
ENDBRANCH  10  11
ENDBRANCH   9  10
ENDBRANCH   8   9
ENDBRANCH   7   8
ENDBRANCH   6   7
ENDBRANCH   5   6
ENDBRANCH   4   5
ENDBRANCH   3   4
ENDBRANCH   2   3
TORSDOF 20
ENDMDL
MODEL       14
REMARK 921   NORMALIZED FREE ENERGY PREDICTED BY IDOCK:   -4.16 KCAL/MOL
REMARK 922        TOTAL FREE ENERGY PREDICTED BY IDOCK:  -11.90 KCAL/MOL
REMARK 923 INTER-LIGAND FREE ENERGY PREDICTED BY IDOCK:   -9.50 KCAL/MOL
REMARK 924 INTRA-LIGAND FREE ENERGY PREDICTED BY IDOCK:   -2.40 KCAL/MOL
REMARK 927      BINDING AFFINITY PREDICTED BY RF-SCORE:    0.00 PKD
ROOT
HETATM    1  C   UNL     1     -12.189  14.376  64.330  1.00  0.00    -0.450 C  
HETATM    2  C   UNL     1     -12.083  12.901  63.982  1.00  0.00    -0.526 C  
ENDROOT
BRANCH   2   3
HETATM    3  C   UNL     1     -10.625  12.464  63.876  1.00  0.00    -0.470 C  
BRANCH   3   4
HETATM    4  C   UNL     1     -10.424  11.070  64.463  1.00  0.00    -0.411 C  
BRANCH   4   5
HETATM    5  C   UNL     1      -9.764  11.153  65.837  1.00  0.00    -0.268 C  
BRANCH   5   6
HETATM    6  C   UNL     1     -10.777  10.876  66.943  1.00  0.00    -0.318 C  
BRANCH   6   7
HETATM    7  C   UNL     1     -10.608  11.868  68.087  1.00  0.00    -0.233 C  
BRANCH   7   8
HETATM    8  C   UNL     1     -11.340  13.168  67.782  1.00  0.00    -0.326 C  
BRANCH   8   9
HETATM    9  C   UNL     1     -10.360  14.331  67.705  1.00  0.00    -0.248 C  
BRANCH   9  10
HETATM   10  C   UNL     1     -11.061  15.644  68.023  1.00  0.00    -0.335 C  
BRANCH  10  11
HETATM   11  C   UNL     1     -11.944  15.493  69.254  1.00  0.00    -0.338 C  
BRANCH  11  12
HETATM   12  C   UNL     1     -11.097  15.481  70.519  1.00  0.00    -0.369 C  
BRANCH  12  13
HETATM   13  C   UNL     1     -11.863  16.098  71.679  1.00  0.00    -0.557 C  
BRANCH  13  14
HETATM   14  C   UNL     1     -12.328  15.019  72.648  1.00  0.00    -0.446 C  
BRANCH  14  15
HETATM   15  C   UNL     1     -13.710  14.514  72.261  1.00  0.00    -0.559 C  
BRANCH  15  16
HETATM   16  C   UNL     1     -13.773  12.995  72.361  1.00  0.00    -0.593 C  
BRANCH  16  17
HETATM   17  C   UNL     1     -12.792  12.351  71.390  1.00  0.00    -0.360 C  
BRANCH  17  18
HETATM   18  C   UNL     1     -13.006  10.843  71.331  1.00  0.00    -0.527 C  
BRANCH  18  19
HETATM   19  C   UNL     1     -11.685  10.117  71.097  1.00  0.00    -0.453 C  
BRANCH  19  20
HETATM   20  C   UNL     1     -11.627   8.828  71.910  1.00  0.00    -0.432 C  
BRANCH  20  21
HETATM   21  C   UNL     1     -10.862   7.744  71.162  1.00  0.00    -0.254 C  
BRANCH  21  22
HETATM   22  C   UNL     1     -11.800   6.657  70.652  1.00  0.00    -0.383 C  
HETATM   23  O   UNL     1     -11.704   6.563  69.237  1.00  0.00    -0.644 OA 
HETATM   24  H   UNL     1     -12.289   5.886  68.919  1.00  0.00     0.000 HD 
ENDBRANCH  21  22
ENDBRANCH  20  21
ENDBRANCH  19  20
ENDBRANCH  18  19
ENDBRANCH  17  18
ENDBRANCH  16  17
ENDBRANCH  15  16
ENDBRANCH  14  15
ENDBRANCH  13  14
ENDBRANCH  12  13
ENDBRANCH  11  12
ENDBRANCH  10  11
ENDBRANCH   9  10
ENDBRANCH   8   9
ENDBRANCH   7   8
ENDBRANCH   6   7
ENDBRANCH   5   6
ENDBRANCH   4   5
ENDBRANCH   3   4
ENDBRANCH   2   3
TORSDOF 20
ENDMDL
MODEL       15
REMARK 921   NORMALIZED FREE ENERGY PREDICTED BY IDOCK:   -4.16 KCAL/MOL
REMARK 922        TOTAL FREE ENERGY PREDICTED BY IDOCK:  -11.90 KCAL/MOL
REMARK 923 INTER-LIGAND FREE ENERGY PREDICTED BY IDOCK:   -8.95 KCAL/MOL
REMARK 924 INTRA-LIGAND FREE ENERGY PREDICTED BY IDOCK:   -2.95 KCAL/MOL
REMARK 927      BINDING AFFINITY PREDICTED BY RF-SCORE:    0.00 PKD
ROOT
HETATM    1  C   UNL     1      -9.178   7.027  68.561  1.00  0.00    -0.137 C  
HETATM    2  C   UNL     1     -10.584   6.640  68.135  1.00  0.00    -0.294 C  
ENDROOT
BRANCH   2   3
HETATM    3  C   UNL     1     -11.483   6.417  69.347  1.00  0.00    -0.374 C  
BRANCH   3   4
HETATM    4  C   UNL     1     -10.663   6.052  70.581  1.00  0.00    -0.341 C  
BRANCH   4   5
HETATM    5  C   UNL     1     -11.383   6.484  71.855  1.00  0.00    -0.327 C  
BRANCH   5   6
HETATM    6  C   UNL     1     -12.605   7.334  71.526  1.00  0.00    -0.415 C  
BRANCH   6   7
HETATM    7  C   UNL     1     -12.495   8.708  72.177  1.00  0.00    -0.453 C  
BRANCH   7   8
HETATM    8  C   UNL     1     -11.560   9.606  71.378  1.00  0.00    -0.472 C  
BRANCH   8   9
HETATM    9  C   UNL     1     -12.242  10.926  71.040  1.00  0.00    -0.464 C  
BRANCH   9  10
HETATM   10  C   UNL     1     -11.774  11.438  69.686  1.00  0.00    -0.415 C  
BRANCH  10  11
HETATM   11  C   UNL     1     -11.125  10.318  68.886  1.00  0.00    -0.278 C  
BRANCH  11  12
HETATM   12  C   UNL     1     -11.079  10.675  67.407  1.00  0.00    -0.341 C  
BRANCH  12  13
HETATM   13  C   UNL     1      -9.708  10.366  66.827  1.00  0.00    -0.224 C  
BRANCH  13  14
HETATM   14  C   UNL     1      -9.440  11.227  65.599  1.00  0.00    -0.254 C  
BRANCH  14  15
HETATM   15  C   UNL     1     -10.272  10.748  64.419  1.00  0.00    -0.432 C  
BRANCH  15  16
HETATM   16  C   UNL     1     -10.778  11.932  63.605  1.00  0.00    -0.502 C  
BRANCH  16  17
HETATM   17  C   UNL     1     -12.289  12.075  63.746  1.00  0.00    -0.602 C  
BRANCH  17  18
HETATM   18  C   UNL     1     -12.635  12.984  64.919  1.00  0.00    -0.490 C  
BRANCH  18  19
HETATM   19  C   UNL     1     -11.888  14.310  64.817  1.00  0.00    -0.436 C  
BRANCH  19  20
HETATM   20  C   UNL     1     -11.079  14.572  66.083  1.00  0.00    -0.334 C  
BRANCH  20  21
HETATM   21  C   UNL     1     -11.900  14.265  67.330  1.00  0.00    -0.444 C  
BRANCH  21  22
HETATM   22  C   UNL     1     -11.607  15.262  68.444  1.00  0.00    -0.349 C  
HETATM   23  O   UNL     1     -12.689  15.284  69.365  1.00  0.00    -0.577 OA 
HETATM   24  H   UNL     1     -12.506  15.906  70.060  1.00  0.00     0.000 HD 
ENDBRANCH  21  22
ENDBRANCH  20  21
ENDBRANCH  19  20
ENDBRANCH  18  19
ENDBRANCH  17  18
ENDBRANCH  16  17
ENDBRANCH  15  16
ENDBRANCH  14  15
ENDBRANCH  13  14
ENDBRANCH  12  13
ENDBRANCH  11  12
ENDBRANCH  10  11
ENDBRANCH   9  10
ENDBRANCH   8   9
ENDBRANCH   7   8
ENDBRANCH   6   7
ENDBRANCH   5   6
ENDBRANCH   4   5
ENDBRANCH   3   4
ENDBRANCH   2   3
TORSDOF 20
ENDMDL
MODEL       16
REMARK 921   NORMALIZED FREE ENERGY PREDICTED BY IDOCK:   -4.13 KCAL/MOL
REMARK 922        TOTAL FREE ENERGY PREDICTED BY IDOCK:  -11.83 KCAL/MOL
REMARK 923 INTER-LIGAND FREE ENERGY PREDICTED BY IDOCK:   -8.96 KCAL/MOL
REMARK 924 INTRA-LIGAND FREE ENERGY PREDICTED BY IDOCK:   -2.87 KCAL/MOL
REMARK 927      BINDING AFFINITY PREDICTED BY RF-SCORE:    0.00 PKD
ROOT
HETATM    1  C   UNL     1     -10.333  17.492  67.224  1.00  0.00    -0.337 C  
HETATM    2  C   UNL     1      -9.870  16.051  67.352  1.00  0.00    -0.236 C  
ENDROOT
BRANCH   2   3
HETATM    3  C   UNL     1      -9.584  15.442  65.982  1.00  0.00    -0.382 C  
BRANCH   3   4
HETATM    4  C   UNL     1     -10.878  15.160  65.224  1.00  0.00    -0.414 C  
BRANCH   4   5
HETATM    5  C   UNL     1     -11.855  14.377  66.096  1.00  0.00    -0.391 C  
BRANCH   5   6
HETATM    6  C   UNL     1     -12.619  13.350  65.268  1.00  0.00    -0.518 C  
BRANCH   6   7
HETATM    7  C   UNL     1     -12.092  13.312  63.838  1.00  0.00    -0.531 C  
BRANCH   7   8
HETATM    8  C   UNL     1     -11.681  11.896  63.456  1.00  0.00    -0.550 C  
BRANCH   8   9
HETATM    9  C   UNL     1     -10.165  11.755  63.473  1.00  0.00    -0.483 C  
BRANCH   9  10
HETATM   10  C   UNL     1      -9.753  10.515  64.255  1.00  0.00    -0.391 C  
BRANCH  10  11
HETATM   11  C   UNL     1     -10.050  10.695  65.737  1.00  0.00    -0.327 C  
BRANCH  11  12
HETATM   12  C   UNL     1      -9.118  11.734  66.345  1.00  0.00    -0.215 C  
BRANCH  12  13
HETATM   13  C   UNL     1      -9.564  12.087  67.755  1.00  0.00    -0.193 C  
BRANCH  13  14
HETATM   14  C   UNL     1     -10.663  11.142  68.223  1.00  0.00    -0.234 C  
BRANCH  14  15
HETATM   15  C   UNL     1     -10.305  10.532  69.570  1.00  0.00    -0.251 C  
BRANCH  15  16
HETATM   16  C   UNL     1     -11.564  10.141  70.333  1.00  0.00    -0.396 C  
BRANCH  16  17
HETATM   17  C   UNL     1     -12.637  11.213  70.184  1.00  0.00    -0.249 C  
BRANCH  17  18
HETATM   18  C   UNL     1     -12.605  12.174  71.367  1.00  0.00    -0.314 C  
BRANCH  18  19
HETATM   19  C   UNL     1     -12.251  13.585  70.910  1.00  0.00    -0.387 C  
BRANCH  19  20
HETATM   20  C   UNL     1     -13.279  14.590  71.418  1.00  0.00    -0.424 C  
BRANCH  20  21
HETATM   21  C   UNL     1     -13.205  14.730  72.934  1.00  0.00    -0.597 C  
BRANCH  21  22
HETATM   22  C   UNL     1     -12.698  16.108  73.338  1.00  0.00    -0.527 C  
HETATM   23  O   UNL     1     -11.996  16.700  72.254  1.00  0.00    -0.613 OA 
HETATM   24  H   UNL     1     -11.680  17.559  72.506  1.00  0.00     0.000 HD 
ENDBRANCH  21  22
ENDBRANCH  20  21
ENDBRANCH  19  20
ENDBRANCH  18  19
ENDBRANCH  17  18
ENDBRANCH  16  17
ENDBRANCH  15  16
ENDBRANCH  14  15
ENDBRANCH  13  14
ENDBRANCH  12  13
ENDBRANCH  11  12
ENDBRANCH  10  11
ENDBRANCH   9  10
ENDBRANCH   8   9
ENDBRANCH   7   8
ENDBRANCH   6   7
ENDBRANCH   5   6
ENDBRANCH   4   5
ENDBRANCH   3   4
ENDBRANCH   2   3
TORSDOF 20
ENDMDL
MODEL       17
REMARK 921   NORMALIZED FREE ENERGY PREDICTED BY IDOCK:   -4.12 KCAL/MOL
REMARK 922        TOTAL FREE ENERGY PREDICTED BY IDOCK:  -11.81 KCAL/MOL
REMARK 923 INTER-LIGAND FREE ENERGY PREDICTED BY IDOCK:  -10.10 KCAL/MOL
REMARK 924 INTRA-LIGAND FREE ENERGY PREDICTED BY IDOCK:   -1.71 KCAL/MOL
REMARK 927      BINDING AFFINITY PREDICTED BY RF-SCORE:    0.00 PKD
ROOT
HETATM    1  C   UNL     1     -11.065   6.485  68.153  1.00  0.00    -0.332 C  
HETATM    2  C   UNL     1      -9.979   5.664  68.827  1.00  0.00    -0.221 C  
ENDROOT
BRANCH   2   3
HETATM    3  C   UNL     1     -10.411   5.219  70.221  1.00  0.00    -0.332 C  
BRANCH   3   4
HETATM    4  C   UNL     1     -10.569   6.415  71.156  1.00  0.00    -0.282 C  
BRANCH   4   5
HETATM    5  C   UNL     1     -11.917   6.369  71.869  1.00  0.00    -0.381 C  
BRANCH   5   6
HETATM    6  C   UNL     1     -12.641   7.706  71.749  1.00  0.00    -0.359 C  
BRANCH   6   7
HETATM    7  C   UNL     1     -11.669   8.863  71.945  1.00  0.00    -0.439 C  
BRANCH   7   8
HETATM    8  C   UNL     1     -12.051  10.041  71.057  1.00  0.00    -0.469 C  
BRANCH   8   9
HETATM    9  C   UNL     1     -13.095  10.912  71.742  1.00  0.00    -0.564 C  
BRANCH   9  10
HETATM   10  C   UNL     1     -12.815  12.385  71.484  1.00  0.00    -0.377 C  
BRANCH  10  11
HETATM   11  C   UNL     1     -13.739  13.259  72.321  1.00  0.00    -0.686 C  
BRANCH  11  12
HETATM   12  C   UNL     1     -13.848  14.652  71.717  1.00  0.00    -0.530 C  
BRANCH  12  13
HETATM   13  C   UNL     1     -12.823  15.585  72.342  1.00  0.00    -0.495 C  
BRANCH  13  14
HETATM   14  C   UNL     1     -11.734  15.937  71.337  1.00  0.00    -0.530 C  
BRANCH  14  15
HETATM   15  C   UNL     1     -12.156  15.537  69.931  1.00  0.00    -0.378 C  
BRANCH  15  16
HETATM   16  C   UNL     1     -11.209  16.131  68.898  1.00  0.00    -0.351 C  
BRANCH  16  17
HETATM   17  C   UNL     1     -10.782  15.072  67.887  1.00  0.00    -0.268 C  
BRANCH  17  18
HETATM   18  C   UNL     1     -11.087  13.674  68.413  1.00  0.00    -0.289 C  
BRANCH  18  19
HETATM   19  C   UNL     1     -11.859  12.862  67.379  1.00  0.00    -0.418 C  
BRANCH  19  20
HETATM   20  C   UNL     1     -11.951  13.619  66.057  1.00  0.00    -0.447 C  
BRANCH  20  21
HETATM   21  C   UNL     1     -12.429  12.704  64.936  1.00  0.00    -0.564 C  
BRANCH  21  22
HETATM   22  C   UNL     1     -12.067  13.270  63.569  1.00  0.00    -0.482 C  
HETATM   23  O   UNL     1     -12.696  14.532  63.389  1.00  0.00    -0.905 OA 
HETATM   24  H   UNL     1     -12.471  14.885  62.536  1.00  0.00     0.000 HD 
ENDBRANCH  21  22
ENDBRANCH  20  21
ENDBRANCH  19  20
ENDBRANCH  18  19
ENDBRANCH  17  18
ENDBRANCH  16  17
ENDBRANCH  15  16
ENDBRANCH  14  15
ENDBRANCH  13  14
ENDBRANCH  12  13
ENDBRANCH  11  12
ENDBRANCH  10  11
ENDBRANCH   9  10
ENDBRANCH   8   9
ENDBRANCH   7   8
ENDBRANCH   6   7
ENDBRANCH   5   6
ENDBRANCH   4   5
ENDBRANCH   3   4
ENDBRANCH   2   3
TORSDOF 20
ENDMDL
MODEL       18
REMARK 921   NORMALIZED FREE ENERGY PREDICTED BY IDOCK:   -4.12 KCAL/MOL
REMARK 922        TOTAL FREE ENERGY PREDICTED BY IDOCK:  -11.80 KCAL/MOL
REMARK 923 INTER-LIGAND FREE ENERGY PREDICTED BY IDOCK:   -9.00 KCAL/MOL
REMARK 924 INTRA-LIGAND FREE ENERGY PREDICTED BY IDOCK:   -2.80 KCAL/MOL
REMARK 927      BINDING AFFINITY PREDICTED BY RF-SCORE:    0.00 PKD
ROOT
HETATM    1  C   UNL     1     -11.067  10.560  67.625  1.00  0.00    -0.375 C  
HETATM    2  C   UNL     1      -9.659  11.103  67.459  1.00  0.00    -0.181 C  
ENDROOT
BRANCH   2   3
HETATM    3  C   UNL     1      -9.244  11.113  65.990  1.00  0.00    -0.223 C  
BRANCH   3   4
HETATM    4  C   UNL     1     -10.343  10.535  65.104  1.00  0.00    -0.310 C  
BRANCH   4   5
HETATM    5  C   UNL     1     -10.510  11.369  63.838  1.00  0.00    -0.444 C  
BRANCH   5   6
HETATM    6  C   UNL     1     -10.886  12.807  64.181  1.00  0.00    -0.437 C  
BRANCH   6   7
HETATM    7  C   UNL     1     -12.296  12.872  64.756  1.00  0.00    -0.516 C  
BRANCH   7   8
HETATM    8  C   UNL     1     -12.337  13.789  65.971  1.00  0.00    -0.499 C  
BRANCH   8   9
HETATM    9  C   UNL     1     -10.977  14.431  66.205  1.00  0.00    -0.318 C  
BRANCH   9  10
HETATM   10  C   UNL     1     -10.864  14.940  67.635  1.00  0.00    -0.286 C  
BRANCH  10  11
HETATM   11  C   UNL     1     -11.668  14.058  68.580  1.00  0.00    -0.389 C  
BRANCH  11  12
HETATM   12  C   UNL     1     -12.202  14.875  69.748  1.00  0.00    -0.328 C  
BRANCH  12  13
HETATM   13  C   UNL     1     -12.682  13.960  70.864  1.00  0.00    -0.410 C  
BRANCH  13  14
HETATM   14  C   UNL     1     -12.266  12.520  70.591  1.00  0.00    -0.365 C  
BRANCH  14  15
HETATM   15  C   UNL     1     -12.993  11.568  71.529  1.00  0.00    -0.485 C  
BRANCH  15  16
HETATM   16  C   UNL     1     -12.863  10.131  71.040  1.00  0.00    -0.474 C  
BRANCH  16  17
HETATM   17  C   UNL     1     -13.499   9.166  72.033  1.00  0.00    -0.510 C  
BRANCH  17  18
HETATM   18  C   UNL     1     -13.011   7.743  71.787  1.00  0.00    -0.351 C  
BRANCH  18  19
HETATM   19  C   UNL     1     -11.548   7.594  72.191  1.00  0.00    -0.354 C  
BRANCH  19  20
HETATM   20  C   UNL     1     -10.757   6.878  71.102  1.00  0.00    -0.252 C  
BRANCH  20  21
HETATM   21  C   UNL     1     -11.656   6.504  69.929  1.00  0.00    -0.433 C  
BRANCH  21  22
HETATM   22  C   UNL     1     -10.837   6.093  68.713  1.00  0.00    -0.336 C  
HETATM   23  O   UNL     1     -11.498   6.509  67.525  1.00  0.00    -0.721 OA 
HETATM   24  H   UNL     1     -10.987   6.252  66.766  1.00  0.00     0.000 HD 
ENDBRANCH  21  22
ENDBRANCH  20  21
ENDBRANCH  19  20
ENDBRANCH  18  19
ENDBRANCH  17  18
ENDBRANCH  16  17
ENDBRANCH  15  16
ENDBRANCH  14  15
ENDBRANCH  13  14
ENDBRANCH  12  13
ENDBRANCH  11  12
ENDBRANCH  10  11
ENDBRANCH   9  10
ENDBRANCH   8   9
ENDBRANCH   7   8
ENDBRANCH   6   7
ENDBRANCH   5   6
ENDBRANCH   4   5
ENDBRANCH   3   4
ENDBRANCH   2   3
TORSDOF 20
ENDMDL
MODEL       19
REMARK 921   NORMALIZED FREE ENERGY PREDICTED BY IDOCK:   -4.11 KCAL/MOL
REMARK 922        TOTAL FREE ENERGY PREDICTED BY IDOCK:  -11.79 KCAL/MOL
REMARK 923 INTER-LIGAND FREE ENERGY PREDICTED BY IDOCK:   -9.60 KCAL/MOL
REMARK 924 INTRA-LIGAND FREE ENERGY PREDICTED BY IDOCK:   -2.19 KCAL/MOL
REMARK 927      BINDING AFFINITY PREDICTED BY RF-SCORE:    0.00 PKD
ROOT
HETATM    1  C   UNL     1      -8.566  10.092  64.526  1.00  0.00    -0.197 C  
HETATM    2  C   UNL     1      -9.851  10.129  65.335  1.00  0.00    -0.375 C  
ENDROOT
BRANCH   2   3
HETATM    3  C   UNL     1      -9.562  10.043  66.831  1.00  0.00    -0.219 C  
BRANCH   3   4
HETATM    4  C   UNL     1     -10.837   9.768  67.623  1.00  0.00    -0.301 C  
BRANCH   4   5
HETATM    5  C   UNL     1     -10.570   9.851  69.123  1.00  0.00    -0.240 C  
BRANCH   5   6
HETATM    6  C   UNL     1     -11.713  10.564  69.839  1.00  0.00    -0.372 C  
BRANCH   6   7
HETATM    7  C   UNL     1     -12.066   9.846  71.135  1.00  0.00    -0.466 C  
BRANCH   7   8
HETATM    8  C   UNL     1     -13.009  10.694  71.978  1.00  0.00    -0.466 C  
BRANCH   8   9
HETATM    9  C   UNL     1     -13.031  12.132  71.477  1.00  0.00    -0.398 C  
BRANCH   9  10
HETATM   10  C   UNL     1     -13.799  13.023  72.442  1.00  0.00    -0.526 C  
BRANCH  10  11
HETATM   11  C   UNL     1     -14.243  14.303  71.748  1.00  0.00    -0.540 C  
BRANCH  11  12
HETATM   12  C   UNL     1     -13.812  15.522  72.551  1.00  0.00    -0.669 C  
BRANCH  12  13
HETATM   13  C   UNL     1     -12.295  15.590  72.642  1.00  0.00    -0.512 C  
BRANCH  13  14
HETATM   14  C   UNL     1     -11.720  16.340  71.448  1.00  0.00    -0.427 C  
BRANCH  14  15
HETATM   15  C   UNL     1     -11.038  15.375  70.489  1.00  0.00    -0.361 C  
BRANCH  15  16
HETATM   16  C   UNL     1     -11.779  15.329  69.159  1.00  0.00    -0.355 C  
BRANCH  16  17
HETATM   17  C   UNL     1     -12.048  13.887  68.743  1.00  0.00    -0.344 C  
BRANCH  17  18
HETATM   18  C   UNL     1     -11.040  13.434  67.694  1.00  0.00    -0.288 C  
BRANCH  18  19
HETATM   19  C   UNL     1     -11.750  12.867  66.469  1.00  0.00    -0.453 C  
BRANCH  19  20
HETATM   20  C   UNL     1     -12.669  13.912  65.847  1.00  0.00    -0.466 C  
BRANCH  20  21
HETATM   21  C   UNL     1     -12.144  14.363  64.489  1.00  0.00    -0.498 C  
BRANCH  21  22
HETATM   22  C   UNL     1     -11.482  13.213  63.742  1.00  0.00    -0.373 C  
HETATM   23  O   UNL     1     -10.069  13.305  63.871  1.00  0.00    -0.754 OA 
HETATM   24  H   UNL     1      -9.657  12.587  63.405  1.00  0.00     0.000 HD 
ENDBRANCH  21  22
ENDBRANCH  20  21
ENDBRANCH  19  20
ENDBRANCH  18  19
ENDBRANCH  17  18
ENDBRANCH  16  17
ENDBRANCH  15  16
ENDBRANCH  14  15
ENDBRANCH  13  14
ENDBRANCH  12  13
ENDBRANCH  11  12
ENDBRANCH  10  11
ENDBRANCH   9  10
ENDBRANCH   8   9
ENDBRANCH   7   8
ENDBRANCH   6   7
ENDBRANCH   5   6
ENDBRANCH   4   5
ENDBRANCH   3   4
ENDBRANCH   2   3
TORSDOF 20
ENDMDL
MODEL       20
REMARK 921   NORMALIZED FREE ENERGY PREDICTED BY IDOCK:   -4.11 KCAL/MOL
REMARK 922        TOTAL FREE ENERGY PREDICTED BY IDOCK:  -11.78 KCAL/MOL
REMARK 923 INTER-LIGAND FREE ENERGY PREDICTED BY IDOCK:   -9.67 KCAL/MOL
REMARK 924 INTRA-LIGAND FREE ENERGY PREDICTED BY IDOCK:   -2.11 KCAL/MOL
REMARK 927      BINDING AFFINITY PREDICTED BY RF-SCORE:    0.00 PKD
ROOT
HETATM    1  C   UNL     1     -13.200   9.415  71.946  1.00  0.00    -0.507 C  
HETATM    2  C   UNL     1     -12.099   8.432  72.307  1.00  0.00    -0.456 C  
ENDROOT
BRANCH   2   3
HETATM    3  C   UNL     1     -11.184   8.170  71.115  1.00  0.00    -0.289 C  
BRANCH   3   4
HETATM    4  C   UNL     1     -10.017   9.152  71.091  1.00  0.00    -0.377 C  
BRANCH   4   5
HETATM    5  C   UNL     1      -9.771   9.664  69.675  1.00  0.00    -0.230 C  
BRANCH   5   6
HETATM    6  C   UNL     1     -11.002  10.387  69.138  1.00  0.00    -0.285 C  
BRANCH   6   7
HETATM    7  C   UNL     1     -10.986  10.418  67.614  1.00  0.00    -0.374 C  
BRANCH   7   8
HETATM    8  C   UNL     1     -10.271   9.193  67.060  1.00  0.00    -0.333 C  
BRANCH   8   9
HETATM    9  C   UNL     1      -9.736   9.470  65.662  1.00  0.00    -0.361 C  
BRANCH   9  10
HETATM   10  C   UNL     1      -9.867  10.948  65.323  1.00  0.00    -0.318 C  
BRANCH  10  11
HETATM   11  C   UNL     1     -10.665  11.132  64.039  1.00  0.00    -0.409 C  
BRANCH  11  12
HETATM   12  C   UNL     1     -11.241  12.539  63.966  1.00  0.00    -0.461 C  
BRANCH  12  13
HETATM   13  C   UNL     1     -12.480  12.653  64.841  1.00  0.00    -0.564 C  
BRANCH  13  14
HETATM   14  C   UNL     1     -12.730  14.105  65.228  1.00  0.00    -0.425 C  
BRANCH  14  15
HETATM   15  C   UNL     1     -11.790  14.528  66.347  1.00  0.00    -0.361 C  
BRANCH  15  16
HETATM   16  C   UNL     1     -11.974  13.635  67.568  1.00  0.00    -0.393 C  
BRANCH  16  17
HETATM   17  C   UNL     1     -11.213  14.195  68.763  1.00  0.00    -0.294 C  
BRANCH  17  18
HETATM   18  C   UNL     1     -11.821  15.517  69.216  1.00  0.00    -0.372 C  
BRANCH  18  19
HETATM   19  C   UNL     1     -12.604  15.338  70.512  1.00  0.00    -0.450 C  
BRANCH  19  20
HETATM   20  C   UNL     1     -11.795  15.836  71.705  1.00  0.00    -0.549 C  
BRANCH  20  21
HETATM   21  C   UNL     1     -12.084  15.004  72.948  1.00  0.00    -0.428 C  
BRANCH  21  22
HETATM   22  C   UNL     1     -12.524  15.882  74.112  1.00  0.00    -0.643 C  
HETATM   23  O   UNL     1     -13.763  16.508  73.801  1.00  0.00    -0.786 OA 
HETATM   24  H   UNL     1     -14.037  17.056  74.527  1.00  0.00     0.000 HD 
ENDBRANCH  21  22
ENDBRANCH  20  21
ENDBRANCH  19  20
ENDBRANCH  18  19
ENDBRANCH  17  18
ENDBRANCH  16  17
ENDBRANCH  15  16
ENDBRANCH  14  15
ENDBRANCH  13  14
ENDBRANCH  12  13
ENDBRANCH  11  12
ENDBRANCH  10  11
ENDBRANCH   9  10
ENDBRANCH   8   9
ENDBRANCH   7   8
ENDBRANCH   6   7
ENDBRANCH   5   6
ENDBRANCH   4   5
ENDBRANCH   3   4
ENDBRANCH   2   3
TORSDOF 20
ENDMDL
MODEL       21
REMARK 921   NORMALIZED FREE ENERGY PREDICTED BY IDOCK:   -4.10 KCAL/MOL
REMARK 922        TOTAL FREE ENERGY PREDICTED BY IDOCK:  -11.77 KCAL/MOL
REMARK 923 INTER-LIGAND FREE ENERGY PREDICTED BY IDOCK:   -9.53 KCAL/MOL
REMARK 924 INTRA-LIGAND FREE ENERGY PREDICTED BY IDOCK:   -2.24 KCAL/MOL
REMARK 927      BINDING AFFINITY PREDICTED BY RF-SCORE:    0.00 PKD
ROOT
HETATM    1  C   UNL     1      -6.438  20.572  65.608  1.00  0.00    -0.276 C  
HETATM    2  C   UNL     1      -6.951  21.049  66.956  1.00  0.00    -0.373 C  
ENDROOT
BRANCH   2   3
HETATM    3  C   UNL     1      -8.039  20.122  67.490  1.00  0.00    -0.356 C  
BRANCH   3   4
HETATM    4  C   UNL     1      -9.044  19.767  66.397  1.00  0.00    -0.452 C  
BRANCH   4   5
HETATM    5  C   UNL     1     -10.173  18.909  66.960  1.00  0.00    -0.437 C  
BRANCH   5   6
HETATM    6  C   UNL     1     -10.069  18.802  68.477  1.00  0.00    -0.444 C  
BRANCH   6   7
HETATM    7  C   UNL     1      -9.915  17.347  68.904  1.00  0.00    -0.308 C  
BRANCH   7   8
HETATM    8  C   UNL     1     -11.013  16.489  68.288  1.00  0.00    -0.346 C  
BRANCH   8   9
HETATM    9  C   UNL     1     -11.902  15.895  69.373  1.00  0.00    -0.325 C  
BRANCH   9  10
HETATM   10  C   UNL     1     -11.212  15.966  70.728  1.00  0.00    -0.398 C  
BRANCH  10  11
HETATM   11  C   UNL     1     -12.147  15.487  71.829  1.00  0.00    -0.476 C  
BRANCH  11  12
HETATM   12  C   UNL     1     -13.205  14.552  71.261  1.00  0.00    -0.422 C  
BRANCH  12  13
HETATM   13  C   UNL     1     -13.511  13.434  72.245  1.00  0.00    -0.683 C  
BRANCH  13  14
HETATM   14  C   UNL     1     -12.983  12.103  71.725  1.00  0.00    -0.437 C  
BRANCH  14  15
HETATM   15  C   UNL     1     -12.306  12.288  70.376  1.00  0.00    -0.309 C  
BRANCH  15  16
HETATM   16  C   UNL     1     -11.388  11.111  70.071  1.00  0.00    -0.326 C  
BRANCH  16  17
HETATM   17  C   UNL     1     -10.619  11.350  68.777  1.00  0.00    -0.235 C  
BRANCH  17  18
HETATM   18  C   UNL     1     -10.497  12.842  68.492  1.00  0.00    -0.260 C  
BRANCH  18  19
HETATM   19  C   UNL     1     -10.598  13.118  66.996  1.00  0.00    -0.259 C  
BRANCH  19  20
HETATM   20  C   UNL     1     -11.540  12.123  66.326  1.00  0.00    -0.424 C  
BRANCH  20  21
HETATM   21  C   UNL     1     -12.418  12.814  65.289  1.00  0.00    -0.528 C  
BRANCH  21  22
HETATM   22  C   UNL     1     -11.930  14.229  65.006  1.00  0.00    -0.410 C  
HETATM   23  O   UNL     1     -12.461  14.682  63.768  1.00  0.00    -1.041 OA 
HETATM   24  H   UNL     1     -12.157  15.564  63.591  1.00  0.00     0.000 HD 
ENDBRANCH  21  22
ENDBRANCH  20  21
ENDBRANCH  19  20
ENDBRANCH  18  19
ENDBRANCH  17  18
ENDBRANCH  16  17
ENDBRANCH  15  16
ENDBRANCH  14  15
ENDBRANCH  13  14
ENDBRANCH  12  13
ENDBRANCH  11  12
ENDBRANCH  10  11
ENDBRANCH   9  10
ENDBRANCH   8   9
ENDBRANCH   7   8
ENDBRANCH   6   7
ENDBRANCH   5   6
ENDBRANCH   4   5
ENDBRANCH   3   4
ENDBRANCH   2   3
TORSDOF 20
ENDMDL
MODEL       22
REMARK 921   NORMALIZED FREE ENERGY PREDICTED BY IDOCK:   -4.10 KCAL/MOL
REMARK 922        TOTAL FREE ENERGY PREDICTED BY IDOCK:  -11.76 KCAL/MOL
REMARK 923 INTER-LIGAND FREE ENERGY PREDICTED BY IDOCK:   -8.84 KCAL/MOL
REMARK 924 INTRA-LIGAND FREE ENERGY PREDICTED BY IDOCK:   -2.93 KCAL/MOL
REMARK 927      BINDING AFFINITY PREDICTED BY RF-SCORE:    0.00 PKD
ROOT
HETATM    1  C   UNL     1     -11.418   6.576  69.980  1.00  0.00    -0.476 C  
HETATM    2  C   UNL     1     -12.321   7.065  71.100  1.00  0.00    -0.423 C  
ENDROOT
BRANCH   2   3
HETATM    3  C   UNL     1     -11.530   7.856  72.138  1.00  0.00    -0.377 C  
BRANCH   3   4
HETATM    4  C   UNL     1     -11.115   9.219  71.591  1.00  0.00    -0.438 C  
BRANCH   4   5
HETATM    5  C   UNL     1     -12.340  10.081  71.302  1.00  0.00    -0.496 C  
BRANCH   5   6
HETATM    6  C   UNL     1     -12.081  11.013  70.123  1.00  0.00    -0.438 C  
BRANCH   6   7
HETATM    7  C   UNL     1     -10.770  10.657  69.433  1.00  0.00    -0.281 C  
BRANCH   7   8
HETATM    8  C   UNL     1     -10.998  10.393  67.951  1.00  0.00    -0.354 C  
BRANCH   8   9
HETATM    9  C   UNL     1     -10.401   9.052  67.546  1.00  0.00    -0.328 C  
BRANCH   9  10
HETATM   10  C   UNL     1      -9.881   9.107  66.117  1.00  0.00    -0.363 C  
BRANCH  10  11
HETATM   11  C   UNL     1     -10.114  10.486  65.516  1.00  0.00    -0.349 C  
BRANCH  11  12
HETATM   12  C   UNL     1      -9.578  10.546  64.093  1.00  0.00    -0.369 C  
BRANCH  12  13
HETATM   13  C   UNL     1     -10.262  11.658  63.313  1.00  0.00    -0.445 C  
BRANCH  13  14
HETATM   14  C   UNL     1     -11.674  11.888  63.835  1.00  0.00    -0.509 C  
BRANCH  14  15
HETATM   15  C   UNL     1     -12.139  13.301  63.512  1.00  0.00    -0.550 C  
BRANCH  15  16
HETATM   16  C   UNL     1     -12.745  13.960  64.744  1.00  0.00    -0.248 C  
BRANCH  16  17
HETATM   17  C   UNL     1     -12.283  13.255  66.014  1.00  0.00    -0.483 C  
BRANCH  17  18
HETATM   18  C   UNL     1     -11.509  14.215  66.910  1.00  0.00    -0.373 C  
BRANCH  18  19
HETATM   19  C   UNL     1     -10.009  14.102  66.659  1.00  0.00    -0.280 C  
BRANCH  19  20
HETATM   20  C   UNL     1      -9.485  15.346  65.949  1.00  0.00    -0.369 C  
BRANCH  20  21
HETATM   21  C   UNL     1     -10.403  16.539  66.188  1.00  0.00    -0.344 C  
BRANCH  21  22
HETATM   22  C   UNL     1      -9.603  17.804  66.471  1.00  0.00    -0.308 C  
HETATM   23  O   UNL     1      -8.825  17.628  67.648  1.00  0.00    -0.232 OA 
HETATM   24  H   UNL     1      -8.326  18.417  67.824  1.00  0.00     0.000 HD 
ENDBRANCH  21  22
ENDBRANCH  20  21
ENDBRANCH  19  20
ENDBRANCH  18  19
ENDBRANCH  17  18
ENDBRANCH  16  17
ENDBRANCH  15  16
ENDBRANCH  14  15
ENDBRANCH  13  14
ENDBRANCH  12  13
ENDBRANCH  11  12
ENDBRANCH  10  11
ENDBRANCH   9  10
ENDBRANCH   8   9
ENDBRANCH   7   8
ENDBRANCH   6   7
ENDBRANCH   5   6
ENDBRANCH   4   5
ENDBRANCH   3   4
ENDBRANCH   2   3
TORSDOF 20
ENDMDL
MODEL       23
REMARK 921   NORMALIZED FREE ENERGY PREDICTED BY IDOCK:   -4.10 KCAL/MOL
REMARK 922        TOTAL FREE ENERGY PREDICTED BY IDOCK:  -11.76 KCAL/MOL
REMARK 923 INTER-LIGAND FREE ENERGY PREDICTED BY IDOCK:   -8.58 KCAL/MOL
REMARK 924 INTRA-LIGAND FREE ENERGY PREDICTED BY IDOCK:   -3.18 KCAL/MOL
REMARK 927      BINDING AFFINITY PREDICTED BY RF-SCORE:    0.00 PKD
ROOT
HETATM    1  C   UNL     1      -6.586  18.754  65.406  1.00  0.00    -0.282 C  
HETATM    2  C   UNL     1      -7.243  20.039  65.882  1.00  0.00    -0.327 C  
ENDROOT
BRANCH   2   3
HETATM    3  C   UNL     1      -8.329  19.750  66.915  1.00  0.00    -0.348 C  
BRANCH   3   4
HETATM    4  C   UNL     1      -9.708  19.699  66.263  1.00  0.00    -0.511 C  
BRANCH   4   5
HETATM    5  C   UNL     1     -10.738  19.117  67.226  1.00  0.00    -0.585 C  
BRANCH   5   6
HETATM    6  C   UNL     1     -10.109  18.828  68.585  1.00  0.00    -0.432 C  
BRANCH   6   7
HETATM    7  C   UNL     1     -10.169  17.339  68.900  1.00  0.00    -0.349 C  
BRANCH   7   8
HETATM    8  C   UNL     1     -10.695  16.558  67.702  1.00  0.00    -0.311 C  
BRANCH   8   9
HETATM    9  C   UNL     1      -9.661  15.549  67.224  1.00  0.00    -0.216 C  
BRANCH   9  10
HETATM   10  C   UNL     1      -9.690  15.432  65.706  1.00  0.00    -0.385 C  
BRANCH  10  11
HETATM   11  C   UNL     1     -10.943  16.088  65.144  1.00  0.00    -0.360 C  
BRANCH  11  12
HETATM   12  C   UNL     1     -11.782  15.071  64.384  1.00  0.00    -0.320 C  
BRANCH  12  13
HETATM   13  C   UNL     1     -12.405  14.071  65.344  1.00  0.00    -0.495 C  
BRANCH  13  14
HETATM   14  C   UNL     1     -12.540  12.706  64.682  1.00  0.00    -0.517 C  
BRANCH  14  15
HETATM   15  C   UNL     1     -11.170  12.147  64.327  1.00  0.00    -0.409 C  
BRANCH  15  16
HETATM   16  C   UNL     1     -10.672  11.213  65.422  1.00  0.00    -0.259 C  
BRANCH  16  17
HETATM   17  C   UNL     1      -9.512  11.846  66.182  1.00  0.00    -0.243 C  
BRANCH  17  18
HETATM   18  C   UNL     1      -9.929  12.193  67.606  1.00  0.00    -0.199 C  
BRANCH  18  19
HETATM   19  C   UNL     1     -11.217  11.472  67.985  1.00  0.00    -0.335 C  
BRANCH  19  20
HETATM   20  C   UNL     1     -11.714  11.935  69.351  1.00  0.00    -0.401 C  
BRANCH  20  21
HETATM   21  C   UNL     1     -11.455  13.424  69.550  1.00  0.00    -0.308 C  
BRANCH  21  22
HETATM   22  C   UNL     1     -12.462  14.036  70.515  1.00  0.00    -0.359 C  
HETATM   23  O   UNL     1     -12.956  15.259  69.984  1.00  0.00    -0.633 OA 
HETATM   24  H   UNL     1     -13.583  15.640  70.586  1.00  0.00     0.000 HD 
ENDBRANCH  21  22
ENDBRANCH  20  21
ENDBRANCH  19  20
ENDBRANCH  18  19
ENDBRANCH  17  18
ENDBRANCH  16  17
ENDBRANCH  15  16
ENDBRANCH  14  15
ENDBRANCH  13  14
ENDBRANCH  12  13
ENDBRANCH  11  12
ENDBRANCH  10  11
ENDBRANCH   9  10
ENDBRANCH   8   9
ENDBRANCH   7   8
ENDBRANCH   6   7
ENDBRANCH   5   6
ENDBRANCH   4   5
ENDBRANCH   3   4
ENDBRANCH   2   3
TORSDOF 20
ENDMDL
MODEL       24
REMARK 921   NORMALIZED FREE ENERGY PREDICTED BY IDOCK:   -4.10 KCAL/MOL
REMARK 922        TOTAL FREE ENERGY PREDICTED BY IDOCK:  -11.76 KCAL/MOL
REMARK 923 INTER-LIGAND FREE ENERGY PREDICTED BY IDOCK:   -8.76 KCAL/MOL
REMARK 924 INTRA-LIGAND FREE ENERGY PREDICTED BY IDOCK:   -3.00 KCAL/MOL
REMARK 927      BINDING AFFINITY PREDICTED BY RF-SCORE:    0.00 PKD
ROOT
HETATM    1  C   UNL     1      -9.581  10.965  64.162  1.00  0.00    -0.321 C  
HETATM    2  C   UNL     1     -10.188  11.364  65.496  1.00  0.00    -0.312 C  
ENDROOT
BRANCH   2   3
HETATM    3  C   UNL     1     -10.251  10.174  66.449  1.00  0.00    -0.288 C  
BRANCH   3   4
HETATM    4  C   UNL     1     -11.269  10.413  67.561  1.00  0.00    -0.254 C  
BRANCH   4   5
HETATM    5  C   UNL     1     -10.729   9.924  68.901  1.00  0.00    -0.244 C  
BRANCH   5   6
HETATM    6  C   UNL     1     -11.227  10.806  70.041  1.00  0.00    -0.366 C  
BRANCH   6   7
HETATM    7  C   UNL     1     -12.006   9.981  71.059  1.00  0.00    -0.469 C  
BRANCH   7   8
HETATM    8  C   UNL     1     -13.013  10.853  71.797  1.00  0.00    -0.557 C  
BRANCH   8   9
HETATM    9  C   UNL     1     -12.872  12.310  71.376  1.00  0.00    -0.373 C  
BRANCH   9  10
HETATM   10  C   UNL     1     -13.728  13.207  72.259  1.00  0.00    -0.647 C  
BRANCH  10  11
HETATM   11  C   UNL     1     -13.810  14.610  71.675  1.00  0.00    -0.522 C  
BRANCH  11  12
HETATM   12  C   UNL     1     -12.473  15.325  71.815  1.00  0.00    -0.431 C  
BRANCH  12  13
HETATM   13  C   UNL     1     -11.965  15.777  70.455  1.00  0.00    -0.401 C  
BRANCH  13  14
HETATM   14  C   UNL     1     -10.574  15.215  70.190  1.00  0.00    -0.227 C  
BRANCH  14  15
HETATM   15  C   UNL     1     -10.598  14.271  68.997  1.00  0.00    -0.243 C  
BRANCH  15  16
HETATM   16  C   UNL     1     -11.942  14.343  68.284  1.00  0.00    -0.323 C  
BRANCH  16  17
HETATM   17  C   UNL     1     -11.746  14.423  66.774  1.00  0.00    -0.415 C  
BRANCH  17  18
HETATM   18  C   UNL     1     -10.347  14.926  66.440  1.00  0.00    -0.291 C  
BRANCH  18  19
HETATM   19  C   UNL     1     -10.381  16.394  66.030  1.00  0.00    -0.365 C  
BRANCH  19  20
HETATM   20  C   UNL     1      -9.603  17.250  67.024  1.00  0.00    -0.262 C  
BRANCH  20  21
HETATM   21  C   UNL     1     -10.532  18.192  67.780  1.00  0.00    -0.421 C  
BRANCH  21  22
HETATM   22  C   UNL     1      -9.765  19.366  68.373  1.00  0.00    -0.408 C  
HETATM   23  O   UNL     1     -10.360  19.756  69.604  1.00  0.00    -0.620 OA 
HETATM   24  H   UNL     1      -9.881  20.489  69.975  1.00  0.00     0.000 HD 
ENDBRANCH  21  22
ENDBRANCH  20  21
ENDBRANCH  19  20
ENDBRANCH  18  19
ENDBRANCH  17  18
ENDBRANCH  16  17
ENDBRANCH  15  16
ENDBRANCH  14  15
ENDBRANCH  13  14
ENDBRANCH  12  13
ENDBRANCH  11  12
ENDBRANCH  10  11
ENDBRANCH   9  10
ENDBRANCH   8   9
ENDBRANCH   7   8
ENDBRANCH   6   7
ENDBRANCH   5   6
ENDBRANCH   4   5
ENDBRANCH   3   4
ENDBRANCH   2   3
TORSDOF 20
ENDMDL
MODEL       25
REMARK 921   NORMALIZED FREE ENERGY PREDICTED BY IDOCK:   -4.10 KCAL/MOL
REMARK 922        TOTAL FREE ENERGY PREDICTED BY IDOCK:  -11.76 KCAL/MOL
REMARK 923 INTER-LIGAND FREE ENERGY PREDICTED BY IDOCK:   -8.86 KCAL/MOL
REMARK 924 INTRA-LIGAND FREE ENERGY PREDICTED BY IDOCK:   -2.90 KCAL/MOL
REMARK 927      BINDING AFFINITY PREDICTED BY RF-SCORE:    0.00 PKD
ROOT
HETATM    1  C   UNL     1     -11.998  13.579  64.178  1.00  0.00    -0.498 C  
HETATM    2  C   UNL     1     -11.601  12.460  65.125  1.00  0.00    -0.408 C  
ENDROOT
BRANCH   2   3
HETATM    3  C   UNL     1     -12.008  12.782  66.559  1.00  0.00    -0.428 C  
BRANCH   3   4
HETATM    4  C   UNL     1     -11.045  12.149  67.560  1.00  0.00    -0.328 C  
BRANCH   4   5
HETATM    5  C   UNL     1     -11.044  10.630  67.422  1.00  0.00    -0.341 C  
BRANCH   5   6
HETATM    6  C   UNL     1      -9.699  10.048  67.842  1.00  0.00    -0.168 C  
BRANCH   6   7
HETATM    7  C   UNL     1      -9.587   9.991  69.360  1.00  0.00    -0.237 C  
BRANCH   7   8
HETATM    8  C   UNL     1     -10.712   9.150  69.949  1.00  0.00    -0.246 C  
BRANCH   8   9
HETATM    9  C   UNL     1     -11.361   9.869  71.124  1.00  0.00    -0.443 C  
BRANCH   9  10
HETATM   10  C   UNL     1     -12.668  10.522  70.695  1.00  0.00    -0.441 C  
BRANCH  10  11
HETATM   11  C   UNL     1     -12.633  12.019  70.969  1.00  0.00    -0.370 C  
BRANCH  11  12
HETATM   12  C   UNL     1     -13.459  12.354  72.203  1.00  0.00    -0.481 C  
BRANCH  12  13
HETATM   13  C   UNL     1     -13.827  13.829  72.213  1.00  0.00    -0.679 C  
BRANCH  13  14
HETATM   14  C   UNL     1     -12.743  14.647  72.902  1.00  0.00    -0.506 C  
BRANCH  14  15
HETATM   15  C   UNL     1     -12.167  15.683  71.948  1.00  0.00    -0.506 C  
BRANCH  15  16
HETATM   16  C   UNL     1     -12.917  15.665  70.622  1.00  0.00    -0.342 C  
BRANCH  16  17
HETATM   17  C   UNL     1     -11.959  15.401  69.466  1.00  0.00    -0.358 C  
BRANCH  17  18
HETATM   18  C   UNL     1     -10.568  15.933  69.788  1.00  0.00    -0.322 C  
BRANCH  18  19
HETATM   19  C   UNL     1      -9.688  15.938  68.543  1.00  0.00    -0.211 C  
BRANCH  19  20
HETATM   20  C   UNL     1     -10.537  16.067  67.282  1.00  0.00    -0.313 C  
BRANCH  20  21
HETATM   21  C   UNL     1      -9.686  15.891  66.030  1.00  0.00    -0.375 C  
BRANCH  21  22
HETATM   22  C   UNL     1      -8.255  16.357  66.264  1.00  0.00    -0.308 C  
HETATM   23  O   UNL     1      -8.110  17.702  65.829  1.00  0.00    -0.550 OA 
HETATM   24  H   UNL     1      -7.218  17.993  65.975  1.00  0.00     0.000 HD 
ENDBRANCH  21  22
ENDBRANCH  20  21
ENDBRANCH  19  20
ENDBRANCH  18  19
ENDBRANCH  17  18
ENDBRANCH  16  17
ENDBRANCH  15  16
ENDBRANCH  14  15
ENDBRANCH  13  14
ENDBRANCH  12  13
ENDBRANCH  11  12
ENDBRANCH  10  11
ENDBRANCH   9  10
ENDBRANCH   8   9
ENDBRANCH   7   8
ENDBRANCH   6   7
ENDBRANCH   5   6
ENDBRANCH   4   5
ENDBRANCH   3   4
ENDBRANCH   2   3
TORSDOF 20
ENDMDL
MODEL       26
REMARK 921   NORMALIZED FREE ENERGY PREDICTED BY IDOCK:   -4.09 KCAL/MOL
REMARK 922        TOTAL FREE ENERGY PREDICTED BY IDOCK:  -11.74 KCAL/MOL
REMARK 923 INTER-LIGAND FREE ENERGY PREDICTED BY IDOCK:   -9.23 KCAL/MOL
REMARK 924 INTRA-LIGAND FREE ENERGY PREDICTED BY IDOCK:   -2.51 KCAL/MOL
REMARK 927      BINDING AFFINITY PREDICTED BY RF-SCORE:    0.00 PKD
ROOT
HETATM    1  C   UNL     1      -8.900  10.582  68.952  1.00  0.00    -0.166 C  
HETATM    2  C   UNL     1      -8.955   9.556  70.070  1.00  0.00    -0.249 C  
ENDROOT
BRANCH   2   3
HETATM    3  C   UNL     1      -9.757   8.328  69.651  1.00  0.00    -0.173 C  
BRANCH   3   4
HETATM    4  C   UNL     1     -10.283   7.572  70.867  1.00  0.00    -0.193 C  
BRANCH   4   5
HETATM    5  C   UNL     1     -11.576   6.836  70.529  1.00  0.00    -0.426 C  
BRANCH   5   6
HETATM    6  C   UNL     1     -12.727   7.334  71.396  1.00  0.00    -0.427 C  
BRANCH   6   7
HETATM    7  C   UNL     1     -12.327   8.599  72.146  1.00  0.00    -0.452 C  
BRANCH   7   8
HETATM    8  C   UNL     1     -13.189   9.777  71.708  1.00  0.00    -0.532 C  
BRANCH   8   9
HETATM    9  C   UNL     1     -12.497  10.567  70.605  1.00  0.00    -0.456 C  
BRANCH   9  10
HETATM   10  C   UNL     1     -12.513  12.055  70.922  1.00  0.00    -0.384 C  
BRANCH  10  11
HETATM   11  C   UNL     1     -13.581  12.368  71.961  1.00  0.00    -0.349 C  
BRANCH  11  12
HETATM   12  C   UNL     1     -13.315  13.720  72.609  1.00  0.00    -0.618 C  
BRANCH  12  13
HETATM   13  C   UNL     1     -14.136  14.805  71.931  1.00  0.00    -0.609 C  
BRANCH  13  14
HETATM   14  C   UNL     1     -13.302  15.536  70.888  1.00  0.00    -0.414 C  
BRANCH  14  15
HETATM   15  C   UNL     1     -11.925  15.868  71.443  1.00  0.00    -0.515 C  
BRANCH  15  16
HETATM   16  C   UNL     1     -10.838  15.476  70.450  1.00  0.00    -0.356 C  
BRANCH  16  17
HETATM   17  C   UNL     1     -10.635  16.573  69.413  1.00  0.00    -0.329 C  
BRANCH  17  18
HETATM   18  C   UNL     1     -10.596  15.984  68.008  1.00  0.00    -0.295 C  
BRANCH  18  19
HETATM   19  C   UNL     1     -10.693  14.463  68.055  1.00  0.00    -0.244 C  
BRANCH  19  20
HETATM   20  C   UNL     1     -11.977  13.983  67.387  1.00  0.00    -0.439 C  
BRANCH  20  21
HETATM   21  C   UNL     1     -11.693  12.854  66.404  1.00  0.00    -0.454 C  
BRANCH  21  22
HETATM   22  C   UNL     1     -12.592  12.948  65.179  1.00  0.00    -0.471 C  
HETATM   23  O   UNL     1     -12.834  14.313  64.863  1.00  0.00    -0.680 OA 
HETATM   24  H   UNL     1     -13.395  14.372  64.099  1.00  0.00     0.000 HD 
ENDBRANCH  21  22
ENDBRANCH  20  21
ENDBRANCH  19  20
ENDBRANCH  18  19
ENDBRANCH  17  18
ENDBRANCH  16  17
ENDBRANCH  15  16
ENDBRANCH  14  15
ENDBRANCH  13  14
ENDBRANCH  12  13
ENDBRANCH  11  12
ENDBRANCH  10  11
ENDBRANCH   9  10
ENDBRANCH   8   9
ENDBRANCH   7   8
ENDBRANCH   6   7
ENDBRANCH   5   6
ENDBRANCH   4   5
ENDBRANCH   3   4
ENDBRANCH   2   3
TORSDOF 20
ENDMDL
MODEL       27
REMARK 921   NORMALIZED FREE ENERGY PREDICTED BY IDOCK:   -4.09 KCAL/MOL
REMARK 922        TOTAL FREE ENERGY PREDICTED BY IDOCK:  -11.74 KCAL/MOL
REMARK 923 INTER-LIGAND FREE ENERGY PREDICTED BY IDOCK:   -8.90 KCAL/MOL
REMARK 924 INTRA-LIGAND FREE ENERGY PREDICTED BY IDOCK:   -2.84 KCAL/MOL
REMARK 927      BINDING AFFINITY PREDICTED BY RF-SCORE:    0.00 PKD
ROOT
HETATM    1  C   UNL     1     -12.267  14.628  64.513  1.00  0.00    -0.473 C  
HETATM    2  C   UNL     1     -12.443  13.371  65.348  1.00  0.00    -0.543 C  
ENDROOT
BRANCH   2   3
HETATM    3  C   UNL     1     -11.688  12.194  64.736  1.00  0.00    -0.390 C  
BRANCH   3   4
HETATM    4  C   UNL     1     -10.667  11.626  65.717  1.00  0.00    -0.331 C  
BRANCH   4   5
HETATM    5  C   UNL     1     -11.216  11.643  67.140  1.00  0.00    -0.371 C  
BRANCH   5   6
HETATM    6  C   UNL     1     -10.128  11.284  68.147  1.00  0.00    -0.195 C  
BRANCH   6   7
HETATM    7  C   UNL     1     -10.720  10.533  69.334  1.00  0.00    -0.277 C  
BRANCH   7   8
HETATM    8  C   UNL     1     -12.072  11.119  69.719  1.00  0.00    -0.414 C  
BRANCH   8   9
HETATM    9  C   UNL     1     -12.618  10.435  70.965  1.00  0.00    -0.491 C  
BRANCH   9  10
HETATM   10  C   UNL     1     -13.244  11.456  71.904  1.00  0.00    -0.485 C  
BRANCH  10  11
HETATM   11  C   UNL     1     -12.860  12.870  71.490  1.00  0.00    -0.380 C  
BRANCH  11  12
HETATM   12  C   UNL     1     -13.897  13.870  71.980  1.00  0.00    -0.588 C  
BRANCH  12  13
HETATM   13  C   UNL     1     -13.627  15.247  71.393  1.00  0.00    -0.598 C  
BRANCH  13  14
HETATM   14  C   UNL     1     -12.131  15.468  71.211  1.00  0.00    -0.441 C  
BRANCH  14  15
HETATM   15  C   UNL     1     -11.824  15.887  69.781  1.00  0.00    -0.303 C  
BRANCH  15  16
HETATM   16  C   UNL     1     -11.188  14.737  69.011  1.00  0.00    -0.286 C  
BRANCH  16  17
HETATM   17  C   UNL     1      -9.781  15.105  68.558  1.00  0.00    -0.214 C  
BRANCH  17  18
HETATM   18  C   UNL     1      -9.624  14.884  67.058  1.00  0.00    -0.245 C  
BRANCH  18  19
HETATM   19  C   UNL     1      -9.214  16.176  66.359  1.00  0.00    -0.334 C  
BRANCH  19  20
HETATM   20  C   UNL     1     -10.300  17.237  66.505  1.00  0.00    -0.308 C  
BRANCH  20  21
HETATM   21  C   UNL     1      -9.727  18.533  67.064  1.00  0.00    -0.321 C  
BRANCH  21  22
HETATM   22  C   UNL     1     -10.020  19.710  66.143  1.00  0.00    -0.463 C  
HETATM   23  O   UNL     1     -10.984  19.331  65.169  1.00  0.00    -0.448 OA 
HETATM   24  H   UNL     1     -11.167  20.065  64.595  1.00  0.00     0.000 HD 
ENDBRANCH  21  22
ENDBRANCH  20  21
ENDBRANCH  19  20
ENDBRANCH  18  19
ENDBRANCH  17  18
ENDBRANCH  16  17
ENDBRANCH  15  16
ENDBRANCH  14  15
ENDBRANCH  13  14
ENDBRANCH  12  13
ENDBRANCH  11  12
ENDBRANCH  10  11
ENDBRANCH   9  10
ENDBRANCH   8   9
ENDBRANCH   7   8
ENDBRANCH   6   7
ENDBRANCH   5   6
ENDBRANCH   4   5
ENDBRANCH   3   4
ENDBRANCH   2   3
TORSDOF 20
ENDMDL
MODEL       28
REMARK 921   NORMALIZED FREE ENERGY PREDICTED BY IDOCK:   -4.08 KCAL/MOL
REMARK 922        TOTAL FREE ENERGY PREDICTED BY IDOCK:  -11.72 KCAL/MOL
REMARK 923 INTER-LIGAND FREE ENERGY PREDICTED BY IDOCK:   -8.70 KCAL/MOL
REMARK 924 INTRA-LIGAND FREE ENERGY PREDICTED BY IDOCK:   -3.01 KCAL/MOL
REMARK 927      BINDING AFFINITY PREDICTED BY RF-SCORE:    0.00 PKD
ROOT
HETATM    1  C   UNL     1     -14.341  14.522  71.958  1.00  0.00    -0.639 C  
HETATM    2  C   UNL     1     -13.217  14.719  72.961  1.00  0.00    -0.592 C  
ENDROOT
BRANCH   2   3
HETATM    3  C   UNL     1     -12.021  15.413  72.318  1.00  0.00    -0.529 C  
BRANCH   3   4
HETATM    4  C   UNL     1     -12.136  15.410  70.796  1.00  0.00    -0.413 C  
BRANCH   4   5
HETATM    5  C   UNL     1     -10.757  15.508  70.150  1.00  0.00    -0.345 C  
BRANCH   5   6
HETATM    6  C   UNL     1     -10.645  14.559  68.961  1.00  0.00    -0.250 C  
BRANCH   6   7
HETATM    7  C   UNL     1     -11.888  13.684  68.853  1.00  0.00    -0.402 C  
BRANCH   7   8
HETATM    8  C   UNL     1     -11.507  12.255  68.488  1.00  0.00    -0.349 C  
BRANCH   8   9
HETATM    9  C   UNL     1     -12.272  11.259  69.349  1.00  0.00    -0.315 C  
BRANCH   9  10
HETATM   10  C   UNL     1     -12.299  11.717  70.800  1.00  0.00    -0.433 C  
BRANCH  10  11
HETATM   11  C   UNL     1     -12.979  10.674  71.677  1.00  0.00    -0.582 C  
BRANCH  11  12
HETATM   12  C   UNL     1     -12.797   9.282  71.088  1.00  0.00    -0.285 C  
BRANCH  12  13
HETATM   13  C   UNL     1     -12.141   8.357  72.101  1.00  0.00    -0.435 C  
BRANCH  13  14
HETATM   14  C   UNL     1     -10.832   7.805  71.552  1.00  0.00    -0.260 C  
BRANCH  14  15
HETATM   15  C   UNL     1      -9.794   8.911  71.432  1.00  0.00    -0.376 C  
BRANCH  15  16
HETATM   16  C   UNL     1      -9.482   9.195  69.968  1.00  0.00    -0.218 C  
BRANCH  16  17
HETATM   17  C   UNL     1      -9.856   8.002  69.096  1.00  0.00    -0.178 C  
BRANCH  17  18
HETATM   18  C   UNL     1     -10.533   8.466  67.812  1.00  0.00    -0.284 C  
BRANCH  18  19
HETATM   19  C   UNL     1      -9.638   9.436  67.048  1.00  0.00    -0.209 C  
BRANCH  19  20
HETATM   20  C   UNL     1      -9.403   8.945  65.623  1.00  0.00    -0.259 C  
BRANCH  20  21
HETATM   21  C   UNL     1      -9.257  10.116  64.658  1.00  0.00    -0.300 C  
BRANCH  21  22
HETATM   22  C   UNL     1     -10.530  10.951  64.606  1.00  0.00    -0.314 C  
HETATM   23  O   UNL     1     -10.989  11.045  63.264  1.00  0.00    -0.735 OA 
HETATM   24  H   UNL     1     -11.782  11.566  63.231  1.00  0.00     0.000 HD 
ENDBRANCH  21  22
ENDBRANCH  20  21
ENDBRANCH  19  20
ENDBRANCH  18  19
ENDBRANCH  17  18
ENDBRANCH  16  17
ENDBRANCH  15  16
ENDBRANCH  14  15
ENDBRANCH  13  14
ENDBRANCH  12  13
ENDBRANCH  11  12
ENDBRANCH  10  11
ENDBRANCH   9  10
ENDBRANCH   8   9
ENDBRANCH   7   8
ENDBRANCH   6   7
ENDBRANCH   5   6
ENDBRANCH   4   5
ENDBRANCH   3   4
ENDBRANCH   2   3
TORSDOF 20
ENDMDL
MODEL       29
REMARK 921   NORMALIZED FREE ENERGY PREDICTED BY IDOCK:   -4.08 KCAL/MOL
REMARK 922        TOTAL FREE ENERGY PREDICTED BY IDOCK:  -11.72 KCAL/MOL
REMARK 923 INTER-LIGAND FREE ENERGY PREDICTED BY IDOCK:   -9.45 KCAL/MOL
REMARK 924 INTRA-LIGAND FREE ENERGY PREDICTED BY IDOCK:   -2.26 KCAL/MOL
REMARK 927      BINDING AFFINITY PREDICTED BY RF-SCORE:    0.00 PKD
ROOT
HETATM    1  C   UNL     1     -10.515   8.142  69.577  1.00  0.00    -0.227 C  
HETATM    2  C   UNL     1     -10.326   9.649  69.560  1.00  0.00    -0.235 C  
ENDROOT
BRANCH   2   3
HETATM    3  C   UNL     1     -11.603  10.368  69.987  1.00  0.00    -0.378 C  
BRANCH   3   4
HETATM    4  C   UNL     1     -12.094   9.861  71.340  1.00  0.00    -0.501 C  
BRANCH   4   5
HETATM    5  C   UNL     1     -13.150  10.799  71.917  1.00  0.00    -0.557 C  
BRANCH   5   6
HETATM    6  C   UNL     1     -12.852  12.247  71.544  1.00  0.00    -0.384 C  
BRANCH   6   7
HETATM    7  C   UNL     1     -13.740  13.200  72.334  1.00  0.00    -0.640 C  
BRANCH   7   8
HETATM    8  C   UNL     1     -12.939  14.400  72.821  1.00  0.00    -0.555 C  
BRANCH   8   9
HETATM    9  C   UNL     1     -13.015  15.540  71.814  1.00  0.00    -0.528 C  
BRANCH   9  10
HETATM   10  C   UNL     1     -11.625  15.901  71.309  1.00  0.00    -0.509 C  
BRANCH  10  11
HETATM   11  C   UNL     1     -11.567  15.803  69.791  1.00  0.00    -0.359 C  
BRANCH  11  12
HETATM   12  C   UNL     1     -10.208  15.285  69.341  1.00  0.00    -0.258 C  
BRANCH  12  13
HETATM   13  C   UNL     1     -10.330  13.867  68.806  1.00  0.00    -0.210 C  
BRANCH  13  14
HETATM   14  C   UNL     1     -11.793  13.488  68.622  1.00  0.00    -0.404 C  
BRANCH  14  15
HETATM   15  C   UNL     1     -12.020  12.892  67.241  1.00  0.00    -0.371 C  
BRANCH  15  16
HETATM   16  C   UNL     1     -12.075  13.989  66.186  1.00  0.00    -0.471 C  
BRANCH  16  17
HETATM   17  C   UNL     1     -12.854  13.521  64.962  1.00  0.00    -0.330 C  
BRANCH  17  18
HETATM   18  C   UNL     1     -11.920  13.320  63.775  1.00  0.00    -0.551 C  
BRANCH  18  19
HETATM   19  C   UNL     1     -11.706  11.835  63.500  1.00  0.00    -0.485 C  
BRANCH  19  20
HETATM   20  C   UNL     1     -10.219  11.497  63.491  1.00  0.00    -0.462 C  
BRANCH  20  21
HETATM   21  C   UNL     1      -9.903  10.399  64.500  1.00  0.00    -0.405 C  
BRANCH  21  22
HETATM   22  C   UNL     1      -9.432  10.985  65.824  1.00  0.00    -0.210 C  
HETATM   23  O   UNL     1      -9.010  12.329  65.633  1.00  0.00    -0.421 OA 
HETATM   24  H   UNL     1      -8.716  12.694  66.460  1.00  0.00     0.000 HD 
ENDBRANCH  21  22
ENDBRANCH  20  21
ENDBRANCH  19  20
ENDBRANCH  18  19
ENDBRANCH  17  18
ENDBRANCH  16  17
ENDBRANCH  15  16
ENDBRANCH  14  15
ENDBRANCH  13  14
ENDBRANCH  12  13
ENDBRANCH  11  12
ENDBRANCH  10  11
ENDBRANCH   9  10
ENDBRANCH   8   9
ENDBRANCH   7   8
ENDBRANCH   6   7
ENDBRANCH   5   6
ENDBRANCH   4   5
ENDBRANCH   3   4
ENDBRANCH   2   3
TORSDOF 20
ENDMDL
MODEL       30
REMARK 921   NORMALIZED FREE ENERGY PREDICTED BY IDOCK:   -4.08 KCAL/MOL
REMARK 922        TOTAL FREE ENERGY PREDICTED BY IDOCK:  -11.71 KCAL/MOL
REMARK 923 INTER-LIGAND FREE ENERGY PREDICTED BY IDOCK:   -9.14 KCAL/MOL
REMARK 924 INTRA-LIGAND FREE ENERGY PREDICTED BY IDOCK:   -2.58 KCAL/MOL
REMARK 927      BINDING AFFINITY PREDICTED BY RF-SCORE:    0.00 PKD
ROOT
HETATM    1  C   UNL     1     -10.958  15.872  70.136  1.00  0.00    -0.369 C  
HETATM    2  C   UNL     1     -12.310  15.602  70.773  1.00  0.00    -0.466 C  
ENDROOT
BRANCH   2   3
HETATM    3  C   UNL     1     -12.238  15.731  72.291  1.00  0.00    -0.555 C  
BRANCH   3   4
HETATM    4  C   UNL     1     -12.855  14.515  72.976  1.00  0.00    -0.550 C  
BRANCH   4   5
HETATM    5  C   UNL     1     -13.604  13.649  71.968  1.00  0.00    -0.585 C  
BRANCH   5   6
HETATM    6  C   UNL     1     -13.217  12.181  72.120  1.00  0.00    -0.438 C  
BRANCH   6   7
HETATM    7  C   UNL     1     -12.362  11.726  70.944  1.00  0.00    -0.420 C  
BRANCH   7   8
HETATM    8  C   UNL     1     -12.134  10.221  70.997  1.00  0.00    -0.487 C  
BRANCH   8   9
HETATM    9  C   UNL     1     -12.943   9.596  72.126  1.00  0.00    -0.493 C  
BRANCH   9  10
HETATM   10  C   UNL     1     -12.417   8.206  72.455  1.00  0.00    -0.309 C  
BRANCH  10  11
HETATM   11  C   UNL     1     -12.415   7.328  71.211  1.00  0.00    -0.402 C  
BRANCH  11  12
HETATM   12  C   UNL     1     -11.491   6.134  71.402  1.00  0.00    -0.317 C  
BRANCH  12  13
HETATM   13  C   UNL     1     -10.464   6.070  70.282  1.00  0.00    -0.305 C  
BRANCH  13  14
HETATM   14  C   UNL     1     -11.123   6.340  68.936  1.00  0.00    -0.434 C  
BRANCH  14  15
HETATM   15  C   UNL     1     -10.306   7.340  68.132  1.00  0.00    -0.234 C  
BRANCH  15  16
HETATM   16  C   UNL     1      -9.575   8.303  69.059  1.00  0.00    -0.156 C  
BRANCH  16  17
HETATM   17  C   UNL     1      -9.471   9.685  68.426  1.00  0.00    -0.143 C  
BRANCH  17  18
HETATM   18  C   UNL     1     -10.729  10.008  67.630  1.00  0.00    -0.340 C  
BRANCH  18  19
HETATM   19  C   UNL     1     -10.486  11.177  66.682  1.00  0.00    -0.298 C  
BRANCH  19  20
HETATM   20  C   UNL     1     -10.655  12.507  67.410  1.00  0.00    -0.242 C  
BRANCH  20  21
HETATM   21  C   UNL     1     -12.034  13.101  67.150  1.00  0.00    -0.397 C  
BRANCH  21  22
HETATM   22  C   UNL     1     -11.990  14.132  66.030  1.00  0.00    -0.413 C  
HETATM   23  O   UNL     1     -13.174  14.044  65.248  1.00  0.00    -0.782 OA 
HETATM   24  H   UNL     1     -13.146  14.688  64.549  1.00  0.00     0.000 HD 
ENDBRANCH  21  22
ENDBRANCH  20  21
ENDBRANCH  19  20
ENDBRANCH  18  19
ENDBRANCH  17  18
ENDBRANCH  16  17
ENDBRANCH  15  16
ENDBRANCH  14  15
ENDBRANCH  13  14
ENDBRANCH  12  13
ENDBRANCH  11  12
ENDBRANCH  10  11
ENDBRANCH   9  10
ENDBRANCH   8   9
ENDBRANCH   7   8
ENDBRANCH   6   7
ENDBRANCH   5   6
ENDBRANCH   4   5
ENDBRANCH   3   4
ENDBRANCH   2   3
TORSDOF 20
ENDMDL
MODEL       31
REMARK 921   NORMALIZED FREE ENERGY PREDICTED BY IDOCK:   -4.08 KCAL/MOL
REMARK 922        TOTAL FREE ENERGY PREDICTED BY IDOCK:  -11.71 KCAL/MOL
REMARK 923 INTER-LIGAND FREE ENERGY PREDICTED BY IDOCK:   -9.95 KCAL/MOL
REMARK 924 INTRA-LIGAND FREE ENERGY PREDICTED BY IDOCK:   -1.76 KCAL/MOL
REMARK 927      BINDING AFFINITY PREDICTED BY RF-SCORE:    0.00 PKD
ROOT
HETATM    1  C   UNL     1     -10.544   5.102  72.038  1.00  0.00    -0.266 C  
HETATM    2  C   UNL     1     -11.619   6.172  72.123  1.00  0.00    -0.369 C  
ENDROOT
BRANCH   2   3
HETATM    3  C   UNL     1     -11.353   7.300  71.131  1.00  0.00    -0.294 C  
BRANCH   3   4
HETATM    4  C   UNL     1     -10.855   8.554  71.844  1.00  0.00    -0.392 C  
BRANCH   4   5
HETATM    5  C   UNL     1     -10.849   9.749  70.895  1.00  0.00    -0.399 C  
BRANCH   5   6
HETATM    6  C   UNL     1     -12.270  10.135  70.500  1.00  0.00    -0.352 C  
BRANCH   6   7
HETATM    7  C   UNL     1     -12.957  10.890  71.632  1.00  0.00    -0.569 C  
BRANCH   7   8
HETATM    8  C   UNL     1     -12.914  12.391  71.378  1.00  0.00    -0.348 C  
BRANCH   8   9
HETATM    9  C   UNL     1     -13.742  13.134  72.418  1.00  0.00    -0.640 C  
BRANCH   9  10
HETATM   10  C   UNL     1     -14.210  14.475  71.870  1.00  0.00    -0.622 C  
BRANCH  10  11
HETATM   11  C   UNL     1     -13.735  15.612  72.763  1.00  0.00    -0.662 C  
BRANCH  11  12
HETATM   12  C   UNL     1     -12.284  15.957  72.461  1.00  0.00    -0.597 C  
BRANCH  12  13
HETATM   13  C   UNL     1     -12.033  15.938  70.961  1.00  0.00    -0.453 C  
BRANCH  13  14
HETATM   14  C   UNL     1     -10.700  15.272  70.649  1.00  0.00    -0.214 C  
BRANCH  14  15
HETATM   15  C   UNL     1     -10.442  15.269  69.150  1.00  0.00    -0.247 C  
BRANCH  15  16
HETATM   16  C   UNL     1     -10.442  13.846  68.609  1.00  0.00    -0.249 C  
BRANCH  16  17
HETATM   17  C   UNL     1     -11.836  13.448  68.138  1.00  0.00    -0.396 C  
BRANCH  17  18
HETATM   18  C   UNL     1     -11.762  12.691  66.817  1.00  0.00    -0.460 C  
BRANCH  18  19
HETATM   19  C   UNL     1     -12.412  13.494  65.696  1.00  0.00    -0.528 C  
BRANCH  19  20
HETATM   20  C   UNL     1     -12.126  12.857  64.340  1.00  0.00    -0.474 C  
BRANCH  20  21
HETATM   21  C   UNL     1     -10.632  12.864  64.036  1.00  0.00    -0.418 C  
BRANCH  21  22
HETATM   22  C   UNL     1     -10.245  11.696  63.139  1.00  0.00    -0.354 C  
HETATM   23  O   UNL     1      -8.857  11.761  62.839  1.00  0.00    -0.652 OA 
HETATM   24  H   UNL     1      -8.615  11.032  62.279  1.00  0.00     0.000 HD 
ENDBRANCH  21  22
ENDBRANCH  20  21
ENDBRANCH  19  20
ENDBRANCH  18  19
ENDBRANCH  17  18
ENDBRANCH  16  17
ENDBRANCH  15  16
ENDBRANCH  14  15
ENDBRANCH  13  14
ENDBRANCH  12  13
ENDBRANCH  11  12
ENDBRANCH  10  11
ENDBRANCH   9  10
ENDBRANCH   8   9
ENDBRANCH   7   8
ENDBRANCH   6   7
ENDBRANCH   5   6
ENDBRANCH   4   5
ENDBRANCH   3   4
ENDBRANCH   2   3
TORSDOF 20
ENDMDL
MODEL       32
REMARK 921   NORMALIZED FREE ENERGY PREDICTED BY IDOCK:   -4.07 KCAL/MOL
REMARK 922        TOTAL FREE ENERGY PREDICTED BY IDOCK:  -11.69 KCAL/MOL
REMARK 923 INTER-LIGAND FREE ENERGY PREDICTED BY IDOCK:   -9.29 KCAL/MOL
REMARK 924 INTRA-LIGAND FREE ENERGY PREDICTED BY IDOCK:   -2.40 KCAL/MOL
REMARK 927      BINDING AFFINITY PREDICTED BY RF-SCORE:    0.00 PKD
ROOT
HETATM    1  C   UNL     1     -10.832  19.698  66.039  1.00  0.00    -0.425 C  
HETATM    2  C   UNL     1     -10.609  19.185  67.451  1.00  0.00    -0.577 C  
ENDROOT
BRANCH   2   3
HETATM    3  C   UNL     1      -9.163  19.394  67.890  1.00  0.00    -0.383 C  
BRANCH   3   4
HETATM    4  C   UNL     1      -8.465  18.059  68.137  1.00  0.00    -0.273 C  
BRANCH   4   5
HETATM    5  C   UNL     1      -8.063  17.408  66.817  1.00  0.00    -0.282 C  
BRANCH   5   6
HETATM    6  C   UNL     1      -8.495  15.945  66.780  1.00  0.00    -0.297 C  
BRANCH   6   7
HETATM    7  C   UNL     1      -9.943  15.823  66.323  1.00  0.00    -0.315 C  
BRANCH   7   8
HETATM    8  C   UNL     1     -10.852  15.500  67.502  1.00  0.00    -0.306 C  
BRANCH   8   9
HETATM    9  C   UNL     1     -10.143  14.582  68.490  1.00  0.00    -0.242 C  
BRANCH   9  10
HETATM   10  C   UNL     1     -10.068  15.232  69.864  1.00  0.00    -0.204 C  
BRANCH  10  11
HETATM   11  C   UNL     1     -11.156  16.286  70.017  1.00  0.00    -0.351 C  
BRANCH  11  12
HETATM   12  C   UNL     1     -11.954  16.048  71.291  1.00  0.00    -0.475 C  
BRANCH  12  13
HETATM   13  C   UNL     1     -13.224  15.269  70.986  1.00  0.00    -0.546 C  
BRANCH  13  14
HETATM   14  C   UNL     1     -13.720  14.545  72.230  1.00  0.00    -0.559 C  
BRANCH  14  15
HETATM   15  C   UNL     1     -13.488  13.046  72.104  1.00  0.00    -0.638 C  
BRANCH  15  16
HETATM   16  C   UNL     1     -12.602  12.741  70.903  1.00  0.00    -0.342 C  
BRANCH  16  17
HETATM   17  C   UNL     1     -12.528  11.238  70.658  1.00  0.00    -0.439 C  
BRANCH  17  18
HETATM   18  C   UNL     1     -13.106  10.471  71.842  1.00  0.00    -0.567 C  
BRANCH  18  19
HETATM   19  C   UNL     1     -12.549   9.053  71.893  1.00  0.00    -0.452 C  
BRANCH  19  20
HETATM   20  C   UNL     1     -11.035   9.061  71.709  1.00  0.00    -0.443 C  
BRANCH  20  21
HETATM   21  C   UNL     1     -10.575   7.849  70.907  1.00  0.00    -0.227 C  
BRANCH  21  22
HETATM   22  C   UNL     1     -11.650   6.770  70.871  1.00  0.00    -0.353 C  
HETATM   23  O   UNL     1     -11.886   6.371  69.527  1.00  0.00    -0.592 OA 
HETATM   24  H   UNL     1     -12.556   5.698  69.505  1.00  0.00     0.000 HD 
ENDBRANCH  21  22
ENDBRANCH  20  21
ENDBRANCH  19  20
ENDBRANCH  18  19
ENDBRANCH  17  18
ENDBRANCH  16  17
ENDBRANCH  15  16
ENDBRANCH  14  15
ENDBRANCH  13  14
ENDBRANCH  12  13
ENDBRANCH  11  12
ENDBRANCH  10  11
ENDBRANCH   9  10
ENDBRANCH   8   9
ENDBRANCH   7   8
ENDBRANCH   6   7
ENDBRANCH   5   6
ENDBRANCH   4   5
ENDBRANCH   3   4
ENDBRANCH   2   3
TORSDOF 20
ENDMDL
MODEL       33
REMARK 921   NORMALIZED FREE ENERGY PREDICTED BY IDOCK:   -4.06 KCAL/MOL
REMARK 922        TOTAL FREE ENERGY PREDICTED BY IDOCK:  -11.68 KCAL/MOL
REMARK 923 INTER-LIGAND FREE ENERGY PREDICTED BY IDOCK:   -8.83 KCAL/MOL
REMARK 924 INTRA-LIGAND FREE ENERGY PREDICTED BY IDOCK:   -2.85 KCAL/MOL
REMARK 927      BINDING AFFINITY PREDICTED BY RF-SCORE:    0.00 PKD
ROOT
HETATM    1  C   UNL     1     -10.207  10.103  69.909  1.00  0.00    -0.284 C  
HETATM    2  C   UNL     1     -10.388   9.194  71.113  1.00  0.00    -0.387 C  
ENDROOT
BRANCH   2   3
HETATM    3  C   UNL     1     -11.840   9.188  71.583  1.00  0.00    -0.443 C  
BRANCH   3   4
HETATM    4  C   UNL     1     -12.657  10.255  70.860  1.00  0.00    -0.465 C  
BRANCH   4   5
HETATM    5  C   UNL     1     -13.260  11.241  71.857  1.00  0.00    -0.491 C  
BRANCH   5   6
HETATM    6  C   UNL     1     -12.813  12.666  71.549  1.00  0.00    -0.368 C  
BRANCH   6   7
HETATM    7  C   UNL     1     -13.766  13.676  72.177  1.00  0.00    -0.649 C  
BRANCH   7   8
HETATM    8  C   UNL     1     -13.357  15.097  71.812  1.00  0.00    -0.506 C  
BRANCH   8   9
HETATM    9  C   UNL     1     -11.844  15.202  71.676  1.00  0.00    -0.449 C  
BRANCH   9  10
HETATM   10  C   UNL     1     -11.473  16.113  70.514  1.00  0.00    -0.363 C  
BRANCH  10  11
HETATM   11  C   UNL     1     -12.019  15.559  69.206  1.00  0.00    -0.338 C  
BRANCH  11  12
HETATM   12  C   UNL     1     -11.137  14.428  68.697  1.00  0.00    -0.269 C  
BRANCH  12  13
HETATM   13  C   UNL     1     -11.973  13.386  67.971  1.00  0.00    -0.357 C  
BRANCH  13  14
HETATM   14  C   UNL     1     -11.083  12.461  67.150  1.00  0.00    -0.328 C  
BRANCH  14  15
HETATM   15  C   UNL     1     -10.345  13.246  66.076  1.00  0.00    -0.290 C  
BRANCH  15  16
HETATM   16  C   UNL     1     -11.266  13.538  64.898  1.00  0.00    -0.353 C  
BRANCH  16  17
HETATM   17  C   UNL     1     -11.451  15.040  64.720  1.00  0.00    -0.403 C  
BRANCH  17  18
HETATM   18  C   UNL     1     -10.219  15.795  65.205  1.00  0.00    -0.323 C  
BRANCH  18  19
HETATM   19  C   UNL     1     -10.620  17.027  66.010  1.00  0.00    -0.208 C  
BRANCH  19  20
HETATM   20  C   UNL     1      -9.560  17.356  67.055  1.00  0.00    -0.273 C  
BRANCH  20  21
HETATM   21  C   UNL     1      -9.544  18.848  67.367  1.00  0.00    -0.348 C  
BRANCH  21  22
HETATM   22  C   UNL     1      -8.669  19.610  66.380  1.00  0.00    -0.368 C  
HETATM   23  O   UNL     1      -8.356  20.893  66.906  1.00  0.00    -0.567 OA 
HETATM   24  H   UNL     1      -7.809  21.368  66.291  1.00  0.00     0.000 HD 
ENDBRANCH  21  22
ENDBRANCH  20  21
ENDBRANCH  19  20
ENDBRANCH  18  19
ENDBRANCH  17  18
ENDBRANCH  16  17
ENDBRANCH  15  16
ENDBRANCH  14  15
ENDBRANCH  13  14
ENDBRANCH  12  13
ENDBRANCH  11  12
ENDBRANCH  10  11
ENDBRANCH   9  10
ENDBRANCH   8   9
ENDBRANCH   7   8
ENDBRANCH   6   7
ENDBRANCH   5   6
ENDBRANCH   4   5
ENDBRANCH   3   4
ENDBRANCH   2   3
TORSDOF 20
ENDMDL
MODEL       34
REMARK 921   NORMALIZED FREE ENERGY PREDICTED BY IDOCK:   -4.06 KCAL/MOL
REMARK 922        TOTAL FREE ENERGY PREDICTED BY IDOCK:  -11.68 KCAL/MOL
REMARK 923 INTER-LIGAND FREE ENERGY PREDICTED BY IDOCK:   -9.17 KCAL/MOL
REMARK 924 INTRA-LIGAND FREE ENERGY PREDICTED BY IDOCK:   -2.52 KCAL/MOL
REMARK 927      BINDING AFFINITY PREDICTED BY RF-SCORE:    0.00 PKD
ROOT
HETATM    1  C   UNL     1     -10.668   6.323  70.115  1.00  0.00    -0.346 C  
HETATM    2  C   UNL     1     -11.159   6.289  68.678  1.00  0.00    -0.409 C  
ENDROOT
BRANCH   2   3
HETATM    3  C   UNL     1     -10.640   7.488  67.891  1.00  0.00    -0.250 C  
BRANCH   3   4
HETATM    4  C   UNL     1     -10.071   8.554  68.824  1.00  0.00    -0.210 C  
BRANCH   4   5
HETATM    5  C   UNL     1      -9.424   9.681  68.025  1.00  0.00    -0.146 C  
BRANCH   5   6
HETATM    6  C   UNL     1     -10.389  10.227  66.978  1.00  0.00    -0.299 C  
BRANCH   6   7
HETATM    7  C   UNL     1      -9.627  10.920  65.854  1.00  0.00    -0.257 C  
BRANCH   7   8
HETATM    8  C   UNL     1     -10.147  10.468  64.496  1.00  0.00    -0.402 C  
BRANCH   8   9
HETATM    9  C   UNL     1     -10.325  11.661  63.565  1.00  0.00    -0.488 C  
BRANCH   9  10
HETATM   10  C   UNL     1     -11.790  12.066  63.490  1.00  0.00    -0.587 C  
BRANCH  10  11
HETATM   11  C   UNL     1     -11.993  13.449  64.092  1.00  0.00    -0.505 C  
BRANCH  11  12
HETATM   12  C   UNL     1     -12.595  13.341  65.486  1.00  0.00    -0.505 C  
BRANCH  12  13
HETATM   13  C   UNL     1     -12.075  14.456  66.379  1.00  0.00    -0.390 C  
BRANCH  13  14
HETATM   14  C   UNL     1     -10.724  14.081  66.973  1.00  0.00    -0.284 C  
BRANCH  14  15
HETATM   15  C   UNL     1     -10.579  14.654  68.374  1.00  0.00    -0.241 C  
BRANCH  15  16
HETATM   16  C   UNL     1     -11.940  14.774  69.048  1.00  0.00    -0.308 C  
BRANCH  16  17
HETATM   17  C   UNL     1     -11.830  14.484  70.540  1.00  0.00    -0.372 C  
BRANCH  17  18
HETATM   18  C   UNL     1     -12.515  13.167  70.884  1.00  0.00    -0.407 C  
BRANCH  18  19
HETATM   19  C   UNL     1     -11.861  12.005  70.143  1.00  0.00    -0.383 C  
BRANCH  19  20
HETATM   20  C   UNL     1     -12.683  10.731  70.304  1.00  0.00    -0.286 C  
BRANCH  20  21
HETATM   21  C   UNL     1     -12.541  10.163  71.711  1.00  0.00    -0.500 C  
BRANCH  21  22
HETATM   22  C   UNL     1     -13.501   9.003  71.939  1.00  0.00    -0.425 C  
HETATM   23  O   UNL     1     -14.118   9.132  73.213  1.00  0.00    -1.165 OA 
HETATM   24  H   UNL     1     -14.717   8.409  73.356  1.00  0.00     0.000 HD 
ENDBRANCH  21  22
ENDBRANCH  20  21
ENDBRANCH  19  20
ENDBRANCH  18  19
ENDBRANCH  17  18
ENDBRANCH  16  17
ENDBRANCH  15  16
ENDBRANCH  14  15
ENDBRANCH  13  14
ENDBRANCH  12  13
ENDBRANCH  11  12
ENDBRANCH  10  11
ENDBRANCH   9  10
ENDBRANCH   8   9
ENDBRANCH   7   8
ENDBRANCH   6   7
ENDBRANCH   5   6
ENDBRANCH   4   5
ENDBRANCH   3   4
ENDBRANCH   2   3
TORSDOF 20
ENDMDL
MODEL       35
REMARK 921   NORMALIZED FREE ENERGY PREDICTED BY IDOCK:   -4.06 KCAL/MOL
REMARK 922        TOTAL FREE ENERGY PREDICTED BY IDOCK:  -11.68 KCAL/MOL
REMARK 923 INTER-LIGAND FREE ENERGY PREDICTED BY IDOCK:   -8.18 KCAL/MOL
REMARK 924 INTRA-LIGAND FREE ENERGY PREDICTED BY IDOCK:   -3.50 KCAL/MOL
REMARK 927      BINDING AFFINITY PREDICTED BY RF-SCORE:    0.00 PKD
ROOT
HETATM    1  C   UNL     1      -9.444   6.262  71.149  1.00  0.00    -0.183 C  
HETATM    2  C   UNL     1     -10.637   5.688  70.405  1.00  0.00    -0.364 C  
ENDROOT
BRANCH   2   3
HETATM    3  C   UNL     1     -11.761   6.714  70.291  1.00  0.00    -0.432 C  
BRANCH   3   4
HETATM    4  C   UNL     1     -12.529   6.837  71.604  1.00  0.00    -0.398 C  
BRANCH   4   5
HETATM    5  C   UNL     1     -12.972   8.278  71.838  1.00  0.00    -0.371 C  
BRANCH   5   6
HETATM    6  C   UNL     1     -11.784   9.231  71.755  1.00  0.00    -0.456 C  
BRANCH   6   7
HETATM    7  C   UNL     1     -12.116  10.430  70.875  1.00  0.00    -0.477 C  
BRANCH   7   8
HETATM    8  C   UNL     1     -11.158  10.509  69.693  1.00  0.00    -0.338 C  
BRANCH   8   9
HETATM    9  C   UNL     1      -9.850   9.800  70.015  1.00  0.00    -0.295 C  
BRANCH   9  10
HETATM   10  C   UNL     1      -9.306   9.096  68.779  1.00  0.00    -0.139 C  
BRANCH  10  11
HETATM   11  C   UNL     1     -10.435   8.758  67.817  1.00  0.00    -0.292 C  
BRANCH  11  12
HETATM   12  C   UNL     1     -10.078   9.191  66.402  1.00  0.00    -0.345 C  
BRANCH  12  13
HETATM   13  C   UNL     1     -10.747  10.513  66.064  1.00  0.00    -0.086 C  
BRANCH  13  14
HETATM   14  C   UNL     1      -9.735  11.493  65.483  1.00  0.00    -0.259 C  
BRANCH  14  15
HETATM   15  C   UNL     1      -8.579  11.701  66.449  1.00  0.00    -0.143 C  
BRANCH  15  16
HETATM   16  C   UNL     1      -8.636  13.095  67.061  1.00  0.00    -0.168 C  
BRANCH  16  17
HETATM   17  C   UNL     1      -9.288  13.051  68.438  1.00  0.00    -0.149 C  
BRANCH  17  18
HETATM   18  C   UNL     1     -10.374  14.114  68.552  1.00  0.00    -0.249 C  
BRANCH  18  19
HETATM   19  C   UNL     1     -10.708  14.697  67.183  1.00  0.00    -0.292 C  
BRANCH  19  20
HETATM   20  C   UNL     1     -12.037  14.148  66.673  1.00  0.00    -0.480 C  
BRANCH  20  21
HETATM   21  C   UNL     1     -12.196  14.406  65.179  1.00  0.00    -0.393 C  
BRANCH  21  22
HETATM   22  C   UNL     1     -11.094  15.317  64.654  1.00  0.00    -0.332 C  
HETATM   23  O   UNL     1     -11.640  16.249  63.730  1.00  0.00    -1.539 OA 
HETATM   24  H   UNL     1     -10.953  16.817  63.403  1.00  0.00     0.000 HD 
ENDBRANCH  21  22
ENDBRANCH  20  21
ENDBRANCH  19  20
ENDBRANCH  18  19
ENDBRANCH  17  18
ENDBRANCH  16  17
ENDBRANCH  15  16
ENDBRANCH  14  15
ENDBRANCH  13  14
ENDBRANCH  12  13
ENDBRANCH  11  12
ENDBRANCH  10  11
ENDBRANCH   9  10
ENDBRANCH   8   9
ENDBRANCH   7   8
ENDBRANCH   6   7
ENDBRANCH   5   6
ENDBRANCH   4   5
ENDBRANCH   3   4
ENDBRANCH   2   3
TORSDOF 20
ENDMDL
MODEL       36
REMARK 921   NORMALIZED FREE ENERGY PREDICTED BY IDOCK:   -4.05 KCAL/MOL
REMARK 922        TOTAL FREE ENERGY PREDICTED BY IDOCK:  -11.66 KCAL/MOL
REMARK 923 INTER-LIGAND FREE ENERGY PREDICTED BY IDOCK:   -8.56 KCAL/MOL
REMARK 924 INTRA-LIGAND FREE ENERGY PREDICTED BY IDOCK:   -3.10 KCAL/MOL
REMARK 927      BINDING AFFINITY PREDICTED BY RF-SCORE:    0.00 PKD
ROOT
HETATM    1  C   UNL     1     -10.842   6.023  69.525  1.00  0.00    -0.439 C  
HETATM    2  C   UNL     1     -11.618   6.861  70.526  1.00  0.00    -0.396 C  
ENDROOT
BRANCH   2   3
HETATM    3  C   UNL     1     -10.730   7.934  71.151  1.00  0.00    -0.251 C  
BRANCH   3   4
HETATM    4  C   UNL     1     -11.559   8.942  71.942  1.00  0.00    -0.442 C  
BRANCH   4   5
HETATM    5  C   UNL     1     -12.685   9.508  71.083  1.00  0.00    -0.371 C  
BRANCH   5   6
HETATM    6  C   UNL     1     -12.942  10.973  71.420  1.00  0.00    -0.517 C  
BRANCH   6   7
HETATM    7  C   UNL     1     -12.051  11.882  70.582  1.00  0.00    -0.389 C  
BRANCH   7   8
HETATM    8  C   UNL     1     -11.975  11.381  69.146  1.00  0.00    -0.395 C  
BRANCH   8   9
HETATM    9  C   UNL     1     -10.596  11.648  68.557  1.00  0.00    -0.241 C  
BRANCH   9  10
HETATM   10  C   UNL     1      -9.848  10.342  68.333  1.00  0.00    -0.168 C  
BRANCH  10  11
HETATM   11  C   UNL     1     -10.768   9.299  67.714  1.00  0.00    -0.270 C  
BRANCH  11  12
HETATM   12  C   UNL     1     -10.104   8.650  66.508  1.00  0.00    -0.339 C  
BRANCH  12  13
HETATM   13  C   UNL     1      -9.047   9.573  65.922  1.00  0.00    -0.230 C  
BRANCH  13  14
HETATM   14  C   UNL     1      -9.469  10.062  64.542  1.00  0.00    -0.359 C  
BRANCH  14  15
HETATM   15  C   UNL     1     -10.080  11.452  64.632  1.00  0.00    -0.330 C  
BRANCH  15  16
HETATM   16  C   UNL     1     -10.784  11.813  63.330  1.00  0.00    -0.468 C  
BRANCH  16  17
HETATM   17  C   UNL     1     -12.096  12.536  63.611  1.00  0.00    -0.642 C  
BRANCH  17  18
HETATM   18  C   UNL     1     -12.402  12.534  65.103  1.00  0.00    -0.496 C  
BRANCH  18  19
HETATM   19  C   UNL     1     -12.625  13.954  65.613  1.00  0.00    -0.553 C  
BRANCH  19  20
HETATM   20  C   UNL     1     -11.299  14.605  65.994  1.00  0.00    -0.344 C  
BRANCH  20  21
HETATM   21  C   UNL     1     -11.329  15.104  67.434  1.00  0.00    -0.309 C  
BRANCH  21  22
HETATM   22  C   UNL     1     -10.121  15.980  67.740  1.00  0.00    -0.243 C  
HETATM   23  O   UNL     1     -10.554  17.248  68.215  1.00  0.00    -0.366 OA 
HETATM   24  H   UNL     1      -9.801  17.794  68.406  1.00  0.00     0.000 HD 
ENDBRANCH  21  22
ENDBRANCH  20  21
ENDBRANCH  19  20
ENDBRANCH  18  19
ENDBRANCH  17  18
ENDBRANCH  16  17
ENDBRANCH  15  16
ENDBRANCH  14  15
ENDBRANCH  13  14
ENDBRANCH  12  13
ENDBRANCH  11  12
ENDBRANCH  10  11
ENDBRANCH   9  10
ENDBRANCH   8   9
ENDBRANCH   7   8
ENDBRANCH   6   7
ENDBRANCH   5   6
ENDBRANCH   4   5
ENDBRANCH   3   4
ENDBRANCH   2   3
TORSDOF 20
ENDMDL
MODEL       37
REMARK 921   NORMALIZED FREE ENERGY PREDICTED BY IDOCK:   -4.05 KCAL/MOL
REMARK 922        TOTAL FREE ENERGY PREDICTED BY IDOCK:  -11.66 KCAL/MOL
REMARK 923 INTER-LIGAND FREE ENERGY PREDICTED BY IDOCK:   -8.77 KCAL/MOL
REMARK 924 INTRA-LIGAND FREE ENERGY PREDICTED BY IDOCK:   -2.89 KCAL/MOL
REMARK 927      BINDING AFFINITY PREDICTED BY RF-SCORE:    0.00 PKD
ROOT
HETATM    1  C   UNL     1     -10.940   6.442  71.134  1.00  0.00    -0.327 C  
HETATM    2  C   UNL     1     -11.380   6.234  69.695  1.00  0.00    -0.492 C  
ENDROOT
BRANCH   2   3
HETATM    3  C   UNL     1     -10.197   6.335  68.738  1.00  0.00    -0.213 C  
BRANCH   3   4
HETATM    4  C   UNL     1     -10.580   7.085  67.465  1.00  0.00    -0.351 C  
BRANCH   4   5
HETATM    5  C   UNL     1     -10.537   8.593  67.693  1.00  0.00    -0.272 C  
BRANCH   5   6
HETATM    6  C   UNL     1      -9.308   8.984  68.507  1.00  0.00    -0.141 C  
BRANCH   6   7
HETATM    7  C   UNL     1      -9.682   9.969  69.607  1.00  0.00    -0.255 C  
BRANCH   7   8
HETATM    8  C   UNL     1     -11.196  10.063  69.750  1.00  0.00    -0.307 C  
BRANCH   8   9
HETATM    9  C   UNL     1     -11.600  10.018  71.218  1.00  0.00    -0.430 C  
BRANCH   9  10
HETATM   10  C   UNL     1     -13.017  10.543  71.399  1.00  0.00    -0.542 C  
BRANCH  10  11
HETATM   11  C   UNL     1     -13.073  12.038  71.117  1.00  0.00    -0.123 C  
BRANCH  11  12
HETATM   12  C   UNL     1     -13.447  12.805  72.377  1.00  0.00    -0.512 C  
BRANCH  12  13
HETATM   13  C   UNL     1     -14.350  13.980  72.037  1.00  0.00    -0.548 C  
BRANCH  13  14
HETATM   14  C   UNL     1     -13.561  15.283  72.053  1.00  0.00    -0.571 C  
BRANCH  14  15
HETATM   15  C   UNL     1     -12.871  15.506  70.715  1.00  0.00    -0.513 C  
BRANCH  15  16
HETATM   16  C   UNL     1     -11.363  15.602  70.900  1.00  0.00    -0.417 C  
BRANCH  16  17
HETATM   17  C   UNL     1     -10.635  15.099  69.659  1.00  0.00    -0.274 C  
BRANCH  17  18
HETATM   18  C   UNL     1     -11.602  14.385  68.722  1.00  0.00    -0.348 C  
BRANCH  18  19
HETATM   19  C   UNL     1     -10.845  13.529  67.712  1.00  0.00    -0.267 C  
BRANCH  19  20
HETATM   20  C   UNL     1     -11.769  12.489  67.086  1.00  0.00    -0.425 C  
BRANCH  20  21
HETATM   21  C   UNL     1     -11.158  11.909  65.816  1.00  0.00    -0.367 C  
BRANCH  21  22
HETATM   22  C   UNL     1     -12.063  12.139  64.612  1.00  0.00    -0.311 C  
HETATM   23  O   UNL     1     -13.257  12.791  65.025  1.00  0.00    -0.768 OA 
HETATM   24  H   UNL     1     -13.821  12.935  64.275  1.00  0.00     0.000 HD 
ENDBRANCH  21  22
ENDBRANCH  20  21
ENDBRANCH  19  20
ENDBRANCH  18  19
ENDBRANCH  17  18
ENDBRANCH  16  17
ENDBRANCH  15  16
ENDBRANCH  14  15
ENDBRANCH  13  14
ENDBRANCH  12  13
ENDBRANCH  11  12
ENDBRANCH  10  11
ENDBRANCH   9  10
ENDBRANCH   8   9
ENDBRANCH   7   8
ENDBRANCH   6   7
ENDBRANCH   5   6
ENDBRANCH   4   5
ENDBRANCH   3   4
ENDBRANCH   2   3
TORSDOF 20
ENDMDL
MODEL       38
REMARK 921   NORMALIZED FREE ENERGY PREDICTED BY IDOCK:   -4.05 KCAL/MOL
REMARK 922        TOTAL FREE ENERGY PREDICTED BY IDOCK:  -11.65 KCAL/MOL
REMARK 923 INTER-LIGAND FREE ENERGY PREDICTED BY IDOCK:   -8.22 KCAL/MOL
REMARK 924 INTRA-LIGAND FREE ENERGY PREDICTED BY IDOCK:   -3.43 KCAL/MOL
REMARK 927      BINDING AFFINITY PREDICTED BY RF-SCORE:    0.00 PKD
ROOT
HETATM    1  C   UNL     1     -10.089   6.445  66.825  1.00  0.00    -0.239 C  
HETATM    2  C   UNL     1     -10.895   6.208  68.091  1.00  0.00    -0.389 C  
ENDROOT
BRANCH   2   3
HETATM    3  C   UNL     1     -10.017   5.644  69.204  1.00  0.00    -0.244 C  
BRANCH   3   4
HETATM    4  C   UNL     1     -10.665   5.845  70.571  1.00  0.00    -0.363 C  
BRANCH   4   5
HETATM    5  C   UNL     1     -11.903   6.729  70.457  1.00  0.00    -0.418 C  
BRANCH   5   6
HETATM    6  C   UNL     1     -12.283   7.309  71.815  1.00  0.00    -0.368 C  
BRANCH   6   7
HETATM    7  C   UNL     1     -11.481   8.571  72.104  1.00  0.00    -0.446 C  
BRANCH   7   8
HETATM    8  C   UNL     1     -11.243   9.361  70.823  1.00  0.00    -0.367 C  
BRANCH   8   9
HETATM    9  C   UNL     1      -9.753   9.461  70.524  1.00  0.00    -0.331 C  
BRANCH   9  10
HETATM   10  C   UNL     1      -9.522   9.723  69.042  1.00  0.00    -0.173 C  
BRANCH  10  11
HETATM   11  C   UNL     1     -10.849   9.887  68.316  1.00  0.00    -0.275 C  
BRANCH  11  12
HETATM   12  C   UNL     1     -10.617  10.152  66.835  1.00  0.00    -0.267 C  
BRANCH  12  13
HETATM   13  C   UNL     1      -9.202  10.656  66.599  1.00  0.00    -0.184 C  
BRANCH  13  14
HETATM   14  C   UNL     1      -9.022  11.088  65.150  1.00  0.00    -0.159 C  
BRANCH  14  15
HETATM   15  C   UNL     1     -10.260  10.748  64.334  1.00  0.00    -0.432 C  
BRANCH  15  16
HETATM   16  C   UNL     1     -10.647  11.917  63.437  1.00  0.00    -0.485 C  
BRANCH  16  17
HETATM   17  C   UNL     1     -12.073  12.369  63.729  1.00  0.00    -0.618 C  
BRANCH  17  18
HETATM   18  C   UNL     1     -12.073  13.699  64.474  1.00  0.00    -0.459 C  
BRANCH  18  19
HETATM   19  C   UNL     1     -12.346  13.488  65.960  1.00  0.00    -0.486 C  
BRANCH  19  20
HETATM   20  C   UNL     1     -11.427  14.362  66.807  1.00  0.00    -0.381 C  
BRANCH  20  21
HETATM   21  C   UNL     1     -10.936  13.606  68.036  1.00  0.00    -0.270 C  
BRANCH  21  22
HETATM   22  C   UNL     1     -11.989  13.596  69.136  1.00  0.00    -0.351 C  
HETATM   23  O   UNL     1     -11.528  12.821  70.235  1.00  0.00    -0.518 OA 
HETATM   24  H   UNL     1     -12.185  12.815  70.922  1.00  0.00     0.000 HD 
ENDBRANCH  21  22
ENDBRANCH  20  21
ENDBRANCH  19  20
ENDBRANCH  18  19
ENDBRANCH  17  18
ENDBRANCH  16  17
ENDBRANCH  15  16
ENDBRANCH  14  15
ENDBRANCH  13  14
ENDBRANCH  12  13
ENDBRANCH  11  12
ENDBRANCH  10  11
ENDBRANCH   9  10
ENDBRANCH   8   9
ENDBRANCH   7   8
ENDBRANCH   6   7
ENDBRANCH   5   6
ENDBRANCH   4   5
ENDBRANCH   3   4
ENDBRANCH   2   3
TORSDOF 20
ENDMDL
MODEL       39
REMARK 921   NORMALIZED FREE ENERGY PREDICTED BY IDOCK:   -4.04 KCAL/MOL
REMARK 922        TOTAL FREE ENERGY PREDICTED BY IDOCK:  -11.63 KCAL/MOL
REMARK 923 INTER-LIGAND FREE ENERGY PREDICTED BY IDOCK:   -9.54 KCAL/MOL
REMARK 924 INTRA-LIGAND FREE ENERGY PREDICTED BY IDOCK:   -2.09 KCAL/MOL
REMARK 927      BINDING AFFINITY PREDICTED BY RF-SCORE:    0.00 PKD
ROOT
HETATM    1  C   UNL     1     -11.723  13.986  66.360  1.00  0.00    -0.407 C  
HETATM    2  C   UNL     1     -12.723  13.470  65.339  1.00  0.00    -0.495 C  
ENDROOT
BRANCH   2   3
HETATM    3  C   UNL     1     -12.081  13.335  63.961  1.00  0.00    -0.508 C  
BRANCH   3   4
HETATM    4  C   UNL     1     -11.617  11.903  63.709  1.00  0.00    -0.555 C  
BRANCH   4   5
HETATM    5  C   UNL     1     -10.093  11.828  63.673  1.00  0.00    -0.445 C  
BRANCH   5   6
HETATM    6  C   UNL     1      -9.541  11.355  65.013  1.00  0.00    -0.250 C  
BRANCH   6   7
HETATM    7  C   UNL     1     -10.371  10.201  65.561  1.00  0.00    -0.196 C  
BRANCH   7   8
HETATM    8  C   UNL     1     -10.561  10.343  67.065  1.00  0.00    -0.305 C  
BRANCH   8   9
HETATM    9  C   UNL     1      -9.613   9.418  67.816  1.00  0.00    -0.158 C  
BRANCH   9  10
HETATM   10  C   UNL     1     -10.283   8.865  69.066  1.00  0.00    -0.217 C  
BRANCH  10  11
HETATM   11  C   UNL     1     -10.726   7.426  68.843  1.00  0.00    -0.152 C  
BRANCH  11  12
HETATM   12  C   UNL     1     -11.399   6.875  70.092  1.00  0.00    -0.364 C  
BRANCH  12  13
HETATM   13  C   UNL     1     -11.316   7.881  71.229  1.00  0.00    -0.289 C  
BRANCH  13  14
HETATM   14  C   UNL     1     -12.668   8.026  71.916  1.00  0.00    -0.354 C  
BRANCH  14  15
HETATM   15  C   UNL     1     -13.439   9.201  71.333  1.00  0.00    -0.358 C  
BRANCH  15  16
HETATM   16  C   UNL     1     -12.863  10.520  71.832  1.00  0.00    -0.509 C  
BRANCH  16  17
HETATM   17  C   UNL     1     -12.291  11.329  70.674  1.00  0.00    -0.477 C  
BRANCH  17  18
HETATM   18  C   UNL     1     -12.520  12.820  70.895  1.00  0.00    -0.373 C  
BRANCH  18  19
HETATM   19  C   UNL     1     -13.434  13.056  72.092  1.00  0.00    -0.638 C  
BRANCH  19  20
HETATM   20  C   UNL     1     -14.037  14.456  72.043  1.00  0.00    -0.620 C  
BRANCH  20  21
HETATM   21  C   UNL     1     -12.991  15.488  71.636  1.00  0.00    -0.540 C  
BRANCH  21  22
HETATM   22  C   UNL     1     -12.440  16.224  72.850  1.00  0.00    -0.408 C  
HETATM   23  O   UNL     1     -13.341  16.094  73.942  1.00  0.00    -0.924 OA 
HETATM   24  H   UNL     1     -12.997  16.554  74.699  1.00  0.00     0.000 HD 
ENDBRANCH  21  22
ENDBRANCH  20  21
ENDBRANCH  19  20
ENDBRANCH  18  19
ENDBRANCH  17  18
ENDBRANCH  16  17
ENDBRANCH  15  16
ENDBRANCH  14  15
ENDBRANCH  13  14
ENDBRANCH  12  13
ENDBRANCH  11  12
ENDBRANCH  10  11
ENDBRANCH   9  10
ENDBRANCH   8   9
ENDBRANCH   7   8
ENDBRANCH   6   7
ENDBRANCH   5   6
ENDBRANCH   4   5
ENDBRANCH   3   4
ENDBRANCH   2   3
TORSDOF 20
ENDMDL
MODEL       40
REMARK 921   NORMALIZED FREE ENERGY PREDICTED BY IDOCK:   -4.04 KCAL/MOL
REMARK 922        TOTAL FREE ENERGY PREDICTED BY IDOCK:  -11.63 KCAL/MOL
REMARK 923 INTER-LIGAND FREE ENERGY PREDICTED BY IDOCK:   -8.69 KCAL/MOL
REMARK 924 INTRA-LIGAND FREE ENERGY PREDICTED BY IDOCK:   -2.94 KCAL/MOL
REMARK 927      BINDING AFFINITY PREDICTED BY RF-SCORE:    0.00 PKD
ROOT
HETATM    1  C   UNL     1     -11.471   6.421  69.736  1.00  0.00    -0.468 C  
HETATM    2  C   UNL     1     -11.849   6.386  71.207  1.00  0.00    -0.333 C  
ENDROOT
BRANCH   2   3
HETATM    3  C   UNL     1     -13.055   7.277  71.486  1.00  0.00    -0.434 C  
BRANCH   3   4
HETATM    4  C   UNL     1     -12.641   8.551  72.216  1.00  0.00    -0.438 C  
BRANCH   4   5
HETATM    5  C   UNL     1     -13.518   9.726  71.792  1.00  0.00    -0.463 C  
BRANCH   5   6
HETATM    6  C   UNL     1     -12.687  10.805  71.106  1.00  0.00    -0.532 C  
BRANCH   6   7
HETATM    7  C   UNL     1     -11.290  10.287  70.788  1.00  0.00    -0.421 C  
BRANCH   7   8
HETATM    8  C   UNL     1     -10.954  10.517  69.320  1.00  0.00    -0.291 C  
BRANCH   8   9
HETATM    9  C   UNL     1     -12.109  11.209  68.608  1.00  0.00    -0.180 C  
BRANCH   9  10
HETATM   10  C   UNL     1     -11.585  12.237  67.615  1.00  0.00    -0.421 C  
BRANCH  10  11
HETATM   11  C   UNL     1     -10.069  12.152  67.508  1.00  0.00    -0.204 C  
BRANCH  11  12
HETATM   12  C   UNL     1      -9.527  13.308  66.680  1.00  0.00    -0.262 C  
BRANCH  12  13
HETATM   13  C   UNL     1      -8.374  13.987  67.403  1.00  0.00    -0.207 C  
BRANCH  13  14
HETATM   14  C   UNL     1      -8.453  15.499  67.237  1.00  0.00    -0.216 C  
BRANCH  14  15
HETATM   15  C   UNL     1      -9.099  16.136  68.458  1.00  0.00    -0.208 C  
BRANCH  15  16
HETATM   16  C   UNL     1     -10.517  16.591  68.139  1.00  0.00    -0.313 C  
BRANCH  16  17
HETATM   17  C   UNL     1     -11.537  15.704  68.843  1.00  0.00    -0.392 C  
BRANCH  17  18
HETATM   18  C   UNL     1     -10.898  14.980  70.022  1.00  0.00    -0.243 C  
BRANCH  18  19
HETATM   19  C   UNL     1     -11.962  14.344  70.909  1.00  0.00    -0.393 C  
BRANCH  19  20
HETATM   20  C   UNL     1     -13.212  15.215  70.962  1.00  0.00    -0.510 C  
BRANCH  20  21
HETATM   21  C   UNL     1     -13.616  15.504  72.403  1.00  0.00    -0.636 C  
BRANCH  21  22
HETATM   22  C   UNL     1     -12.396  15.743  73.282  1.00  0.00    -0.502 C  
HETATM   23  O   UNL     1     -12.371  14.794  74.340  1.00  0.00    -0.624 OA 
HETATM   24  H   UNL     1     -11.610  14.943  74.888  1.00  0.00     0.000 HD 
ENDBRANCH  21  22
ENDBRANCH  20  21
ENDBRANCH  19  20
ENDBRANCH  18  19
ENDBRANCH  17  18
ENDBRANCH  16  17
ENDBRANCH  15  16
ENDBRANCH  14  15
ENDBRANCH  13  14
ENDBRANCH  12  13
ENDBRANCH  11  12
ENDBRANCH  10  11
ENDBRANCH   9  10
ENDBRANCH   8   9
ENDBRANCH   7   8
ENDBRANCH   6   7
ENDBRANCH   5   6
ENDBRANCH   4   5
ENDBRANCH   3   4
ENDBRANCH   2   3
TORSDOF 20
ENDMDL
MODEL       41
REMARK 921   NORMALIZED FREE ENERGY PREDICTED BY IDOCK:   -4.03 KCAL/MOL
REMARK 922        TOTAL FREE ENERGY PREDICTED BY IDOCK:  -11.61 KCAL/MOL
REMARK 923 INTER-LIGAND FREE ENERGY PREDICTED BY IDOCK:   -8.90 KCAL/MOL
REMARK 924 INTRA-LIGAND FREE ENERGY PREDICTED BY IDOCK:   -2.71 KCAL/MOL
REMARK 927      BINDING AFFINITY PREDICTED BY RF-SCORE:    0.00 PKD
ROOT
HETATM    1  C   UNL     1     -12.128  15.542  70.364  1.00  0.00    -0.426 C  
HETATM    2  C   UNL     1     -12.350  14.063  70.634  1.00  0.00    -0.446 C  
ENDROOT
BRANCH   2   3
HETATM    3  C   UNL     1     -13.193  13.855  71.889  1.00  0.00    -0.480 C  
BRANCH   3   4
HETATM    4  C   UNL     1     -13.433  12.371  72.150  1.00  0.00    -0.481 C  
BRANCH   4   5
HETATM    5  C   UNL     1     -12.556  11.514  71.242  1.00  0.00    -0.452 C  
BRANCH   5   6
HETATM    6  C   UNL     1     -12.864  10.032  71.430  1.00  0.00    -0.519 C  
BRANCH   6   7
HETATM    7  C   UNL     1     -11.588   9.248  71.710  1.00  0.00    -0.458 C  
BRANCH   7   8
HETATM    8  C   UNL     1     -10.527   9.559  70.662  1.00  0.00    -0.374 C  
BRANCH   8   9
HETATM    9  C   UNL     1     -10.652   8.612  69.475  1.00  0.00    -0.218 C  
BRANCH   9  10
HETATM   10  C   UNL     1     -10.509   9.374  68.166  1.00  0.00    -0.267 C  
BRANCH  10  11
HETATM   11  C   UNL     1     -11.296  10.677  68.217  1.00  0.00    -0.357 C  
BRANCH  11  12
HETATM   12  C   UNL     1     -10.607  11.749  67.385  1.00  0.00    -0.258 C  
BRANCH  12  13
HETATM   13  C   UNL     1      -9.103  11.708  67.604  1.00  0.00    -0.174 C  
BRANCH  13  14
HETATM   14  C   UNL     1      -8.459  13.010  67.144  1.00  0.00    -0.176 C  
BRANCH  14  15
HETATM   15  C   UNL     1      -9.410  14.179  67.353  1.00  0.00    -0.215 C  
BRANCH  15  16
HETATM   16  C   UNL     1      -9.311  15.163  66.195  1.00  0.00    -0.346 C  
BRANCH  16  17
HETATM   17  C   UNL     1     -10.698  15.537  65.687  1.00  0.00    -0.378 C  
BRANCH  17  18
HETATM   18  C   UNL     1     -11.774  14.766  66.443  1.00  0.00    -0.268 C  
BRANCH  18  19
HETATM   19  C   UNL     1     -12.652  13.975  65.480  1.00  0.00    -0.543 C  
BRANCH  19  20
HETATM   20  C   UNL     1     -11.957  13.800  64.134  1.00  0.00    -0.473 C  
BRANCH  20  21
HETATM   21  C   UNL     1     -12.192  12.403  63.574  1.00  0.00    -0.661 C  
BRANCH  21  22
HETATM   22  C   UNL     1     -10.972  11.513  63.775  1.00  0.00    -0.409 C  
HETATM   23  O   UNL     1      -9.828  12.317  64.031  1.00  0.00    -0.523 OA 
HETATM   24  H   UNL     1      -9.067  11.763  64.156  1.00  0.00     0.000 HD 
ENDBRANCH  21  22
ENDBRANCH  20  21
ENDBRANCH  19  20
ENDBRANCH  18  19
ENDBRANCH  17  18
ENDBRANCH  16  17
ENDBRANCH  15  16
ENDBRANCH  14  15
ENDBRANCH  13  14
ENDBRANCH  12  13
ENDBRANCH  11  12
ENDBRANCH  10  11
ENDBRANCH   9  10
ENDBRANCH   8   9
ENDBRANCH   7   8
ENDBRANCH   6   7
ENDBRANCH   5   6
ENDBRANCH   4   5
ENDBRANCH   3   4
ENDBRANCH   2   3
TORSDOF 20
ENDMDL
MODEL       42
REMARK 921   NORMALIZED FREE ENERGY PREDICTED BY IDOCK:   -4.03 KCAL/MOL
REMARK 922        TOTAL FREE ENERGY PREDICTED BY IDOCK:  -11.61 KCAL/MOL
REMARK 923 INTER-LIGAND FREE ENERGY PREDICTED BY IDOCK:   -8.96 KCAL/MOL
REMARK 924 INTRA-LIGAND FREE ENERGY PREDICTED BY IDOCK:   -2.65 KCAL/MOL
REMARK 927      BINDING AFFINITY PREDICTED BY RF-SCORE:    0.00 PKD
ROOT
HETATM    1  C   UNL     1     -10.765  15.615  70.336  1.00  0.00    -0.336 C  
HETATM    2  C   UNL     1     -12.226  15.715  70.738  1.00  0.00    -0.463 C  
ENDROOT
BRANCH   2   3
HETATM    3  C   UNL     1     -12.367  16.096  72.209  1.00  0.00    -0.538 C  
BRANCH   3   4
HETATM    4  C   UNL     1     -13.186  15.057  72.970  1.00  0.00    -0.596 C  
BRANCH   4   5
HETATM    5  C   UNL     1     -13.927  14.139  72.003  1.00  0.00    -0.604 C  
BRANCH   5   6
HETATM    6  C   UNL     1     -13.602  12.676  72.287  1.00  0.00    -0.508 C  
BRANCH   6   7
HETATM    7  C   UNL     1     -12.518  12.172  71.342  1.00  0.00    -0.222 C  
BRANCH   7   8
HETATM    8  C   UNL     1     -12.800  10.737  70.919  1.00  0.00    -0.443 C  
BRANCH   8   9
HETATM    9  C   UNL     1     -12.071   9.756  71.829  1.00  0.00    -0.425 C  
BRANCH   9  10
HETATM   10  C   UNL     1     -10.778   9.285  71.180  1.00  0.00    -0.403 C  
BRANCH  10  11
HETATM   11  C   UNL     1     -10.924   7.856  70.675  1.00  0.00    -0.248 C  
BRANCH  11  12
HETATM   12  C   UNL     1     -10.334   7.720  69.279  1.00  0.00    -0.220 C  
BRANCH  12  13
HETATM   13  C   UNL     1      -9.110   8.610  69.129  1.00  0.00    -0.142 C  
BRANCH  13  14
HETATM   14  C   UNL     1      -8.747   8.776  67.659  1.00  0.00    -0.135 C  
BRANCH  14  15
HETATM   15  C   UNL     1      -8.902  10.228  67.232  1.00  0.00    -0.136 C  
BRANCH  15  16
HETATM   16  C   UNL     1     -10.263  10.454  66.587  1.00  0.00    -0.292 C  
BRANCH  16  17
HETATM   17  C   UNL     1     -11.229  11.091  67.578  1.00  0.00    -0.372 C  
BRANCH  17  18
HETATM   18  C   UNL     1     -10.764  12.492  67.958  1.00  0.00    -0.242 C  
BRANCH  18  19
HETATM   19  C   UNL     1     -11.880  13.510  67.746  1.00  0.00    -0.398 C  
BRANCH  19  20
HETATM   20  C   UNL     1     -11.561  14.422  66.565  1.00  0.00    -0.388 C  
BRANCH  20  21
HETATM   21  C   UNL     1     -12.643  14.329  65.496  1.00  0.00    -0.429 C  
BRANCH  21  22
HETATM   22  C   UNL     1     -12.377  13.174  64.539  1.00  0.00    -0.385 C  
HETATM   23  O   UNL     1     -12.458  13.634  63.196  1.00  0.00    -1.033 OA 
HETATM   24  H   UNL     1     -12.292  12.914  62.599  1.00  0.00     0.000 HD 
ENDBRANCH  21  22
ENDBRANCH  20  21
ENDBRANCH  19  20
ENDBRANCH  18  19
ENDBRANCH  17  18
ENDBRANCH  16  17
ENDBRANCH  15  16
ENDBRANCH  14  15
ENDBRANCH  13  14
ENDBRANCH  12  13
ENDBRANCH  11  12
ENDBRANCH  10  11
ENDBRANCH   9  10
ENDBRANCH   8   9
ENDBRANCH   7   8
ENDBRANCH   6   7
ENDBRANCH   5   6
ENDBRANCH   4   5
ENDBRANCH   3   4
ENDBRANCH   2   3
TORSDOF 20
ENDMDL
MODEL       43
REMARK 921   NORMALIZED FREE ENERGY PREDICTED BY IDOCK:   -4.02 KCAL/MOL
REMARK 922        TOTAL FREE ENERGY PREDICTED BY IDOCK:  -11.59 KCAL/MOL
REMARK 923 INTER-LIGAND FREE ENERGY PREDICTED BY IDOCK:   -7.59 KCAL/MOL
REMARK 924 INTRA-LIGAND FREE ENERGY PREDICTED BY IDOCK:   -4.00 KCAL/MOL
REMARK 927      BINDING AFFINITY PREDICTED BY RF-SCORE:    0.00 PKD
ROOT
HETATM    1  C   UNL     1     -12.043  13.941  64.171  1.00  0.00    -0.464 C  
HETATM    2  C   UNL     1     -11.199  12.922  64.916  1.00  0.00    -0.331 C  
ENDROOT
BRANCH   2   3
HETATM    3  C   UNL     1     -11.743  12.679  66.321  1.00  0.00    -0.460 C  
BRANCH   3   4
HETATM    4  C   UNL     1     -12.272  13.971  66.937  1.00  0.00    -0.415 C  
BRANCH   4   5
HETATM    5  C   UNL     1     -11.990  14.009  68.436  1.00  0.00    -0.378 C  
BRANCH   5   6
HETATM    6  C   UNL     1     -11.886  12.598  69.005  1.00  0.00    -0.341 C  
BRANCH   6   7
HETATM    7  C   UNL     1     -12.182  12.598  70.500  1.00  0.00    -0.383 C  
BRANCH   7   8
HETATM    8  C   UNL     1     -12.320  11.172  71.018  1.00  0.00    -0.487 C  
BRANCH   8   9
HETATM    9  C   UNL     1     -11.695  10.184  70.042  1.00  0.00    -0.294 C  
BRANCH   9  10
HETATM   10  C   UNL     1     -10.411   9.604  70.617  1.00  0.00    -0.365 C  
BRANCH  10  11
HETATM   11  C   UNL     1      -9.229   9.922  69.711  1.00  0.00    -0.252 C  
BRANCH  11  12
HETATM   12  C   UNL     1      -9.641   9.838  68.248  1.00  0.00    -0.155 C  
BRANCH  12  13
HETATM   13  C   UNL     1      -8.889  10.871  67.423  1.00  0.00    -0.133 C  
BRANCH  13  14
HETATM   14  C   UNL     1      -8.349  11.980  68.317  1.00  0.00    -0.163 C  
BRANCH  14  15
HETATM   15  C   UNL     1      -8.353  13.310  67.579  1.00  0.00    -0.186 C  
BRANCH  15  16
HETATM   16  C   UNL     1      -8.279  14.470  68.563  1.00  0.00    -0.154 C  
BRANCH  16  17
HETATM   17  C   UNL     1      -8.513  15.797  67.851  1.00  0.00    -0.161 C  
BRANCH  17  18
HETATM   18  C   UNL     1      -8.940  15.563  66.407  1.00  0.00    -0.359 C  
BRANCH  18  19
HETATM   19  C   UNL     1      -9.991  16.582  65.980  1.00  0.00    -0.359 C  
BRANCH  19  20
HETATM   20  C   UNL     1     -10.516  17.354  67.186  1.00  0.00    -0.305 C  
BRANCH  20  21
HETATM   21  C   UNL     1     -10.551  18.851  66.904  1.00  0.00    -0.495 C  
BRANCH  21  22
HETATM   22  C   UNL     1     -10.111  19.653  68.122  1.00  0.00    -0.441 C  
HETATM   23  O   UNL     1     -10.282  18.875  69.299  1.00  0.00    -0.510 OA 
HETATM   24  H   UNL     1     -10.008  19.375  70.058  1.00  0.00     0.000 HD 
ENDBRANCH  21  22
ENDBRANCH  20  21
ENDBRANCH  19  20
ENDBRANCH  18  19
ENDBRANCH  17  18
ENDBRANCH  16  17
ENDBRANCH  15  16
ENDBRANCH  14  15
ENDBRANCH  13  14
ENDBRANCH  12  13
ENDBRANCH  11  12
ENDBRANCH  10  11
ENDBRANCH   9  10
ENDBRANCH   8   9
ENDBRANCH   7   8
ENDBRANCH   6   7
ENDBRANCH   5   6
ENDBRANCH   4   5
ENDBRANCH   3   4
ENDBRANCH   2   3
TORSDOF 20
ENDMDL
MODEL       44
REMARK 921   NORMALIZED FREE ENERGY PREDICTED BY IDOCK:   -4.01 KCAL/MOL
REMARK 922        TOTAL FREE ENERGY PREDICTED BY IDOCK:  -11.56 KCAL/MOL
REMARK 923 INTER-LIGAND FREE ENERGY PREDICTED BY IDOCK:   -8.57 KCAL/MOL
REMARK 924 INTRA-LIGAND FREE ENERGY PREDICTED BY IDOCK:   -2.99 KCAL/MOL
REMARK 927      BINDING AFFINITY PREDICTED BY RF-SCORE:    0.00 PKD
ROOT
HETATM    1  C   UNL     1     -12.323  14.424  70.849  1.00  0.00    -0.419 C  
HETATM    2  C   UNL     1     -11.220  15.249  70.209  1.00  0.00    -0.320 C  
ENDROOT
BRANCH   2   3
HETATM    3  C   UNL     1     -11.643  15.764  68.837  1.00  0.00    -0.400 C  
BRANCH   3   4
HETATM    4  C   UNL     1     -11.766  14.620  67.834  1.00  0.00    -0.379 C  
BRANCH   4   5
HETATM    5  C   UNL     1     -10.780  14.802  66.684  1.00  0.00    -0.309 C  
BRANCH   5   6
HETATM    6  C   UNL     1     -10.466  13.465  66.021  1.00  0.00    -0.294 C  
BRANCH   6   7
HETATM    7  C   UNL     1     -11.494  12.413  66.419  1.00  0.00    -0.427 C  
BRANCH   7   8
HETATM    8  C   UNL     1     -10.804  11.124  66.846  1.00  0.00    -0.333 C  
BRANCH   8   9
HETATM    9  C   UNL     1     -10.564  11.117  68.350  1.00  0.00    -0.223 C  
BRANCH   9  10
HETATM   10  C   UNL     1     -11.882  11.003  69.102  1.00  0.00    -0.407 C  
BRANCH  10  11
HETATM   11  C   UNL     1     -11.639  10.594  70.548  1.00  0.00    -0.444 C  
BRANCH  11  12
HETATM   12  C   UNL     1     -12.893  10.814  71.382  1.00  0.00    -0.557 C  
BRANCH  12  13
HETATM   13  C   UNL     1     -13.323   9.517  72.049  1.00  0.00    -0.535 C  
BRANCH  13  14
HETATM   14  C   UNL     1     -12.219   8.472  71.950  1.00  0.00    -0.411 C  
BRANCH  14  15
HETATM   15  C   UNL     1     -12.742   7.204  71.292  1.00  0.00    -0.412 C  
BRANCH  15  16
HETATM   16  C   UNL     1     -11.655   6.550  70.450  1.00  0.00    -0.470 C  
BRANCH  16  17
HETATM   17  C   UNL     1     -10.317   7.248  70.662  1.00  0.00    -0.213 C  
BRANCH  17  18
HETATM   18  C   UNL     1      -9.663   7.574  69.325  1.00  0.00    -0.163 C  
BRANCH  18  19
HETATM   19  C   UNL     1     -10.641   7.359  68.176  1.00  0.00    -0.216 C  
BRANCH  19  20
HETATM   20  C   UNL     1      -9.916   7.394  66.835  1.00  0.00    -0.307 C  
BRANCH  20  21
HETATM   21  C   UNL     1      -9.436   6.003  66.437  1.00  0.00    -0.174 C  
BRANCH  21  22
HETATM   22  C   UNL     1     -10.529   4.962  66.642  1.00  0.00    -0.219 C  
HETATM   23  O   UNL     1     -11.303   4.837  65.456  1.00  0.00    -0.940 OA 
HETATM   24  H   UNL     1     -11.985   4.188  65.584  1.00  0.00     0.000 HD 
ENDBRANCH  21  22
ENDBRANCH  20  21
ENDBRANCH  19  20
ENDBRANCH  18  19
ENDBRANCH  17  18
ENDBRANCH  16  17
ENDBRANCH  15  16
ENDBRANCH  14  15
ENDBRANCH  13  14
ENDBRANCH  12  13
ENDBRANCH  11  12
ENDBRANCH  10  11
ENDBRANCH   9  10
ENDBRANCH   8   9
ENDBRANCH   7   8
ENDBRANCH   6   7
ENDBRANCH   5   6
ENDBRANCH   4   5
ENDBRANCH   3   4
ENDBRANCH   2   3
TORSDOF 20
ENDMDL
MODEL       45
REMARK 921   NORMALIZED FREE ENERGY PREDICTED BY IDOCK:   -4.00 KCAL/MOL
REMARK 922        TOTAL FREE ENERGY PREDICTED BY IDOCK:  -11.56 KCAL/MOL
REMARK 923 INTER-LIGAND FREE ENERGY PREDICTED BY IDOCK:   -9.74 KCAL/MOL
REMARK 924 INTRA-LIGAND FREE ENERGY PREDICTED BY IDOCK:   -1.82 KCAL/MOL
REMARK 927      BINDING AFFINITY PREDICTED BY RF-SCORE:    0.00 PKD
ROOT
HETATM    1  C   UNL     1     -11.556  14.033  65.309  1.00  0.00    -0.339 C  
HETATM    2  C   UNL     1     -12.583  12.961  64.989  1.00  0.00    -0.538 C  
ENDROOT
BRANCH   2   3
HETATM    3  C   UNL     1     -12.183  12.169  63.748  1.00  0.00    -0.630 C  
BRANCH   3   4
HETATM    4  C   UNL     1     -10.665  12.100  63.605  1.00  0.00    -0.518 C  
BRANCH   4   5
HETATM    5  C   UNL     1     -10.141  10.743  64.065  1.00  0.00    -0.410 C  
BRANCH   5   6
HETATM    6  C   UNL     1      -9.422  10.865  65.405  1.00  0.00    -0.254 C  
BRANCH   6   7
HETATM    7  C   UNL     1     -10.118  10.023  66.467  1.00  0.00    -0.296 C  
BRANCH   7   8
HETATM    8  C   UNL     1     -10.540  10.889  67.646  1.00  0.00    -0.263 C  
BRANCH   8   9
HETATM    9  C   UNL     1     -11.147  10.033  68.750  1.00  0.00    -0.219 C  
BRANCH   9  10
HETATM   10  C   UNL     1     -11.267  10.831  70.041  1.00  0.00    -0.366 C  
BRANCH  10  11
HETATM   11  C   UNL     1     -11.944  10.001  71.121  1.00  0.00    -0.484 C  
BRANCH  11  12
HETATM   12  C   UNL     1     -13.087  10.781  71.756  1.00  0.00    -0.573 C  
BRANCH  12  13
HETATM   13  C   UNL     1     -13.029  12.243  71.341  1.00  0.00    -0.354 C  
BRANCH  13  14
HETATM   14  C   UNL     1     -13.751  13.117  72.356  1.00  0.00    -0.640 C  
BRANCH  14  15
HETATM   15  C   UNL     1     -14.149  14.446  71.730  1.00  0.00    -0.558 C  
BRANCH  15  16
HETATM   16  C   UNL     1     -13.294  15.577  72.286  1.00  0.00    -0.567 C  
BRANCH  16  17
HETATM   17  C   UNL     1     -11.825  15.359  71.945  1.00  0.00    -0.505 C  
BRANCH  17  18
HETATM   18  C   UNL     1     -11.406  16.248  70.780  1.00  0.00    -0.327 C  
BRANCH  18  19
HETATM   19  C   UNL     1     -11.684  15.562  69.447  1.00  0.00    -0.382 C  
BRANCH  19  20
HETATM   20  C   UNL     1     -10.864  16.200  68.330  1.00  0.00    -0.318 C  
BRANCH  20  21
HETATM   21  C   UNL     1     -10.382  17.588  68.731  1.00  0.00    -0.358 C  
BRANCH  21  22
HETATM   22  C   UNL     1     -10.548  18.583  67.590  1.00  0.00    -0.414 C  
HETATM   23  O   UNL     1     -10.392  19.908  68.079  1.00  0.00    -0.428 OA 
HETATM   24  H   UNL     1     -10.496  20.528  67.367  1.00  0.00     0.000 HD 
ENDBRANCH  21  22
ENDBRANCH  20  21
ENDBRANCH  19  20
ENDBRANCH  18  19
ENDBRANCH  17  18
ENDBRANCH  16  17
ENDBRANCH  15  16
ENDBRANCH  14  15
ENDBRANCH  13  14
ENDBRANCH  12  13
ENDBRANCH  11  12
ENDBRANCH  10  11
ENDBRANCH   9  10
ENDBRANCH   8   9
ENDBRANCH   7   8
ENDBRANCH   6   7
ENDBRANCH   5   6
ENDBRANCH   4   5
ENDBRANCH   3   4
ENDBRANCH   2   3
TORSDOF 20
ENDMDL
MODEL       46
REMARK 921   NORMALIZED FREE ENERGY PREDICTED BY IDOCK:   -4.00 KCAL/MOL
REMARK 922        TOTAL FREE ENERGY PREDICTED BY IDOCK:  -11.56 KCAL/MOL
REMARK 923 INTER-LIGAND FREE ENERGY PREDICTED BY IDOCK:   -8.32 KCAL/MOL
REMARK 924 INTRA-LIGAND FREE ENERGY PREDICTED BY IDOCK:   -3.23 KCAL/MOL
REMARK 927      BINDING AFFINITY PREDICTED BY RF-SCORE:    0.00 PKD
ROOT
HETATM    1  C   UNL     1     -10.236   5.743  68.981  1.00  0.00    -0.282 C  
HETATM    2  C   UNL     1     -11.010   6.527  67.935  1.00  0.00    -0.382 C  
ENDROOT
BRANCH   2   3
HETATM    3  C   UNL     1     -10.067   7.193  66.938  1.00  0.00    -0.308 C  
BRANCH   3   4
HETATM    4  C   UNL     1     -10.379   8.680  66.795  1.00  0.00    -0.336 C  
BRANCH   4   5
HETATM    5  C   UNL     1      -9.671   9.488  67.878  1.00  0.00    -0.171 C  
BRANCH   5   6
HETATM    6  C   UNL     1      -8.254   8.970  68.103  1.00  0.00    -0.113 C  
BRANCH   6   7
HETATM    7  C   UNL     1      -7.992   8.746  69.587  1.00  0.00    -0.096 C  
BRANCH   7   8
HETATM    8  C   UNL     1      -9.266   8.958  70.394  1.00  0.00    -0.222 C  
BRANCH   8   9
HETATM    9  C   UNL     1      -9.124   8.362  71.788  1.00  0.00    -0.283 C  
BRANCH   9  10
HETATM   10  C   UNL     1     -10.489   8.188  72.438  1.00  0.00    -0.389 C  
BRANCH  10  11
HETATM   11  C   UNL     1     -11.597   8.378  71.411  1.00  0.00    -0.332 C  
BRANCH  11  12
HETATM   12  C   UNL     1     -12.792   9.080  72.040  1.00  0.00    -0.468 C  
BRANCH  12  13
HETATM   13  C   UNL     1     -13.336  10.148  71.105  1.00  0.00    -0.372 C  
BRANCH  13  14
HETATM   14  C   UNL     1     -12.260  11.179  70.787  1.00  0.00    -0.484 C  
BRANCH  14  15
HETATM   15  C   UNL     1     -12.139  11.378  69.284  1.00  0.00    -0.356 C  
BRANCH  15  16
HETATM   16  C   UNL     1     -11.252  12.576  68.971  1.00  0.00    -0.321 C  
BRANCH  16  17
HETATM   17  C   UNL     1     -12.082  13.734  68.430  1.00  0.00    -0.324 C  
BRANCH  17  18
HETATM   18  C   UNL     1     -11.746  13.999  66.968  1.00  0.00    -0.425 C  
BRANCH  18  19
HETATM   19  C   UNL     1     -10.463  13.279  66.567  1.00  0.00    -0.282 C  
BRANCH  19  20
HETATM   20  C   UNL     1     -10.686  12.432  65.319  1.00  0.00    -0.322 C  
BRANCH  20  21
HETATM   21  C   UNL     1     -12.164  12.380  64.951  1.00  0.00    -0.485 C  
BRANCH  21  22
HETATM   22  C   UNL     1     -12.360  12.417  63.441  1.00  0.00    -0.499 C  
HETATM   23  O   UNL     1     -12.458  13.765  63.002  1.00  0.00    -1.068 OA 
HETATM   24  H   UNL     1     -12.580  13.789  62.060  1.00  0.00     0.000 HD 
ENDBRANCH  21  22
ENDBRANCH  20  21
ENDBRANCH  19  20
ENDBRANCH  18  19
ENDBRANCH  17  18
ENDBRANCH  16  17
ENDBRANCH  15  16
ENDBRANCH  14  15
ENDBRANCH  13  14
ENDBRANCH  12  13
ENDBRANCH  11  12
ENDBRANCH  10  11
ENDBRANCH   9  10
ENDBRANCH   8   9
ENDBRANCH   7   8
ENDBRANCH   6   7
ENDBRANCH   5   6
ENDBRANCH   4   5
ENDBRANCH   3   4
ENDBRANCH   2   3
TORSDOF 20
ENDMDL
MODEL       47
REMARK 921   NORMALIZED FREE ENERGY PREDICTED BY IDOCK:   -4.00 KCAL/MOL
REMARK 922        TOTAL FREE ENERGY PREDICTED BY IDOCK:  -11.55 KCAL/MOL
REMARK 923 INTER-LIGAND FREE ENERGY PREDICTED BY IDOCK:   -8.43 KCAL/MOL
REMARK 924 INTRA-LIGAND FREE ENERGY PREDICTED BY IDOCK:   -3.13 KCAL/MOL
REMARK 927      BINDING AFFINITY PREDICTED BY RF-SCORE:    0.00 PKD
ROOT
HETATM    1  C   UNL     1      -8.665   4.821  70.412  1.00  0.00    -0.125 C  
HETATM    2  C   UNL     1      -9.305   5.729  69.376  1.00  0.00    -0.151 C  
ENDROOT
BRANCH   2   3
HETATM    3  C   UNL     1      -8.276   6.672  68.761  1.00  0.00    -0.120 C  
BRANCH   3   4
HETATM    4  C   UNL     1      -8.895   8.030  68.443  1.00  0.00    -0.134 C  
BRANCH   4   5
HETATM    5  C   UNL     1      -9.802   8.490  69.581  1.00  0.00    -0.183 C  
BRANCH   5   6
HETATM    6  C   UNL     1      -9.030   9.347  70.578  1.00  0.00    -0.303 C  
BRANCH   6   7
HETATM    7  C   UNL     1      -8.989   8.677  71.946  1.00  0.00    -0.301 C  
BRANCH   7   8
HETATM    8  C   UNL     1     -10.398   8.353  72.426  1.00  0.00    -0.399 C  
BRANCH   8   9
HETATM    9  C   UNL     1     -10.456   6.948  73.010  1.00  0.00    -0.291 C  
BRANCH   9  10
HETATM   10  C   UNL     1     -11.613   6.165  72.406  1.00  0.00    -0.338 C  
BRANCH  10  11
HETATM   11  C   UNL     1     -12.293   6.976  71.312  1.00  0.00    -0.426 C  
BRANCH  11  12
HETATM   12  C   UNL     1     -13.794   7.046  71.554  1.00  0.00    -0.359 C  
BRANCH  12  13
HETATM   13  C   UNL     1     -14.287   8.479  71.427  1.00  0.00    -0.387 C  
BRANCH  13  14
HETATM   14  C   UNL     1     -13.756   9.332  72.571  1.00  0.00    -0.475 C  
BRANCH  14  15
HETATM   15  C   UNL     1     -13.387  10.722  72.075  1.00  0.00    -0.403 C  
BRANCH  15  16
HETATM   16  C   UNL     1     -12.747  10.646  70.695  1.00  0.00    -0.445 C  
BRANCH  16  17
HETATM   17  C   UNL     1     -11.941  11.906  70.405  1.00  0.00    -0.400 C  
BRANCH  17  18
HETATM   18  C   UNL     1     -12.501  13.092  71.182  1.00  0.00    -0.378 C  
BRANCH  18  19
HETATM   19  C   UNL     1     -12.579  14.331  70.296  1.00  0.00    -0.378 C  
BRANCH  19  20
HETATM   20  C   UNL     1     -12.701  15.593  71.144  1.00  0.00    -0.525 C  
BRANCH  20  21
HETATM   21  C   UNL     1     -11.886  15.472  72.426  1.00  0.00    -0.570 C  
BRANCH  21  22
HETATM   22  C   UNL     1     -12.774  15.589  73.658  1.00  0.00    -0.579 C  
HETATM   23  O   UNL     1     -14.017  16.178  73.301  1.00  0.00    -0.756 OA 
HETATM   24  H   UNL     1     -14.571  16.251  74.070  1.00  0.00     0.000 HD 
ENDBRANCH  21  22
ENDBRANCH  20  21
ENDBRANCH  19  20
ENDBRANCH  18  19
ENDBRANCH  17  18
ENDBRANCH  16  17
ENDBRANCH  15  16
ENDBRANCH  14  15
ENDBRANCH  13  14
ENDBRANCH  12  13
ENDBRANCH  11  12
ENDBRANCH  10  11
ENDBRANCH   9  10
ENDBRANCH   8   9
ENDBRANCH   7   8
ENDBRANCH   6   7
ENDBRANCH   5   6
ENDBRANCH   4   5
ENDBRANCH   3   4
ENDBRANCH   2   3
TORSDOF 20
ENDMDL
MODEL       48
REMARK 921   NORMALIZED FREE ENERGY PREDICTED BY IDOCK:   -4.00 KCAL/MOL
REMARK 922        TOTAL FREE ENERGY PREDICTED BY IDOCK:  -11.55 KCAL/MOL
REMARK 923 INTER-LIGAND FREE ENERGY PREDICTED BY IDOCK:   -7.81 KCAL/MOL
REMARK 924 INTRA-LIGAND FREE ENERGY PREDICTED BY IDOCK:   -3.74 KCAL/MOL
REMARK 927      BINDING AFFINITY PREDICTED BY RF-SCORE:    0.00 PKD
ROOT
HETATM    1  C   UNL     1     -10.805   6.445  70.248  1.00  0.00    -0.350 C  
HETATM    2  C   UNL     1     -12.128   7.102  70.603  1.00  0.00    -0.281 C  
ENDROOT
BRANCH   2   3
HETATM    3  C   UNL     1     -11.995   7.963  71.856  1.00  0.00    -0.347 C  
BRANCH   3   4
HETATM    4  C   UNL     1     -11.315   9.293  71.540  1.00  0.00    -0.455 C  
BRANCH   4   5
HETATM    5  C   UNL     1     -12.351  10.395  71.342  1.00  0.00    -0.500 C  
BRANCH   5   6
HETATM    6  C   UNL     1     -12.110  11.137  70.032  1.00  0.00    -0.437 C  
BRANCH   6   7
HETATM    7  C   UNL     1     -10.864  10.605  69.334  1.00  0.00    -0.289 C  
BRANCH   7   8
HETATM    8  C   UNL     1     -11.161  10.291  67.873  1.00  0.00    -0.341 C  
BRANCH   8   9
HETATM    9  C   UNL     1     -10.425   9.032  67.435  1.00  0.00    -0.338 C  
BRANCH   9  10
HETATM   10  C   UNL     1      -9.886   9.193  66.020  1.00  0.00    -0.342 C  
BRANCH  10  11
HETATM   11  C   UNL     1     -10.533  10.388  65.335  1.00  0.00    -0.187 C  
BRANCH  11  12
HETATM   12  C   UNL     1      -9.898  10.630  63.973  1.00  0.00    -0.399 C  
BRANCH  12  13
HETATM   13  C   UNL     1     -10.168  12.051  63.504  1.00  0.00    -0.477 C  
BRANCH  13  14
HETATM   14  C   UNL     1     -11.626  12.425  63.738  1.00  0.00    -0.553 C  
BRANCH  14  15
HETATM   15  C   UNL     1     -11.724  13.718  64.533  1.00  0.00    -0.432 C  
BRANCH  15  16
HETATM   16  C   UNL     1     -12.475  13.489  65.839  1.00  0.00    -0.484 C  
BRANCH  16  17
HETATM   17  C   UNL     1     -11.658  13.990  67.024  1.00  0.00    -0.394 C  
BRANCH  17  18
HETATM   18  C   UNL     1     -10.195  14.163  66.634  1.00  0.00    -0.270 C  
BRANCH  18  19
HETATM   19  C   UNL     1      -9.281  13.464  67.634  1.00  0.00    -0.212 C  
BRANCH  19  20
HETATM   20  C   UNL     1      -8.259  12.592  66.914  1.00  0.00    -0.070 C  
BRANCH  20  21
HETATM   21  C   UNL     1      -7.674  11.545  67.854  1.00  0.00    -0.120 C  
BRANCH  21  22
HETATM   22  C   UNL     1      -6.792  12.187  68.916  1.00  0.00    -0.100 C  
HETATM   23  O   UNL     1      -6.911  11.470  70.138  1.00  0.00    -0.435 OA 
HETATM   24  H   UNL     1      -6.361  11.871  70.801  1.00  0.00     0.000 HD 
ENDBRANCH  21  22
ENDBRANCH  20  21
ENDBRANCH  19  20
ENDBRANCH  18  19
ENDBRANCH  17  18
ENDBRANCH  16  17
ENDBRANCH  15  16
ENDBRANCH  14  15
ENDBRANCH  13  14
ENDBRANCH  12  13
ENDBRANCH  11  12
ENDBRANCH  10  11
ENDBRANCH   9  10
ENDBRANCH   8   9
ENDBRANCH   7   8
ENDBRANCH   6   7
ENDBRANCH   5   6
ENDBRANCH   4   5
ENDBRANCH   3   4
ENDBRANCH   2   3
TORSDOF 20
ENDMDL
MODEL       49
REMARK 921   NORMALIZED FREE ENERGY PREDICTED BY IDOCK:   -3.99 KCAL/MOL
REMARK 922        TOTAL FREE ENERGY PREDICTED BY IDOCK:  -11.53 KCAL/MOL
REMARK 923 INTER-LIGAND FREE ENERGY PREDICTED BY IDOCK:   -9.44 KCAL/MOL
REMARK 924 INTRA-LIGAND FREE ENERGY PREDICTED BY IDOCK:   -2.09 KCAL/MOL
REMARK 927      BINDING AFFINITY PREDICTED BY RF-SCORE:    0.00 PKD
ROOT
HETATM    1  C   UNL     1     -10.872  15.676  70.446  1.00  0.00    -0.358 C  
HETATM    2  C   UNL     1     -12.245  15.839  71.074  1.00  0.00    -0.466 C  
ENDROOT
BRANCH   2   3
HETATM    3  C   UNL     1     -12.151  15.888  72.597  1.00  0.00    -0.615 C  
BRANCH   3   4
HETATM    4  C   UNL     1     -12.895  14.717  73.232  1.00  0.00    -0.621 C  
BRANCH   4   5
HETATM    5  C   UNL     1     -13.781  14.019  72.205  1.00  0.00    -0.646 C  
BRANCH   5   6
HETATM    6  C   UNL     1     -13.524  12.516  72.200  1.00  0.00    -0.523 C  
BRANCH   6   7
HETATM    7  C   UNL     1     -12.634  12.126  71.025  1.00  0.00    -0.359 C  
BRANCH   7   8
HETATM    8  C   UNL     1     -12.860  10.669  70.642  1.00  0.00    -0.404 C  
BRANCH   8   9
HETATM    9  C   UNL     1     -11.947   9.755  71.449  1.00  0.00    -0.493 C  
BRANCH   9  10
HETATM   10  C   UNL     1     -10.612   9.573  70.741  1.00  0.00    -0.387 C  
BRANCH  10  11
HETATM   11  C   UNL     1     -10.674   8.396  69.778  1.00  0.00    -0.211 C  
BRANCH  11  12
HETATM   12  C   UNL     1     -10.076   8.776  68.431  1.00  0.00    -0.217 C  
BRANCH  12  13
HETATM   13  C   UNL     1      -9.799  10.270  68.374  1.00  0.00    -0.168 C  
BRANCH  13  14
HETATM   14  C   UNL     1     -10.563  10.913  67.225  1.00  0.00    -0.296 C  
BRANCH  14  15
HETATM   15  C   UNL     1      -9.621  11.244  66.076  1.00  0.00    -0.245 C  
BRANCH  15  16
HETATM   16  C   UNL     1     -10.161  10.690  64.764  1.00  0.00    -0.412 C  
BRANCH  16  17
HETATM   17  C   UNL     1     -10.553  11.823  63.823  1.00  0.00    -0.470 C  
BRANCH  17  18
HETATM   18  C   UNL     1     -12.056  12.068  63.874  1.00  0.00    -0.557 C  
BRANCH  18  19
HETATM   19  C   UNL     1     -12.394  13.158  64.885  1.00  0.00    -0.494 C  
BRANCH  19  20
HETATM   20  C   UNL     1     -12.185  14.541  64.278  1.00  0.00    -0.441 C  
BRANCH  20  21
HETATM   21  C   UNL     1     -10.942  15.209  64.855  1.00  0.00    -0.434 C  
BRANCH  21  22
HETATM   22  C   UNL     1     -10.735  14.824  66.314  1.00  0.00    -0.313 C  
HETATM   23  O   UNL     1     -10.671  15.996  67.116  1.00  0.00    -0.314 OA 
HETATM   24  H   UNL     1     -10.541  15.756  68.026  1.00  0.00     0.000 HD 
ENDBRANCH  21  22
ENDBRANCH  20  21
ENDBRANCH  19  20
ENDBRANCH  18  19
ENDBRANCH  17  18
ENDBRANCH  16  17
ENDBRANCH  15  16
ENDBRANCH  14  15
ENDBRANCH  13  14
ENDBRANCH  12  13
ENDBRANCH  11  12
ENDBRANCH  10  11
ENDBRANCH   9  10
ENDBRANCH   8   9
ENDBRANCH   7   8
ENDBRANCH   6   7
ENDBRANCH   5   6
ENDBRANCH   4   5
ENDBRANCH   3   4
ENDBRANCH   2   3
TORSDOF 20
ENDMDL
MODEL       50
REMARK 921   NORMALIZED FREE ENERGY PREDICTED BY IDOCK:   -3.99 KCAL/MOL
REMARK 922        TOTAL FREE ENERGY PREDICTED BY IDOCK:  -11.53 KCAL/MOL
REMARK 923 INTER-LIGAND FREE ENERGY PREDICTED BY IDOCK:   -7.79 KCAL/MOL
REMARK 924 INTRA-LIGAND FREE ENERGY PREDICTED BY IDOCK:   -3.74 KCAL/MOL
REMARK 927      BINDING AFFINITY PREDICTED BY RF-SCORE:    0.00 PKD
ROOT
HETATM    1  C   UNL     1     -10.610   5.417  70.481  1.00  0.00    -0.312 C  
HETATM    2  C   UNL     1     -11.592   6.522  70.131  1.00  0.00    -0.466 C  
ENDROOT
BRANCH   2   3
HETATM    3  C   UNL     1     -11.831   7.443  71.324  1.00  0.00    -0.330 C  
BRANCH   3   4
HETATM    4  C   UNL     1     -11.769   8.910  70.908  1.00  0.00    -0.312 C  
BRANCH   4   5
HETATM    5  C   UNL     1     -10.338   9.434  70.990  1.00  0.00    -0.382 C  
BRANCH   5   6
HETATM    6  C   UNL     1      -9.543   8.679  72.049  1.00  0.00    -0.385 C  
BRANCH   6   7
HETATM    7  C   UNL     1      -8.221   8.183  71.477  1.00  0.00    -0.150 C  
BRANCH   7   8
HETATM    8  C   UNL     1      -8.119   8.517  69.994  1.00  0.00    -0.111 C  
BRANCH   8   9
HETATM    9  C   UNL     1      -7.752   7.278  69.189  1.00  0.00    -0.108 C  
BRANCH   9  10
HETATM   10  C   UNL     1      -8.539   7.233  67.887  1.00  0.00    -0.120 C  
BRANCH  10  11
HETATM   11  C   UNL     1      -8.937   8.638  67.456  1.00  0.00    -0.143 C  
BRANCH  11  12
HETATM   12  C   UNL     1     -10.447   8.738  67.293  1.00  0.00    -0.353 C  
BRANCH  12  13
HETATM   13  C   UNL     1     -10.908  10.175  67.482  1.00  0.00    -0.349 C  
BRANCH  13  14
HETATM   14  C   UNL     1      -9.716  11.122  67.500  1.00  0.00    -0.193 C  
BRANCH  14  15
HETATM   15  C   UNL     1      -9.949  12.254  68.490  1.00  0.00    -0.175 C  
BRANCH  15  16
HETATM   16  C   UNL     1     -11.429  12.377  68.825  1.00  0.00    -0.350 C  
BRANCH  16  17
HETATM   17  C   UNL     1     -12.018  13.640  68.208  1.00  0.00    -0.385 C  
BRANCH  17  18
HETATM   18  C   UNL     1     -10.933  14.451  67.508  1.00  0.00    -0.299 C  
BRANCH  18  19
HETATM   19  C   UNL     1     -11.290  14.685  66.045  1.00  0.00    -0.344 C  
BRANCH  19  20
HETATM   20  C   UNL     1     -12.438  13.776  65.617  1.00  0.00    -0.541 C  
BRANCH  20  21
HETATM   21  C   UNL     1     -11.917  12.551  64.875  1.00  0.00    -0.468 C  
BRANCH  21  22
HETATM   22  C   UNL     1     -12.380  12.545  63.424  1.00  0.00    -0.477 C  
HETATM   23  O   UNL     1     -12.450  13.878  62.936  1.00  0.00    -1.034 OA 
HETATM   24  H   UNL     1     -12.739  13.874  62.031  1.00  0.00     0.000 HD 
ENDBRANCH  21  22
ENDBRANCH  20  21
ENDBRANCH  19  20
ENDBRANCH  18  19
ENDBRANCH  17  18
ENDBRANCH  16  17
ENDBRANCH  15  16
ENDBRANCH  14  15
ENDBRANCH  13  14
ENDBRANCH  12  13
ENDBRANCH  11  12
ENDBRANCH  10  11
ENDBRANCH   9  10
ENDBRANCH   8   9
ENDBRANCH   7   8
ENDBRANCH   6   7
ENDBRANCH   5   6
ENDBRANCH   4   5
ENDBRANCH   3   4
ENDBRANCH   2   3
TORSDOF 20
ENDMDL
MODEL       51
REMARK 921   NORMALIZED FREE ENERGY PREDICTED BY IDOCK:   -3.99 KCAL/MOL
REMARK 922        TOTAL FREE ENERGY PREDICTED BY IDOCK:  -11.52 KCAL/MOL
REMARK 923 INTER-LIGAND FREE ENERGY PREDICTED BY IDOCK:   -8.50 KCAL/MOL
REMARK 924 INTRA-LIGAND FREE ENERGY PREDICTED BY IDOCK:   -3.02 KCAL/MOL
REMARK 927      BINDING AFFINITY PREDICTED BY RF-SCORE:    0.00 PKD
ROOT
HETATM    1  C   UNL     1     -13.154  15.112  71.093  1.00  0.00    -0.515 C  
HETATM    2  C   UNL     1     -12.814  13.634  71.001  1.00  0.00    -0.360 C  
ENDROOT
BRANCH   2   3
HETATM    3  C   UNL     1     -13.416  12.858  72.169  1.00  0.00    -0.619 C  
BRANCH   3   4
HETATM    4  C   UNL     1     -13.522  11.371  71.844  1.00  0.00    -0.280 C  
BRANCH   4   5
HETATM    5  C   UNL     1     -12.356  10.925  70.966  1.00  0.00    -0.498 C  
BRANCH   5   6
HETATM    6  C   UNL     1     -11.987   9.473  71.250  1.00  0.00    -0.445 C  
BRANCH   6   7
HETATM    7  C   UNL     1     -10.475   9.287  71.224  1.00  0.00    -0.408 C  
BRANCH   7   8
HETATM    8  C   UNL     1      -9.908   9.688  69.869  1.00  0.00    -0.271 C  
BRANCH   8   9
HETATM    9  C   UNL     1     -10.207   8.620  68.825  1.00  0.00    -0.224 C  
BRANCH   9  10
HETATM   10  C   UNL     1     -10.441   9.256  67.462  1.00  0.00    -0.338 C  
BRANCH  10  11
HETATM   11  C   UNL     1     -11.211  10.561  67.606  1.00  0.00    -0.338 C  
BRANCH  11  12
HETATM   12  C   UNL     1     -10.600  11.641  66.725  1.00  0.00    -0.280 C  
BRANCH  12  13
HETATM   13  C   UNL     1      -9.241  11.199  66.206  1.00  0.00    -0.211 C  
BRANCH  13  14
HETATM   14  C   UNL     1      -8.129  12.012  66.857  1.00  0.00    -0.127 C  
BRANCH  14  15
HETATM   15  C   UNL     1      -8.652  12.745  68.084  1.00  0.00    -0.185 C  
BRANCH  15  16
HETATM   16  C   UNL     1      -7.923  14.069  68.268  1.00  0.00    -0.146 C  
BRANCH  16  17
HETATM   17  C   UNL     1      -8.917  15.209  68.457  1.00  0.00    -0.186 C  
BRANCH  17  18
HETATM   18  C   UNL     1     -10.343  14.675  68.512  1.00  0.00    -0.238 C  
BRANCH  18  19
HETATM   19  C   UNL     1     -11.215  15.346  67.457  1.00  0.00    -0.302 C  
BRANCH  19  20
HETATM   20  C   UNL     1     -10.370  15.817  66.278  1.00  0.00    -0.320 C  
BRANCH  20  21
HETATM   21  C   UNL     1     -10.526  14.881  65.085  1.00  0.00    -0.442 C  
BRANCH  21  22
HETATM   22  C   UNL     1     -11.929  14.964  64.498  1.00  0.00    -0.410 C  
HETATM   23  O   UNL     1     -12.053  16.143  63.714  1.00  0.00    -1.355 OA 
HETATM   24  H   UNL     1     -12.928  16.195  63.348  1.00  0.00     0.000 HD 
ENDBRANCH  21  22
ENDBRANCH  20  21
ENDBRANCH  19  20
ENDBRANCH  18  19
ENDBRANCH  17  18
ENDBRANCH  16  17
ENDBRANCH  15  16
ENDBRANCH  14  15
ENDBRANCH  13  14
ENDBRANCH  12  13
ENDBRANCH  11  12
ENDBRANCH  10  11
ENDBRANCH   9  10
ENDBRANCH   8   9
ENDBRANCH   7   8
ENDBRANCH   6   7
ENDBRANCH   5   6
ENDBRANCH   4   5
ENDBRANCH   3   4
ENDBRANCH   2   3
TORSDOF 20
ENDMDL
MODEL       52
REMARK 921   NORMALIZED FREE ENERGY PREDICTED BY IDOCK:   -3.97 KCAL/MOL
REMARK 922        TOTAL FREE ENERGY PREDICTED BY IDOCK:  -11.49 KCAL/MOL
REMARK 923 INTER-LIGAND FREE ENERGY PREDICTED BY IDOCK:   -8.66 KCAL/MOL
REMARK 924 INTRA-LIGAND FREE ENERGY PREDICTED BY IDOCK:   -2.83 KCAL/MOL
REMARK 927      BINDING AFFINITY PREDICTED BY RF-SCORE:    0.00 PKD
ROOT
HETATM    1  C   UNL     1     -11.844  14.579  68.414  1.00  0.00    -0.351 C  
HETATM    2  C   UNL     1     -11.861  14.101  66.973  1.00  0.00    -0.458 C  
ENDROOT
BRANCH   2   3
HETATM    3  C   UNL     1     -10.458  14.118  66.371  1.00  0.00    -0.283 C  
BRANCH   3   4
HETATM    4  C   UNL     1     -10.507  13.933  64.857  1.00  0.00    -0.446 C  
BRANCH   4   5
HETATM    5  C   UNL     1     -11.842  13.330  64.429  1.00  0.00    -0.448 C  
BRANCH   5   6
HETATM    6  C   UNL     1     -11.631  12.010  63.696  1.00  0.00    -0.578 C  
BRANCH   6   7
HETATM    7  C   UNL     1     -10.153  11.791  63.395  1.00  0.00    -0.470 C  
BRANCH   7   8
HETATM    8  C   UNL     1      -9.726  10.385  63.796  1.00  0.00    -0.351 C  
BRANCH   8   9
HETATM    9  C   UNL     1      -9.264  10.358  65.247  1.00  0.00    -0.240 C  
BRANCH   9  10
HETATM   10  C   UNL     1      -9.531   8.994  65.867  1.00  0.00    -0.317 C  
BRANCH  10  11
HETATM   11  C   UNL     1     -10.091   9.148  67.274  1.00  0.00    -0.295 C  
BRANCH  11  12
HETATM   12  C   UNL     1     -10.763  10.504  67.436  1.00  0.00    -0.334 C  
BRANCH  12  13
HETATM   13  C   UNL     1     -10.582  11.022  68.854  1.00  0.00    -0.239 C  
BRANCH  13  14
HETATM   14  C   UNL     1     -11.685  10.496  69.762  1.00  0.00    -0.354 C  
BRANCH  14  15
HETATM   15  C   UNL     1     -11.093   9.717  70.926  1.00  0.00    -0.422 C  
BRANCH  15  16
HETATM   16  C   UNL     1     -11.658   8.303  70.968  1.00  0.00    -0.301 C  
BRANCH  16  17
HETATM   17  C   UNL     1     -10.595   7.287  70.566  1.00  0.00    -0.237 C  
BRANCH  17  18
HETATM   18  C   UNL     1     -11.186   6.228  69.642  1.00  0.00    -0.506 C  
BRANCH  18  19
HETATM   19  C   UNL     1     -10.266   5.016  69.548  1.00  0.00    -0.286 C  
BRANCH  19  20
HETATM   20  C   UNL     1      -9.593   4.954  68.181  1.00  0.00    -0.191 C  
BRANCH  20  21
HETATM   21  C   UNL     1     -10.566   5.341  67.075  1.00  0.00    -0.255 C  
BRANCH  21  22
HETATM   22  C   UNL     1     -10.369   4.476  65.837  1.00  0.00    -0.258 C  
HETATM   23  O   UNL     1     -11.577   4.422  65.090  1.00  0.00    -1.042 OA 
HETATM   24  H   UNL     1     -11.454   3.882  64.318  1.00  0.00     0.000 HD 
ENDBRANCH  21  22
ENDBRANCH  20  21
ENDBRANCH  19  20
ENDBRANCH  18  19
ENDBRANCH  17  18
ENDBRANCH  16  17
ENDBRANCH  15  16
ENDBRANCH  14  15
ENDBRANCH  13  14
ENDBRANCH  12  13
ENDBRANCH  11  12
ENDBRANCH  10  11
ENDBRANCH   9  10
ENDBRANCH   8   9
ENDBRANCH   7   8
ENDBRANCH   6   7
ENDBRANCH   5   6
ENDBRANCH   4   5
ENDBRANCH   3   4
ENDBRANCH   2   3
TORSDOF 20
ENDMDL
MODEL       53
REMARK 921   NORMALIZED FREE ENERGY PREDICTED BY IDOCK:   -3.97 KCAL/MOL
REMARK 922        TOTAL FREE ENERGY PREDICTED BY IDOCK:  -11.48 KCAL/MOL
REMARK 923 INTER-LIGAND FREE ENERGY PREDICTED BY IDOCK:   -8.27 KCAL/MOL
REMARK 924 INTRA-LIGAND FREE ENERGY PREDICTED BY IDOCK:   -3.21 KCAL/MOL
REMARK 927      BINDING AFFINITY PREDICTED BY RF-SCORE:    0.00 PKD
ROOT
HETATM    1  C   UNL     1     -10.864   5.886  68.298  1.00  0.00    -0.325 C  
HETATM    2  C   UNL     1     -10.966   6.645  66.986  1.00  0.00    -0.463 C  
ENDROOT
BRANCH   2   3
HETATM    3  C   UNL     1     -10.490   8.086  67.146  1.00  0.00    -0.408 C  
BRANCH   3   4
HETATM    4  C   UNL     1     -10.358   8.461  68.619  1.00  0.00    -0.222 C  
BRANCH   4   5
HETATM    5  C   UNL     1      -8.919   8.845  68.951  1.00  0.00    -0.137 C  
BRANCH   5   6
HETATM    6  C   UNL     1      -8.819   9.402  70.367  1.00  0.00    -0.290 C  
BRANCH   6   7
HETATM    7  C   UNL     1      -7.990   8.477  71.251  1.00  0.00    -0.158 C  
BRANCH   7   8
HETATM    8  C   UNL     1      -8.140   7.030  70.802  1.00  0.00    -0.113 C  
BRANCH   8   9
HETATM    9  C   UNL     1      -9.236   6.333  71.598  1.00  0.00    -0.147 C  
BRANCH   9  10
HETATM   10  C   UNL     1      -9.473   7.048  72.921  1.00  0.00    -0.171 C  
BRANCH  10  11
HETATM   11  C   UNL     1     -10.941   7.423  73.069  1.00  0.00    -0.422 C  
BRANCH  11  12
HETATM   12  C   UNL     1     -11.715   7.054  71.812  1.00  0.00    -0.333 C  
BRANCH  12  13
HETATM   13  C   UNL     1     -12.724   8.139  71.470  1.00  0.00    -0.327 C  
BRANCH  13  14
HETATM   14  C   UNL     1     -12.141   9.518  71.745  1.00  0.00    -0.459 C  
BRANCH  14  15
HETATM   15  C   UNL     1     -12.904  10.584  70.973  1.00  0.00    -0.502 C  
BRANCH  15  16
HETATM   16  C   UNL     1     -11.941  11.578  70.338  1.00  0.00    -0.459 C  
BRANCH  16  17
HETATM   17  C   UNL     1     -12.035  11.523  68.817  1.00  0.00    -0.335 C  
BRANCH  17  18
HETATM   18  C   UNL     1     -10.764  12.071  68.180  1.00  0.00    -0.246 C  
BRANCH  18  19
HETATM   19  C   UNL     1     -11.096  12.995  67.014  1.00  0.00    -0.311 C  
BRANCH  19  20
HETATM   20  C   UNL     1     -11.421  12.189  65.761  1.00  0.00    -0.414 C  
BRANCH  20  21
HETATM   21  C   UNL     1     -12.587  12.808  64.999  1.00  0.00    -0.538 C  
BRANCH  21  22
HETATM   22  C   UNL     1     -12.403  14.311  64.834  1.00  0.00    -0.425 C  
HETATM   23  O   UNL     1     -12.468  14.655  63.456  1.00  0.00    -1.069 OA 
HETATM   24  H   UNL     1     -12.353  15.592  63.353  1.00  0.00     0.000 HD 
ENDBRANCH  21  22
ENDBRANCH  20  21
ENDBRANCH  19  20
ENDBRANCH  18  19
ENDBRANCH  17  18
ENDBRANCH  16  17
ENDBRANCH  15  16
ENDBRANCH  14  15
ENDBRANCH  13  14
ENDBRANCH  12  13
ENDBRANCH  11  12
ENDBRANCH  10  11
ENDBRANCH   9  10
ENDBRANCH   8   9
ENDBRANCH   7   8
ENDBRANCH   6   7
ENDBRANCH   5   6
ENDBRANCH   4   5
ENDBRANCH   3   4
ENDBRANCH   2   3
TORSDOF 20
ENDMDL
MODEL       54
REMARK 921   NORMALIZED FREE ENERGY PREDICTED BY IDOCK:   -3.97 KCAL/MOL
REMARK 922        TOTAL FREE ENERGY PREDICTED BY IDOCK:  -11.48 KCAL/MOL
REMARK 923 INTER-LIGAND FREE ENERGY PREDICTED BY IDOCK:   -9.05 KCAL/MOL
REMARK 924 INTRA-LIGAND FREE ENERGY PREDICTED BY IDOCK:   -2.43 KCAL/MOL
REMARK 927      BINDING AFFINITY PREDICTED BY RF-SCORE:    0.00 PKD
ROOT
HETATM    1  C   UNL     1     -12.589  11.233  70.896  1.00  0.00    -0.467 C  
HETATM    2  C   UNL     1     -13.280  10.023  71.500  1.00  0.00    -0.497 C  
ENDROOT
BRANCH   2   3
HETATM    3  C   UNL     1     -12.275   8.924  71.829  1.00  0.00    -0.429 C  
BRANCH   3   4
HETATM    4  C   UNL     1     -12.878   7.540  71.602  1.00  0.00    -0.392 C  
BRANCH   4   5
HETATM    5  C   UNL     1     -11.784   6.514  71.323  1.00  0.00    -0.386 C  
BRANCH   5   6
HETATM    6  C   UNL     1     -11.448   5.723  72.583  1.00  0.00    -0.337 C  
BRANCH   6   7
HETATM    7  C   UNL     1      -9.966   5.846  72.916  1.00  0.00    -0.189 C  
BRANCH   7   8
HETATM    8  C   UNL     1      -9.743   6.908  73.984  1.00  0.00    -0.326 C  
BRANCH   8   9
HETATM    9  C   UNL     1      -9.078   8.141  73.385  1.00  0.00    -0.309 C  
BRANCH   9  10
HETATM   10  C   UNL     1      -8.350   7.782  72.097  1.00  0.00    -0.148 C  
BRANCH  10  11
HETATM   11  C   UNL     1      -8.361   8.959  71.132  1.00  0.00    -0.232 C  
BRANCH  11  12
HETATM   12  C   UNL     1      -9.173   8.622  69.889  1.00  0.00    -0.155 C  
BRANCH  12  13
HETATM   13  C   UNL     1      -9.720   9.889  69.250  1.00  0.00    -0.218 C  
BRANCH  13  14
HETATM   14  C   UNL     1     -10.710   9.547  68.145  1.00  0.00    -0.247 C  
BRANCH  14  15
HETATM   15  C   UNL     1     -10.011   9.511  66.794  1.00  0.00    -0.297 C  
BRANCH  15  16
HETATM   16  C   UNL     1      -9.956  10.904  66.182  1.00  0.00    -0.282 C  
BRANCH  16  17
HETATM   17  C   UNL     1     -10.430  10.875  64.734  1.00  0.00    -0.373 C  
BRANCH  17  18
HETATM   18  C   UNL     1     -10.368  12.269  64.120  1.00  0.00    -0.396 C  
BRANCH  18  19
HETATM   19  C   UNL     1     -11.700  12.638  63.477  1.00  0.00    -0.604 C  
BRANCH  19  20
HETATM   20  C   UNL     1     -12.276  13.899  64.112  1.00  0.00    -0.436 C  
BRANCH  20  21
HETATM   21  C   UNL     1     -11.316  14.478  65.144  1.00  0.00    -0.366 C  
BRANCH  21  22
HETATM   22  C   UNL     1     -11.027  15.947  64.868  1.00  0.00    -0.411 C  
HETATM   23  O   UNL     1     -11.768  16.378  63.733  1.00  0.00    -1.553 OA 
HETATM   24  H   UNL     1     -11.587  17.295  63.560  1.00  0.00     0.000 HD 
ENDBRANCH  21  22
ENDBRANCH  20  21
ENDBRANCH  19  20
ENDBRANCH  18  19
ENDBRANCH  17  18
ENDBRANCH  16  17
ENDBRANCH  15  16
ENDBRANCH  14  15
ENDBRANCH  13  14
ENDBRANCH  12  13
ENDBRANCH  11  12
ENDBRANCH  10  11
ENDBRANCH   9  10
ENDBRANCH   8   9
ENDBRANCH   7   8
ENDBRANCH   6   7
ENDBRANCH   5   6
ENDBRANCH   4   5
ENDBRANCH   3   4
ENDBRANCH   2   3
TORSDOF 20
ENDMDL
MODEL       55
REMARK 921   NORMALIZED FREE ENERGY PREDICTED BY IDOCK:   -3.96 KCAL/MOL
REMARK 922        TOTAL FREE ENERGY PREDICTED BY IDOCK:  -11.47 KCAL/MOL
REMARK 923 INTER-LIGAND FREE ENERGY PREDICTED BY IDOCK:   -8.79 KCAL/MOL
REMARK 924 INTRA-LIGAND FREE ENERGY PREDICTED BY IDOCK:   -2.68 KCAL/MOL
REMARK 927      BINDING AFFINITY PREDICTED BY RF-SCORE:    0.00 PKD
ROOT
HETATM    1  C   UNL     1      -9.635  15.804  65.955  1.00  0.00    -0.382 C  
HETATM    2  C   UNL     1     -10.194  14.393  65.889  1.00  0.00    -0.341 C  
ENDROOT
BRANCH   2   3
HETATM    3  C   UNL     1     -11.708  14.393  66.076  1.00  0.00    -0.378 C  
BRANCH   3   4
HETATM    4  C   UNL     1     -12.385  13.454  65.081  1.00  0.00    -0.501 C  
BRANCH   4   5
HETATM    5  C   UNL     1     -11.432  13.092  63.946  1.00  0.00    -0.490 C  
BRANCH   5   6
HETATM    6  C   UNL     1     -11.495  11.599  63.639  1.00  0.00    -0.458 C  
BRANCH   6   7
HETATM    7  C   UNL     1     -10.135  11.085  63.184  1.00  0.00    -0.350 C  
BRANCH   7   8
HETATM    8  C   UNL     1      -9.237  10.810  64.382  1.00  0.00    -0.250 C  
BRANCH   8   9
HETATM    9  C   UNL     1      -9.910   9.843  65.347  1.00  0.00    -0.384 C  
BRANCH   9  10
HETATM   10  C   UNL     1      -9.238   9.895  66.712  1.00  0.00    -0.176 C  
BRANCH  10  11
HETATM   11  C   UNL     1      -9.735  11.094  67.507  1.00  0.00    -0.193 C  
BRANCH  11  12
HETATM   12  C   UNL     1     -11.218  10.951  67.817  1.00  0.00    -0.384 C  
BRANCH  12  13
HETATM   13  C   UNL     1     -11.713  12.146  68.616  1.00  0.00    -0.382 C  
BRANCH  13  14
HETATM   14  C   UNL     1     -11.769  11.811  70.101  1.00  0.00    -0.354 C  
BRANCH  14  15
HETATM   15  C   UNL     1     -12.586  10.549  70.333  1.00  0.00    -0.364 C  
BRANCH  15  16
HETATM   16  C   UNL     1     -13.244  10.581  71.706  1.00  0.00    -0.522 C  
BRANCH  16  17
HETATM   17  C   UNL     1     -13.127   9.224  72.391  1.00  0.00    -0.481 C  
BRANCH  17  18
HETATM   18  C   UNL     1     -14.238   8.291  71.927  1.00  0.00    -0.535 C  
BRANCH  18  19
HETATM   19  C   UNL     1     -13.660   7.006  71.343  1.00  0.00    -0.312 C  
BRANCH  19  20
HETATM   20  C   UNL     1     -12.136   7.023  71.406  1.00  0.00    -0.396 C  
BRANCH  20  21
HETATM   21  C   UNL     1     -11.530   6.369  70.171  1.00  0.00    -0.484 C  
BRANCH  21  22
HETATM   22  C   UNL     1     -10.784   7.385  69.316  1.00  0.00    -0.185 C  
HETATM   23  O   UNL     1     -11.262   7.333  67.979  1.00  0.00    -0.485 OA 
HETATM   24  H   UNL     1     -10.796   7.967  67.446  1.00  0.00     0.000 HD 
ENDBRANCH  21  22
ENDBRANCH  20  21
ENDBRANCH  19  20
ENDBRANCH  18  19
ENDBRANCH  17  18
ENDBRANCH  16  17
ENDBRANCH  15  16
ENDBRANCH  14  15
ENDBRANCH  13  14
ENDBRANCH  12  13
ENDBRANCH  11  12
ENDBRANCH  10  11
ENDBRANCH   9  10
ENDBRANCH   8   9
ENDBRANCH   7   8
ENDBRANCH   6   7
ENDBRANCH   5   6
ENDBRANCH   4   5
ENDBRANCH   3   4
ENDBRANCH   2   3
TORSDOF 20
ENDMDL
MODEL       56
REMARK 921   NORMALIZED FREE ENERGY PREDICTED BY IDOCK:   -3.96 KCAL/MOL
REMARK 922        TOTAL FREE ENERGY PREDICTED BY IDOCK:  -11.46 KCAL/MOL
REMARK 923 INTER-LIGAND FREE ENERGY PREDICTED BY IDOCK:   -9.24 KCAL/MOL
REMARK 924 INTRA-LIGAND FREE ENERGY PREDICTED BY IDOCK:   -2.23 KCAL/MOL
REMARK 927      BINDING AFFINITY PREDICTED BY RF-SCORE:    0.00 PKD
ROOT
HETATM    1  C   UNL     1     -10.823  14.736  64.810  1.00  0.00    -0.395 C  
HETATM    2  C   UNL     1     -12.239  14.206  64.661  1.00  0.00    -0.465 C  
ENDROOT
BRANCH   2   3
HETATM    3  C   UNL     1     -12.379  12.826  65.297  1.00  0.00    -0.546 C  
BRANCH   3   4
HETATM    4  C   UNL     1     -12.033  12.868  66.782  1.00  0.00    -0.418 C  
BRANCH   4   5
HETATM    5  C   UNL     1     -11.301  11.596  67.202  1.00  0.00    -0.373 C  
BRANCH   5   6
HETATM    6  C   UNL     1     -10.566  10.977  66.018  1.00  0.00    -0.275 C  
BRANCH   6   7
HETATM    7  C   UNL     1     -10.130   9.553  66.341  1.00  0.00    -0.328 C  
BRANCH   7   8
HETATM    8  C   UNL     1     -10.633   9.137  67.716  1.00  0.00    -0.289 C  
BRANCH   8   9
HETATM    9  C   UNL     1     -10.462   7.637  67.919  1.00  0.00    -0.270 C  
BRANCH   9  10
HETATM   10  C   UNL     1     -10.291   7.313  69.396  1.00  0.00    -0.212 C  
BRANCH  10  11
HETATM   11  C   UNL     1     -11.451   6.461  69.894  1.00  0.00    -0.483 C  
BRANCH  11  12
HETATM   12  C   UNL     1     -12.206   7.182  71.000  1.00  0.00    -0.384 C  
BRANCH  12  13
HETATM   13  C   UNL     1     -11.495   8.472  71.377  1.00  0.00    -0.344 C  
BRANCH  13  14
HETATM   14  C   UNL     1     -12.505   9.567  71.697  1.00  0.00    -0.476 C  
BRANCH  14  15
HETATM   15  C   UNL     1     -12.696  10.484  70.498  1.00  0.00    -0.385 C  
BRANCH  15  16
HETATM   16  C   UNL     1     -12.556  11.943  70.911  1.00  0.00    -0.361 C  
BRANCH  16  17
HETATM   17  C   UNL     1     -13.392  12.233  72.152  1.00  0.00    -0.473 C  
BRANCH  17  18
HETATM   18  C   UNL     1     -13.937  13.656  72.113  1.00  0.00    -0.609 C  
BRANCH  18  19
HETATM   19  C   UNL     1     -12.938  14.636  72.719  1.00  0.00    -0.564 C  
BRANCH  19  20
HETATM   20  C   UNL     1     -12.647  15.777  71.751  1.00  0.00    -0.524 C  
BRANCH  20  21
HETATM   21  C   UNL     1     -11.331  15.550  71.017  1.00  0.00    -0.421 C  
BRANCH  21  22
HETATM   22  C   UNL     1     -11.562  15.291  69.534  1.00  0.00    -0.322 C  
HETATM   23  O   UNL     1     -11.318  16.480  68.794  1.00  0.00    -0.318 OA 
HETATM   24  H   UNL     1     -11.463  16.318  67.869  1.00  0.00     0.000 HD 
ENDBRANCH  21  22
ENDBRANCH  20  21
ENDBRANCH  19  20
ENDBRANCH  18  19
ENDBRANCH  17  18
ENDBRANCH  16  17
ENDBRANCH  15  16
ENDBRANCH  14  15
ENDBRANCH  13  14
ENDBRANCH  12  13
ENDBRANCH  11  12
ENDBRANCH  10  11
ENDBRANCH   9  10
ENDBRANCH   8   9
ENDBRANCH   7   8
ENDBRANCH   6   7
ENDBRANCH   5   6
ENDBRANCH   4   5
ENDBRANCH   3   4
ENDBRANCH   2   3
TORSDOF 20
ENDMDL
MODEL       57
REMARK 921   NORMALIZED FREE ENERGY PREDICTED BY IDOCK:   -3.96 KCAL/MOL
REMARK 922        TOTAL FREE ENERGY PREDICTED BY IDOCK:  -11.46 KCAL/MOL
REMARK 923 INTER-LIGAND FREE ENERGY PREDICTED BY IDOCK:   -7.79 KCAL/MOL
REMARK 924 INTRA-LIGAND FREE ENERGY PREDICTED BY IDOCK:   -3.66 KCAL/MOL
REMARK 927      BINDING AFFINITY PREDICTED BY RF-SCORE:    0.00 PKD
ROOT
HETATM    1  C   UNL     1     -12.572  12.638  64.774  1.00  0.00    -0.530 C  
HETATM    2  C   UNL     1     -11.536  12.267  63.727  1.00  0.00    -0.555 C  
ENDROOT
BRANCH   2   3
HETATM    3  C   UNL     1     -10.196  11.931  64.376  1.00  0.00    -0.333 C  
BRANCH   3   4
HETATM    4  C   UNL     1     -10.235  10.556  65.037  1.00  0.00    -0.365 C  
BRANCH   4   5
HETATM    5  C   UNL     1      -8.824  10.071  65.358  1.00  0.00    -0.199 C  
BRANCH   5   6
HETATM    6  C   UNL     1      -8.849   9.017  66.460  1.00  0.00    -0.158 C  
BRANCH   6   7
HETATM    7  C   UNL     1     -10.283   8.668  66.838  1.00  0.00    -0.367 C  
BRANCH   7   8
HETATM    8  C   UNL     1     -10.324   7.949  68.180  1.00  0.00    -0.249 C  
BRANCH   8   9
HETATM    9  C   UNL     1      -9.163   8.390  69.060  1.00  0.00    -0.147 C  
BRANCH   9  10
HETATM   10  C   UNL     1      -9.602   8.491  70.514  1.00  0.00    -0.194 C  
BRANCH  10  11
HETATM   11  C   UNL     1     -11.023   9.029  70.607  1.00  0.00    -0.308 C  
BRANCH  11  12
HETATM   12  C   UNL     1     -11.040  10.533  70.372  1.00  0.00    -0.321 C  
BRANCH  12  13
HETATM   13  C   UNL     1     -12.107  10.901  69.354  1.00  0.00    -0.362 C  
BRANCH  13  14
HETATM   14  C   UNL     1     -11.550  11.870  68.320  1.00  0.00    -0.390 C  
BRANCH  14  15
HETATM   15  C   UNL     1     -10.040  11.992  68.462  1.00  0.00    -0.201 C  
BRANCH  15  16
HETATM   16  C   UNL     1      -9.557  13.332  67.922  1.00  0.00    -0.217 C  
BRANCH  16  17
HETATM   17  C   UNL     1     -10.724  14.299  67.763  1.00  0.00    -0.253 C  
BRANCH  17  18
HETATM   18  C   UNL     1     -10.632  15.426  68.785  1.00  0.00    -0.235 C  
BRANCH  18  19
HETATM   19  C   UNL     1     -12.002  15.731  69.381  1.00  0.00    -0.321 C  
BRANCH  19  20
HETATM   20  C   UNL     1     -12.037  15.376  70.864  1.00  0.00    -0.413 C  
BRANCH  20  21
HETATM   21  C   UNL     1     -12.875  14.127  71.107  1.00  0.00    -0.431 C  
BRANCH  21  22
HETATM   22  C   UNL     1     -13.468  14.123  72.510  1.00  0.00    -0.534 C  
HETATM   23  O   UNL     1     -14.087  12.870  72.768  1.00  0.00    -0.714 OA 
HETATM   24  H   UNL     1     -14.457  12.867  73.643  1.00  0.00     0.000 HD 
ENDBRANCH  21  22
ENDBRANCH  20  21
ENDBRANCH  19  20
ENDBRANCH  18  19
ENDBRANCH  17  18
ENDBRANCH  16  17
ENDBRANCH  15  16
ENDBRANCH  14  15
ENDBRANCH  13  14
ENDBRANCH  12  13
ENDBRANCH  11  12
ENDBRANCH  10  11
ENDBRANCH   9  10
ENDBRANCH   8   9
ENDBRANCH   7   8
ENDBRANCH   6   7
ENDBRANCH   5   6
ENDBRANCH   4   5
ENDBRANCH   3   4
ENDBRANCH   2   3
TORSDOF 20
ENDMDL
MODEL       58
REMARK 921   NORMALIZED FREE ENERGY PREDICTED BY IDOCK:   -3.96 KCAL/MOL
REMARK 922        TOTAL FREE ENERGY PREDICTED BY IDOCK:  -11.46 KCAL/MOL
REMARK 923 INTER-LIGAND FREE ENERGY PREDICTED BY IDOCK:   -9.48 KCAL/MOL
REMARK 924 INTRA-LIGAND FREE ENERGY PREDICTED BY IDOCK:   -1.98 KCAL/MOL
REMARK 927      BINDING AFFINITY PREDICTED BY RF-SCORE:    0.00 PKD
ROOT
HETATM    1  C   UNL     1     -10.359  11.218  65.226  1.00  0.00    -0.337 C  
HETATM    2  C   UNL     1     -10.778  11.258  63.767  1.00  0.00    -0.448 C  
ENDROOT
BRANCH   2   3
HETATM    3  C   UNL     1     -12.113  11.977  63.598  1.00  0.00    -0.627 C  
BRANCH   3   4
HETATM    4  C   UNL     1     -12.468  12.779  64.847  1.00  0.00    -0.563 C  
BRANCH   4   5
HETATM    5  C   UNL     1     -12.352  14.276  64.577  1.00  0.00    -0.432 C  
BRANCH   5   6
HETATM    6  C   UNL     1     -11.018  14.817  65.080  1.00  0.00    -0.426 C  
BRANCH   6   7
HETATM    7  C   UNL     1     -11.131  15.269  66.530  1.00  0.00    -0.271 C  
BRANCH   7   8
HETATM    8  C   UNL     1      -9.835  14.994  67.281  1.00  0.00    -0.228 C  
BRANCH   8   9
HETATM    9  C   UNL     1      -9.993  13.792  68.203  1.00  0.00    -0.242 C  
BRANCH   9  10
HETATM   10  C   UNL     1     -11.230  13.947  69.076  1.00  0.00    -0.312 C  
BRANCH  10  11
HETATM   11  C   UNL     1     -11.054  15.101  70.052  1.00  0.00    -0.297 C  
BRANCH  11  12
HETATM   12  C   UNL     1     -12.405  15.575  70.568  1.00  0.00    -0.461 C  
BRANCH  12  13
HETATM   13  C   UNL     1     -12.304  15.984  72.029  1.00  0.00    -0.540 C  
BRANCH  13  14
HETATM   14  C   UNL     1     -13.129  15.051  72.906  1.00  0.00    -0.576 C  
BRANCH  14  15
HETATM   15  C   UNL     1     -13.948  14.099  72.048  1.00  0.00    -0.604 C  
BRANCH  15  16
HETATM   16  C   UNL     1     -13.637  12.652  72.407  1.00  0.00    -0.435 C  
BRANCH  16  17
HETATM   17  C   UNL     1     -13.127  11.892  71.188  1.00  0.00    -0.131 C  
BRANCH  17  18
HETATM   18  C   UNL     1     -12.666  10.493  71.581  1.00  0.00    -0.550 C  
BRANCH  18  19
HETATM   19  C   UNL     1     -11.513  10.034  70.695  1.00  0.00    -0.425 C  
BRANCH  19  20
HETATM   20  C   UNL     1     -10.562   9.130  71.473  1.00  0.00    -0.428 C  
BRANCH  20  21
HETATM   21  C   UNL     1     -11.329   8.048  72.224  1.00  0.00    -0.413 C  
BRANCH  21  22
HETATM   22  C   UNL     1     -10.402   7.233  73.118  1.00  0.00    -0.313 C  
HETATM   23  O   UNL     1     -11.154   6.259  73.829  1.00  0.00    -0.416 OA 
HETATM   24  H   UNL     1     -10.576   5.751  74.386  1.00  0.00     0.000 HD 
ENDBRANCH  21  22
ENDBRANCH  20  21
ENDBRANCH  19  20
ENDBRANCH  18  19
ENDBRANCH  17  18
ENDBRANCH  16  17
ENDBRANCH  15  16
ENDBRANCH  14  15
ENDBRANCH  13  14
ENDBRANCH  12  13
ENDBRANCH  11  12
ENDBRANCH  10  11
ENDBRANCH   9  10
ENDBRANCH   8   9
ENDBRANCH   7   8
ENDBRANCH   6   7
ENDBRANCH   5   6
ENDBRANCH   4   5
ENDBRANCH   3   4
ENDBRANCH   2   3
TORSDOF 20
ENDMDL
MODEL       59
REMARK 921   NORMALIZED FREE ENERGY PREDICTED BY IDOCK:   -3.95 KCAL/MOL
REMARK 922        TOTAL FREE ENERGY PREDICTED BY IDOCK:  -11.44 KCAL/MOL
REMARK 923 INTER-LIGAND FREE ENERGY PREDICTED BY IDOCK:   -8.99 KCAL/MOL
REMARK 924 INTRA-LIGAND FREE ENERGY PREDICTED BY IDOCK:   -2.44 KCAL/MOL
REMARK 927      BINDING AFFINITY PREDICTED BY RF-SCORE:    0.00 PKD
ROOT
HETATM    1  C   UNL     1     -11.919  13.025  69.536  1.00  0.00    -0.350 C  
HETATM    2  C   UNL     1     -11.672  12.694  68.075  1.00  0.00    -0.402 C  
ENDROOT
BRANCH   2   3
HETATM    3  C   UNL     1     -10.608  13.609  67.476  1.00  0.00    -0.243 C  
BRANCH   3   4
HETATM    4  C   UNL     1     -10.920  13.934  66.018  1.00  0.00    -0.285 C  
BRANCH   4   5
HETATM    5  C   UNL     1     -12.312  13.439  65.639  1.00  0.00    -0.521 C  
BRANCH   5   6
HETATM    6  C   UNL     1     -12.261  12.592  64.372  1.00  0.00    -0.518 C  
BRANCH   6   7
HETATM    7  C   UNL     1     -10.843  12.541  63.816  1.00  0.00    -0.489 C  
BRANCH   7   8
HETATM    8  C   UNL     1     -10.366  11.100  63.696  1.00  0.00    -0.449 C  
BRANCH   8   9
HETATM    9  C   UNL     1      -9.424  10.750  64.839  1.00  0.00    -0.288 C  
BRANCH   9  10
HETATM   10  C   UNL     1      -9.895   9.491  65.554  1.00  0.00    -0.304 C  
BRANCH  10  11
HETATM   11  C   UNL     1     -10.240   9.799  67.005  1.00  0.00    -0.292 C  
BRANCH  11  12
HETATM   12  C   UNL     1     -10.498   8.512  67.776  1.00  0.00    -0.287 C  
BRANCH  12  13
HETATM   13  C   UNL     1     -10.471   7.315  66.838  1.00  0.00    -0.369 C  
BRANCH  13  14
HETATM   14  C   UNL     1     -11.005   6.073  67.540  1.00  0.00    -0.335 C  
BRANCH  14  15
HETATM   15  C   UNL     1     -11.255   6.358  69.013  1.00  0.00    -0.402 C  
BRANCH  15  16
HETATM   16  C   UNL     1     -10.411   5.441  69.888  1.00  0.00    -0.377 C  
BRANCH  16  17
HETATM   17  C   UNL     1      -9.423   6.251  70.719  1.00  0.00    -0.185 C  
BRANCH  17  18
HETATM   18  C   UNL     1      -9.971   6.491  72.121  1.00  0.00    -0.173 C  
BRANCH  18  19
HETATM   19  C   UNL     1     -10.236   7.975  72.353  1.00  0.00    -0.347 C  
BRANCH  19  20
HETATM   20  C   UNL     1     -11.700   8.213  72.705  1.00  0.00    -0.419 C  
BRANCH  20  21
HETATM   21  C   UNL     1     -12.466   8.768  71.510  1.00  0.00    -0.374 C  
BRANCH  21  22
HETATM   22  C   UNL     1     -13.944   8.945  71.834  1.00  0.00    -0.419 C  
HETATM   23  O   UNL     1     -14.107   9.178  73.227  1.00  0.00    -1.165 OA 
HETATM   24  H   UNL     1     -15.028   9.287  73.429  1.00  0.00     0.000 HD 
ENDBRANCH  21  22
ENDBRANCH  20  21
ENDBRANCH  19  20
ENDBRANCH  18  19
ENDBRANCH  17  18
ENDBRANCH  16  17
ENDBRANCH  15  16
ENDBRANCH  14  15
ENDBRANCH  13  14
ENDBRANCH  12  13
ENDBRANCH  11  12
ENDBRANCH  10  11
ENDBRANCH   9  10
ENDBRANCH   8   9
ENDBRANCH   7   8
ENDBRANCH   6   7
ENDBRANCH   5   6
ENDBRANCH   4   5
ENDBRANCH   3   4
ENDBRANCH   2   3
TORSDOF 20
ENDMDL
MODEL       60
REMARK 921   NORMALIZED FREE ENERGY PREDICTED BY IDOCK:   -3.95 KCAL/MOL
REMARK 922        TOTAL FREE ENERGY PREDICTED BY IDOCK:  -11.43 KCAL/MOL
REMARK 923 INTER-LIGAND FREE ENERGY PREDICTED BY IDOCK:   -7.97 KCAL/MOL
REMARK 924 INTRA-LIGAND FREE ENERGY PREDICTED BY IDOCK:   -3.46 KCAL/MOL
REMARK 927      BINDING AFFINITY PREDICTED BY RF-SCORE:    0.00 PKD
ROOT
HETATM    1  C   UNL     1      -7.017  16.023  67.259  1.00  0.00    -0.240 C  
HETATM    2  C   UNL     1      -8.175  15.123  66.865  1.00  0.00    -0.234 C  
ENDROOT
BRANCH   2   3
HETATM    3  C   UNL     1      -9.132  15.841  65.919  1.00  0.00    -0.300 C  
BRANCH   3   4
HETATM    4  C   UNL     1     -10.060  14.852  65.219  1.00  0.00    -0.380 C  
BRANCH   4   5
HETATM    5  C   UNL     1     -11.408  15.498  64.915  1.00  0.00    -0.339 C  
BRANCH   5   6
HETATM    6  C   UNL     1     -12.284  14.563  64.087  1.00  0.00    -0.372 C  
BRANCH   6   7
HETATM    7  C   UNL     1     -12.346  13.180  64.723  1.00  0.00    -0.477 C  
BRANCH   7   8
HETATM    8  C   UNL     1     -11.994  12.104  63.704  1.00  0.00    -0.628 C  
BRANCH   8   9
HETATM    9  C   UNL     1     -10.487  12.043  63.488  1.00  0.00    -0.505 C  
BRANCH   9  10
HETATM   10  C   UNL     1     -10.026  10.599  63.349  1.00  0.00    -0.329 C  
BRANCH  10  11
HETATM   11  C   UNL     1      -9.574  10.051  64.696  1.00  0.00    -0.363 C  
BRANCH  11  12
HETATM   12  C   UNL     1      -9.391  11.183  65.697  1.00  0.00    -0.243 C  
BRANCH  12  13
HETATM   13  C   UNL     1     -10.305  10.986  66.896  1.00  0.00    -0.279 C  
BRANCH  13  14
HETATM   14  C   UNL     1     -10.264  12.206  67.807  1.00  0.00    -0.207 C  
BRANCH  14  15
HETATM   15  C   UNL     1     -11.674  12.648  68.171  1.00  0.00    -0.396 C  
BRANCH  15  16
HETATM   16  C   UNL     1     -11.706  14.140  68.474  1.00  0.00    -0.380 C  
BRANCH  16  17
HETATM   17  C   UNL     1     -10.560  14.526  69.402  1.00  0.00    -0.172 C  
BRANCH  17  18
HETATM   18  C   UNL     1     -10.656  15.996  69.791  1.00  0.00    -0.323 C  
BRANCH  18  19
HETATM   19  C   UNL     1     -11.081  16.846  68.599  1.00  0.00    -0.194 C  
BRANCH  19  20
HETATM   20  C   UNL     1     -10.195  18.081  68.473  1.00  0.00    -0.392 C  
BRANCH  20  21
HETATM   21  C   UNL     1     -10.763  19.060  67.452  1.00  0.00    -0.559 C  
BRANCH  21  22
HETATM   22  C   UNL     1      -9.741  19.386  66.371  1.00  0.00    -0.386 C  
HETATM   23  O   UNL     1      -8.440  19.446  66.942  1.00  0.00    -0.272 OA 
HETATM   24  H   UNL     1      -7.802  19.649  66.267  1.00  0.00     0.000 HD 
ENDBRANCH  21  22
ENDBRANCH  20  21
ENDBRANCH  19  20
ENDBRANCH  18  19
ENDBRANCH  17  18
ENDBRANCH  16  17
ENDBRANCH  15  16
ENDBRANCH  14  15
ENDBRANCH  13  14
ENDBRANCH  12  13
ENDBRANCH  11  12
ENDBRANCH  10  11
ENDBRANCH   9  10
ENDBRANCH   8   9
ENDBRANCH   7   8
ENDBRANCH   6   7
ENDBRANCH   5   6
ENDBRANCH   4   5
ENDBRANCH   3   4
ENDBRANCH   2   3
TORSDOF 20
ENDMDL
MODEL       61
REMARK 921   NORMALIZED FREE ENERGY PREDICTED BY IDOCK:   -3.94 KCAL/MOL
REMARK 922        TOTAL FREE ENERGY PREDICTED BY IDOCK:  -11.43 KCAL/MOL
REMARK 923 INTER-LIGAND FREE ENERGY PREDICTED BY IDOCK:   -8.47 KCAL/MOL
REMARK 924 INTRA-LIGAND FREE ENERGY PREDICTED BY IDOCK:   -2.95 KCAL/MOL
REMARK 927      BINDING AFFINITY PREDICTED BY RF-SCORE:    0.00 PKD
ROOT
HETATM    1  C   UNL     1      -9.084  15.776  66.069  1.00  0.00    -0.361 C  
HETATM    2  C   UNL     1      -9.933  14.560  65.742  1.00  0.00    -0.361 C  
ENDROOT
BRANCH   2   3
HETATM    3  C   UNL     1     -11.406  14.823  66.037  1.00  0.00    -0.332 C  
BRANCH   3   4
HETATM    4  C   UNL     1     -12.306  13.999  65.120  1.00  0.00    -0.468 C  
BRANCH   4   5
HETATM    5  C   UNL     1     -11.505  13.413  63.961  1.00  0.00    -0.392 C  
BRANCH   5   6
HETATM    6  C   UNL     1     -11.720  11.906  63.861  1.00  0.00    -0.509 C  
BRANCH   6   7
HETATM    7  C   UNL     1     -10.480  11.223  63.299  1.00  0.00    -0.370 C  
BRANCH   7   8
HETATM    8  C   UNL     1      -9.429  11.040  64.386  1.00  0.00    -0.273 C  
BRANCH   8   9
HETATM    9  C   UNL     1      -9.906  10.038  65.430  1.00  0.00    -0.384 C  
BRANCH   9  10
HETATM   10  C   UNL     1      -9.094  10.174  66.710  1.00  0.00    -0.159 C  
BRANCH  10  11
HETATM   11  C   UNL     1      -9.719  11.212  67.632  1.00  0.00    -0.184 C  
BRANCH  11  12
HETATM   12  C   UNL     1     -11.211  10.955  67.790  1.00  0.00    -0.384 C  
BRANCH  12  13
HETATM   13  C   UNL     1     -11.899  12.169  68.395  1.00  0.00    -0.360 C  
BRANCH  13  14
HETATM   14  C   UNL     1     -11.591  12.274  69.883  1.00  0.00    -0.278 C  
BRANCH  14  15
HETATM   15  C   UNL     1     -12.288  11.161  70.652  1.00  0.00    -0.482 C  
BRANCH  15  16
HETATM   16  C   UNL     1     -12.984  11.718  71.886  1.00  0.00    -0.435 C  
BRANCH  16  17
HETATM   17  C   UNL     1     -13.441  13.152  71.646  1.00  0.00    -0.320 C  
BRANCH  17  18
HETATM   18  C   UNL     1     -13.181  14.012  72.876  1.00  0.00    -0.502 C  
BRANCH  18  19
HETATM   19  C   UNL     1     -12.784  15.428  72.474  1.00  0.00    -0.480 C  
BRANCH  19  20
HETATM   20  C   UNL     1     -12.596  15.527  70.964  1.00  0.00    -0.513 C  
BRANCH  20  21
HETATM   21  C   UNL     1     -11.373  16.369  70.619  1.00  0.00    -0.208 C  
BRANCH  21  22
HETATM   22  C   UNL     1     -10.628  15.797  69.420  1.00  0.00    -0.255 C  
HETATM   23  O   UNL     1      -9.437  15.154  69.855  1.00  0.00    -0.462 OA 
HETATM   24  H   UNL     1      -8.973  14.797  69.106  1.00  0.00     0.000 HD 
ENDBRANCH  21  22
ENDBRANCH  20  21
ENDBRANCH  19  20
ENDBRANCH  18  19
ENDBRANCH  17  18
ENDBRANCH  16  17
ENDBRANCH  15  16
ENDBRANCH  14  15
ENDBRANCH  13  14
ENDBRANCH  12  13
ENDBRANCH  11  12
ENDBRANCH  10  11
ENDBRANCH   9  10
ENDBRANCH   8   9
ENDBRANCH   7   8
ENDBRANCH   6   7
ENDBRANCH   5   6
ENDBRANCH   4   5
ENDBRANCH   3   4
ENDBRANCH   2   3
TORSDOF 20
ENDMDL
MODEL       62
REMARK 921   NORMALIZED FREE ENERGY PREDICTED BY IDOCK:   -3.93 KCAL/MOL
REMARK 922        TOTAL FREE ENERGY PREDICTED BY IDOCK:  -11.39 KCAL/MOL
REMARK 923 INTER-LIGAND FREE ENERGY PREDICTED BY IDOCK:   -8.29 KCAL/MOL
REMARK 924 INTRA-LIGAND FREE ENERGY PREDICTED BY IDOCK:   -3.10 KCAL/MOL
REMARK 927      BINDING AFFINITY PREDICTED BY RF-SCORE:    0.00 PKD
ROOT
HETATM    1  C   UNL     1      -8.846  10.521  64.812  1.00  0.00    -0.211 C  
HETATM    2  C   UNL     1     -10.325  10.608  64.475  1.00  0.00    -0.352 C  
ENDROOT
BRANCH   2   3
HETATM    3  C   UNL     1     -10.608  11.782  63.542  1.00  0.00    -0.499 C  
BRANCH   3   4
HETATM    4  C   UNL     1     -12.044  12.273  63.698  1.00  0.00    -0.648 C  
BRANCH   4   5
HETATM    5  C   UNL     1     -12.073  13.675  64.300  1.00  0.00    -0.480 C  
BRANCH   5   6
HETATM    6  C   UNL     1     -10.661  14.161  64.611  1.00  0.00    -0.408 C  
BRANCH   6   7
HETATM    7  C   UNL     1     -10.696  15.304  65.618  1.00  0.00    -0.376 C  
BRANCH   7   8
HETATM    8  C   UNL     1      -9.283  15.728  65.995  1.00  0.00    -0.379 C  
BRANCH   8   9
HETATM    9  C   UNL     1      -9.217  16.132  67.463  1.00  0.00    -0.210 C  
BRANCH   9  10
HETATM   10  C   UNL     1     -10.440  16.953  67.846  1.00  0.00    -0.344 C  
BRANCH  10  11
HETATM   11  C   UNL     1     -10.723  16.825  69.337  1.00  0.00    -0.300 C  
BRANCH  11  12
HETATM   12  C   UNL     1     -10.349  15.436  69.833  1.00  0.00    -0.298 C  
BRANCH  12  13
HETATM   13  C   UNL     1     -11.590  14.676  70.273  1.00  0.00    -0.335 C  
BRANCH  13  14
HETATM   14  C   UNL     1     -12.069  13.746  69.166  1.00  0.00    -0.374 C  
BRANCH  14  15
HETATM   15  C   UNL     1     -10.903  12.956  68.590  1.00  0.00    -0.288 C  
BRANCH  15  16
HETATM   16  C   UNL     1     -11.402  11.890  67.625  1.00  0.00    -0.372 C  
BRANCH  16  17
HETATM   17  C   UNL     1     -11.022  10.498  68.117  1.00  0.00    -0.330 C  
BRANCH  17  18
HETATM   18  C   UNL     1      -9.695  10.537  68.866  1.00  0.00    -0.206 C  
BRANCH  18  19
HETATM   19  C   UNL     1      -9.793   9.772  70.182  1.00  0.00    -0.306 C  
BRANCH  19  20
HETATM   20  C   UNL     1     -10.746   8.589  70.049  1.00  0.00    -0.234 C  
BRANCH  20  21
HETATM   21  C   UNL     1     -11.641   8.467  71.277  1.00  0.00    -0.332 C  
BRANCH  21  22
HETATM   22  C   UNL     1     -12.355   9.779  71.573  1.00  0.00    -0.405 C  
HETATM   23  O   UNL     1     -13.410   9.974  70.640  1.00  0.00    -0.602 OA 
HETATM   24  H   UNL     1     -13.855  10.793  70.825  1.00  0.00     0.000 HD 
ENDBRANCH  21  22
ENDBRANCH  20  21
ENDBRANCH  19  20
ENDBRANCH  18  19
ENDBRANCH  17  18
ENDBRANCH  16  17
ENDBRANCH  15  16
ENDBRANCH  14  15
ENDBRANCH  13  14
ENDBRANCH  12  13
ENDBRANCH  11  12
ENDBRANCH  10  11
ENDBRANCH   9  10
ENDBRANCH   8   9
ENDBRANCH   7   8
ENDBRANCH   6   7
ENDBRANCH   5   6
ENDBRANCH   4   5
ENDBRANCH   3   4
ENDBRANCH   2   3
TORSDOF 20
ENDMDL
MODEL       63
REMARK 921   NORMALIZED FREE ENERGY PREDICTED BY IDOCK:   -3.92 KCAL/MOL
REMARK 922        TOTAL FREE ENERGY PREDICTED BY IDOCK:  -11.38 KCAL/MOL
REMARK 923 INTER-LIGAND FREE ENERGY PREDICTED BY IDOCK:   -8.88 KCAL/MOL
REMARK 924 INTRA-LIGAND FREE ENERGY PREDICTED BY IDOCK:   -2.51 KCAL/MOL
REMARK 927      BINDING AFFINITY PREDICTED BY RF-SCORE:    0.00 PKD
ROOT
HETATM    1  C   UNL     1      -9.699   4.591  70.656  1.00  0.00    -0.282 C  
HETATM    2  C   UNL     1      -9.965   5.809  69.788  1.00  0.00    -0.250 C  
ENDROOT
BRANCH   2   3
HETATM    3  C   UNL     1     -11.397   6.306  69.962  1.00  0.00    -0.486 C  
BRANCH   3   4
HETATM    4  C   UNL     1     -11.745   6.474  71.439  1.00  0.00    -0.378 C  
BRANCH   4   5
HETATM    5  C   UNL     1     -12.785   7.575  71.627  1.00  0.00    -0.385 C  
BRANCH   5   6
HETATM    6  C   UNL     1     -12.125   8.871  72.085  1.00  0.00    -0.430 C  
BRANCH   6   7
HETATM    7  C   UNL     1     -12.727  10.067  71.358  1.00  0.00    -0.518 C  
BRANCH   7   8
HETATM    8  C   UNL     1     -11.818  10.515  70.220  1.00  0.00    -0.418 C  
BRANCH   8   9
HETATM    9  C   UNL     1     -10.435   9.894  70.362  1.00  0.00    -0.347 C  
BRANCH   9  10
HETATM   10  C   UNL     1      -9.851   9.570  68.994  1.00  0.00    -0.178 C  
BRANCH  10  11
HETATM   11  C   UNL     1     -10.891   9.791  67.904  1.00  0.00    -0.298 C  
BRANCH  11  12
HETATM   12  C   UNL     1     -10.214  10.020  66.560  1.00  0.00    -0.291 C  
BRANCH  12  13
HETATM   13  C   UNL     1     -10.369  11.469  66.127  1.00  0.00    -0.287 C  
BRANCH  13  14
HETATM   14  C   UNL     1      -9.209  12.310  66.643  1.00  0.00    -0.208 C  
BRANCH  14  15
HETATM   15  C   UNL     1      -9.698  13.325  67.665  1.00  0.00    -0.219 C  
BRANCH  15  16
HETATM   16  C   UNL     1     -11.139  13.724  67.376  1.00  0.00    -0.312 C  
BRANCH  16  17
HETATM   17  C   UNL     1     -11.840  14.175  68.652  1.00  0.00    -0.383 C  
BRANCH  17  18
HETATM   18  C   UNL     1     -11.677  15.676  68.854  1.00  0.00    -0.396 C  
BRANCH  18  19
HETATM   19  C   UNL     1     -11.070  15.978  70.220  1.00  0.00    -0.380 C  
BRANCH  19  20
HETATM   20  C   UNL     1     -12.135  15.907  71.310  1.00  0.00    -0.487 C  
BRANCH  20  21
HETATM   21  C   UNL     1     -11.576  15.276  72.579  1.00  0.00    -0.498 C  
BRANCH  21  22
HETATM   22  C   UNL     1     -12.682  14.988  73.587  1.00  0.00    -0.512 C  
HETATM   23  O   UNL     1     -12.933  16.147  74.370  1.00  0.00    -0.930 OA 
HETATM   24  H   UNL     1     -13.623  15.968  74.998  1.00  0.00     0.000 HD 
ENDBRANCH  21  22
ENDBRANCH  20  21
ENDBRANCH  19  20
ENDBRANCH  18  19
ENDBRANCH  17  18
ENDBRANCH  16  17
ENDBRANCH  15  16
ENDBRANCH  14  15
ENDBRANCH  13  14
ENDBRANCH  12  13
ENDBRANCH  11  12
ENDBRANCH  10  11
ENDBRANCH   9  10
ENDBRANCH   8   9
ENDBRANCH   7   8
ENDBRANCH   6   7
ENDBRANCH   5   6
ENDBRANCH   4   5
ENDBRANCH   3   4
ENDBRANCH   2   3
TORSDOF 20
ENDMDL
MODEL       64
REMARK 921   NORMALIZED FREE ENERGY PREDICTED BY IDOCK:   -3.92 KCAL/MOL
REMARK 922        TOTAL FREE ENERGY PREDICTED BY IDOCK:  -11.37 KCAL/MOL
REMARK 923 INTER-LIGAND FREE ENERGY PREDICTED BY IDOCK:   -8.48 KCAL/MOL
REMARK 924 INTRA-LIGAND FREE ENERGY PREDICTED BY IDOCK:   -2.89 KCAL/MOL
REMARK 927      BINDING AFFINITY PREDICTED BY RF-SCORE:    0.00 PKD
ROOT
HETATM    1  C   UNL     1      -8.964   7.199  68.593  1.00  0.00    -0.131 C  
HETATM    2  C   UNL     1     -10.444   7.303  68.268  1.00  0.00    -0.239 C  
ENDROOT
BRANCH   2   3
HETATM    3  C   UNL     1     -11.258   6.307  69.089  1.00  0.00    -0.439 C  
BRANCH   3   4
HETATM    4  C   UNL     1     -10.403   5.659  70.174  1.00  0.00    -0.341 C  
BRANCH   4   5
HETATM    5  C   UNL     1     -10.963   5.968  71.559  1.00  0.00    -0.335 C  
BRANCH   5   6
HETATM    6  C   UNL     1     -12.182   6.879  71.461  1.00  0.00    -0.415 C  
BRANCH   6   7
HETATM    7  C   UNL     1     -11.985   8.134  72.303  1.00  0.00    -0.434 C  
BRANCH   7   8
HETATM    8  C   UNL     1     -11.061   9.115  71.595  1.00  0.00    -0.445 C  
BRANCH   8   9
HETATM    9  C   UNL     1     -11.866  10.201  70.895  1.00  0.00    -0.468 C  
BRANCH   9  10
HETATM   10  C   UNL     1     -13.058  10.616  71.746  1.00  0.00    -0.571 C  
BRANCH  10  11
HETATM   11  C   UNL     1     -13.158  12.133  71.821  1.00  0.00    -0.457 C  
BRANCH  11  12
HETATM   12  C   UNL     1     -12.387  12.776  70.677  1.00  0.00    -0.381 C  
BRANCH  12  13
HETATM   13  C   UNL     1     -12.440  14.292  70.785  1.00  0.00    -0.428 C  
BRANCH  13  14
HETATM   14  C   UNL     1     -11.252  14.922  70.069  1.00  0.00    -0.293 C  
BRANCH  14  15
HETATM   15  C   UNL     1     -11.688  15.526  68.742  1.00  0.00    -0.372 C  
BRANCH  15  16
HETATM   16  C   UNL     1     -10.610  15.328  67.684  1.00  0.00    -0.270 C  
BRANCH  16  17
HETATM   17  C   UNL     1     -11.233  14.943  66.347  1.00  0.00    -0.331 C  
BRANCH  17  18
HETATM   18  C   UNL     1     -12.277  13.849  66.536  1.00  0.00    -0.482 C  
BRANCH  18  19
HETATM   19  C   UNL     1     -11.703  12.483  66.175  1.00  0.00    -0.466 C  
BRANCH  19  20
HETATM   20  C   UNL     1     -11.416  11.669  67.432  1.00  0.00    -0.357 C  
BRANCH  20  21
HETATM   21  C   UNL     1      -9.964  11.206  67.464  1.00  0.00    -0.204 C  
BRANCH  21  22
HETATM   22  C   UNL     1      -9.196  11.713  66.250  1.00  0.00    -0.217 C  
HETATM   23  O   UNL     1      -8.200  12.639  66.663  1.00  0.00    -0.402 OA 
HETATM   24  H   UNL     1      -7.721  12.955  65.906  1.00  0.00     0.000 HD 
ENDBRANCH  21  22
ENDBRANCH  20  21
ENDBRANCH  19  20
ENDBRANCH  18  19
ENDBRANCH  17  18
ENDBRANCH  16  17
ENDBRANCH  15  16
ENDBRANCH  14  15
ENDBRANCH  13  14
ENDBRANCH  12  13
ENDBRANCH  11  12
ENDBRANCH  10  11
ENDBRANCH   9  10
ENDBRANCH   8   9
ENDBRANCH   7   8
ENDBRANCH   6   7
ENDBRANCH   5   6
ENDBRANCH   4   5
ENDBRANCH   3   4
ENDBRANCH   2   3
TORSDOF 20
ENDMDL
MODEL       65
REMARK 921   NORMALIZED FREE ENERGY PREDICTED BY IDOCK:   -3.91 KCAL/MOL
REMARK 922        TOTAL FREE ENERGY PREDICTED BY IDOCK:  -11.35 KCAL/MOL
REMARK 923 INTER-LIGAND FREE ENERGY PREDICTED BY IDOCK:   -8.73 KCAL/MOL
REMARK 924 INTRA-LIGAND FREE ENERGY PREDICTED BY IDOCK:   -2.61 KCAL/MOL
REMARK 927      BINDING AFFINITY PREDICTED BY RF-SCORE:    0.00 PKD
ROOT
HETATM    1  C   UNL     1     -11.906  14.505  64.922  1.00  0.00    -0.417 C  
HETATM    2  C   UNL     1     -12.747  13.241  64.873  1.00  0.00    -0.391 C  
ENDROOT
BRANCH   2   3
HETATM    3  C   UNL     1     -12.146  12.218  63.913  1.00  0.00    -0.598 C  
BRANCH   3   4
HETATM    4  C   UNL     1     -10.625  12.180  64.030  1.00  0.00    -0.429 C  
BRANCH   4   5
HETATM    5  C   UNL     1     -10.143  10.767  64.341  1.00  0.00    -0.419 C  
BRANCH   5   6
HETATM    6  C   UNL     1      -9.338  10.741  65.636  1.00  0.00    -0.241 C  
BRANCH   6   7
HETATM    7  C   UNL     1      -9.723  11.912  66.532  1.00  0.00    -0.226 C  
BRANCH   7   8
HETATM    8  C   UNL     1      -8.482  12.552  67.141  1.00  0.00    -0.186 C  
BRANCH   8   9
HETATM    9  C   UNL     1      -8.826  13.894  67.774  1.00  0.00    -0.189 C  
BRANCH   9  10
HETATM   10  C   UNL     1      -8.748  15.008  66.740  1.00  0.00    -0.293 C  
BRANCH  10  11
HETATM   11  C   UNL     1      -9.589  16.201  67.176  1.00  0.00    -0.235 C  
BRANCH  11  12
HETATM   12  C   UNL     1      -9.421  16.454  68.667  1.00  0.00    -0.239 C  
BRANCH  12  13
HETATM   13  C   UNL     1     -10.755  16.819  69.299  1.00  0.00    -0.324 C  
BRANCH  13  14
HETATM   14  C   UNL     1     -11.766  15.697  69.102  1.00  0.00    -0.402 C  
BRANCH  14  15
HETATM   15  C   UNL     1     -12.479  15.386  70.410  1.00  0.00    -0.447 C  
BRANCH  15  16
HETATM   16  C   UNL     1     -12.452  13.890  70.693  1.00  0.00    -0.436 C  
BRANCH  16  17
HETATM   17  C   UNL     1     -11.955  13.121  69.474  1.00  0.00    -0.354 C  
BRANCH  17  18
HETATM   18  C   UNL     1     -11.809  11.638  69.797  1.00  0.00    -0.428 C  
BRANCH  18  19
HETATM   19  C   UNL     1     -12.630  11.268  71.027  1.00  0.00    -0.495 C  
BRANCH  19  20
HETATM   20  C   UNL     1     -12.234   9.889  71.545  1.00  0.00    -0.505 C  
BRANCH  20  21
HETATM   21  C   UNL     1     -13.383   9.242  72.310  1.00  0.00    -0.547 C  
BRANCH  21  22
HETATM   22  C   UNL     1     -13.847   7.961  71.630  1.00  0.00    -0.379 C  
HETATM   23  O   UNL     1     -12.899   7.567  70.647  1.00  0.00    -0.555 OA 
HETATM   24  H   UNL     1     -13.189   6.768  70.222  1.00  0.00     0.000 HD 
ENDBRANCH  21  22
ENDBRANCH  20  21
ENDBRANCH  19  20
ENDBRANCH  18  19
ENDBRANCH  17  18
ENDBRANCH  16  17
ENDBRANCH  15  16
ENDBRANCH  14  15
ENDBRANCH  13  14
ENDBRANCH  12  13
ENDBRANCH  11  12
ENDBRANCH  10  11
ENDBRANCH   9  10
ENDBRANCH   8   9
ENDBRANCH   7   8
ENDBRANCH   6   7
ENDBRANCH   5   6
ENDBRANCH   4   5
ENDBRANCH   3   4
ENDBRANCH   2   3
TORSDOF 20
ENDMDL
MODEL       66
REMARK 921   NORMALIZED FREE ENERGY PREDICTED BY IDOCK:   -3.91 KCAL/MOL
REMARK 922        TOTAL FREE ENERGY PREDICTED BY IDOCK:  -11.34 KCAL/MOL
REMARK 923 INTER-LIGAND FREE ENERGY PREDICTED BY IDOCK:   -8.32 KCAL/MOL
REMARK 924 INTRA-LIGAND FREE ENERGY PREDICTED BY IDOCK:   -3.02 KCAL/MOL
REMARK 927      BINDING AFFINITY PREDICTED BY RF-SCORE:    0.00 PKD
ROOT
HETATM    1  C   UNL     1     -10.126   5.433  70.141  1.00  0.00    -0.322 C  
HETATM    2  C   UNL     1     -11.402   6.174  69.781  1.00  0.00    -0.452 C  
ENDROOT
BRANCH   2   3
HETATM    3  C   UNL     1     -11.848   7.087  70.920  1.00  0.00    -0.401 C  
BRANCH   3   4
HETATM    4  C   UNL     1     -10.667   7.861  71.499  1.00  0.00    -0.267 C  
BRANCH   4   5
HETATM    5  C   UNL     1     -10.883   9.364  71.353  1.00  0.00    -0.430 C  
BRANCH   5   6
HETATM    6  C   UNL     1     -12.346   9.727  71.587  1.00  0.00    -0.495 C  
BRANCH   6   7
HETATM    7  C   UNL     1     -12.661  11.097  70.999  1.00  0.00    -0.503 C  
BRANCH   7   8
HETATM    8  C   UNL     1     -12.226  11.168  69.541  1.00  0.00    -0.347 C  
BRANCH   8   9
HETATM    9  C   UNL     1     -11.588  12.517  69.236  1.00  0.00    -0.378 C  
BRANCH   9  10
HETATM   10  C   UNL     1     -12.019  13.014  67.863  1.00  0.00    -0.338 C  
BRANCH  10  11
HETATM   11  C   UNL     1     -11.208  14.238  67.460  1.00  0.00    -0.322 C  
BRANCH  11  12
HETATM   12  C   UNL     1     -11.330  14.488  65.963  1.00  0.00    -0.341 C  
BRANCH  12  13
HETATM   13  C   UNL     1     -12.488  13.692  65.383  1.00  0.00    -0.537 C  
BRANCH  13  14
HETATM   14  C   UNL     1     -12.249  13.397  63.908  1.00  0.00    -0.478 C  
BRANCH  14  15
HETATM   15  C   UNL     1     -12.083  11.902  63.683  1.00  0.00    -0.580 C  
BRANCH  15  16
HETATM   16  C   UNL     1     -10.627  11.562  63.390  1.00  0.00    -0.460 C  
BRANCH  16  17
HETATM   17  C   UNL     1     -10.071  10.619  64.450  1.00  0.00    -0.418 C  
BRANCH  17  18
HETATM   18  C   UNL     1      -9.296  11.396  65.507  1.00  0.00    -0.228 C  
BRANCH  18  19
HETATM   19  C   UNL     1      -9.423  10.730  66.873  1.00  0.00    -0.192 C  
BRANCH  19  20
HETATM   20  C   UNL     1     -10.542   9.693  66.865  1.00  0.00    -0.241 C  
BRANCH  20  21
HETATM   21  C   UNL     1     -10.049   8.353  67.399  1.00  0.00    -0.301 C  
BRANCH  21  22
HETATM   22  C   UNL     1      -9.160   7.646  66.385  1.00  0.00    -0.174 C  
HETATM   23  O   UNL     1      -8.839   6.343  66.852  1.00  0.00    -0.115 OA 
HETATM   24  H   UNL     1      -8.284   5.902  66.219  1.00  0.00     0.000 HD 
ENDBRANCH  21  22
ENDBRANCH  20  21
ENDBRANCH  19  20
ENDBRANCH  18  19
ENDBRANCH  17  18
ENDBRANCH  16  17
ENDBRANCH  15  16
ENDBRANCH  14  15
ENDBRANCH  13  14
ENDBRANCH  12  13
ENDBRANCH  11  12
ENDBRANCH  10  11
ENDBRANCH   9  10
ENDBRANCH   8   9
ENDBRANCH   7   8
ENDBRANCH   6   7
ENDBRANCH   5   6
ENDBRANCH   4   5
ENDBRANCH   3   4
ENDBRANCH   2   3
TORSDOF 20
ENDMDL
MODEL       67
REMARK 921   NORMALIZED FREE ENERGY PREDICTED BY IDOCK:   -3.90 KCAL/MOL
REMARK 922        TOTAL FREE ENERGY PREDICTED BY IDOCK:  -11.33 KCAL/MOL
REMARK 923 INTER-LIGAND FREE ENERGY PREDICTED BY IDOCK:   -8.54 KCAL/MOL
REMARK 924 INTRA-LIGAND FREE ENERGY PREDICTED BY IDOCK:   -2.79 KCAL/MOL
REMARK 927      BINDING AFFINITY PREDICTED BY RF-SCORE:    0.00 PKD
ROOT
HETATM    1  C   UNL     1     -13.299   9.716  71.566  1.00  0.00    -0.468 C  
HETATM    2  C   UNL     1     -11.911  10.139  71.117  1.00  0.00    -0.472 C  
ENDROOT
BRANCH   2   3
HETATM    3  C   UNL     1     -11.986  11.221  70.045  1.00  0.00    -0.447 C  
BRANCH   3   4
HETATM    4  C   UNL     1     -10.852  11.075  69.034  1.00  0.00    -0.274 C  
BRANCH   4   5
HETATM    5  C   UNL     1     -10.671  12.362  68.236  1.00  0.00    -0.250 C  
BRANCH   5   6
HETATM    6  C   UNL     1     -11.647  12.417  67.065  1.00  0.00    -0.434 C  
BRANCH   6   7
HETATM    7  C   UNL     1     -12.185  13.830  66.879  1.00  0.00    -0.408 C  
BRANCH   7   8
HETATM    8  C   UNL     1     -12.439  14.118  65.405  1.00  0.00    -0.488 C  
BRANCH   8   9
HETATM    9  C   UNL     1     -11.258  14.858  64.791  1.00  0.00    -0.393 C  
BRANCH   9  10
HETATM   10  C   UNL     1     -10.595  15.757  65.825  1.00  0.00    -0.369 C  
BRANCH  10  11
HETATM   11  C   UNL     1     -10.628  17.209  65.369  1.00  0.00    -0.116 C  
BRANCH  11  12
HETATM   12  C   UNL     1     -10.521  18.146  66.563  1.00  0.00    -0.356 C  
BRANCH  12  13
HETATM   13  C   UNL     1      -9.250  18.976  66.478  1.00  0.00    -0.357 C  
BRANCH  13  14
HETATM   14  C   UNL     1      -8.039  18.145  66.882  1.00  0.00    -0.254 C  
BRANCH  14  15
HETATM   15  C   UNL     1      -8.203  17.618  68.300  1.00  0.00    -0.276 C  
BRANCH  15  16
HETATM   16  C   UNL     1      -7.792  16.154  68.378  1.00  0.00    -0.160 C  
BRANCH  16  17
HETATM   17  C   UNL     1      -8.794  15.358  69.207  1.00  0.00    -0.258 C  
BRANCH  17  18
HETATM   18  C   UNL     1     -10.073  16.159  69.420  1.00  0.00    -0.256 C  
BRANCH  18  19
HETATM   19  C   UNL     1     -10.959  15.498  70.469  1.00  0.00    -0.368 C  
BRANCH  19  20
HETATM   20  C   UNL     1     -12.425  15.562  70.056  1.00  0.00    -0.293 C  
BRANCH  20  21
HETATM   21  C   UNL     1     -13.342  15.378  71.259  1.00  0.00    -0.598 C  
BRANCH  21  22
HETATM   22  C   UNL     1     -12.665  15.838  72.544  1.00  0.00    -0.451 C  
HETATM   23  O   UNL     1     -13.641  16.018  73.563  1.00  0.00    -0.800 OA 
HETATM   24  H   UNL     1     -13.219  16.305  74.364  1.00  0.00     0.000 HD 
ENDBRANCH  21  22
ENDBRANCH  20  21
ENDBRANCH  19  20
ENDBRANCH  18  19
ENDBRANCH  17  18
ENDBRANCH  16  17
ENDBRANCH  15  16
ENDBRANCH  14  15
ENDBRANCH  13  14
ENDBRANCH  12  13
ENDBRANCH  11  12
ENDBRANCH  10  11
ENDBRANCH   9  10
ENDBRANCH   8   9
ENDBRANCH   7   8
ENDBRANCH   6   7
ENDBRANCH   5   6
ENDBRANCH   4   5
ENDBRANCH   3   4
ENDBRANCH   2   3
TORSDOF 20
ENDMDL
MODEL       68
REMARK 921   NORMALIZED FREE ENERGY PREDICTED BY IDOCK:   -3.90 KCAL/MOL
REMARK 922        TOTAL FREE ENERGY PREDICTED BY IDOCK:  -11.33 KCAL/MOL
REMARK 923 INTER-LIGAND FREE ENERGY PREDICTED BY IDOCK:   -9.30 KCAL/MOL
REMARK 924 INTRA-LIGAND FREE ENERGY PREDICTED BY IDOCK:   -2.02 KCAL/MOL
REMARK 927      BINDING AFFINITY PREDICTED BY RF-SCORE:    0.00 PKD
ROOT
HETATM    1  C   UNL     1     -10.387  11.281  65.144  1.00  0.00    -0.353 C  
HETATM    2  C   UNL     1     -10.746  11.496  63.683  1.00  0.00    -0.491 C  
ENDROOT
BRANCH   2   3
HETATM    3  C   UNL     1     -12.136  12.109  63.544  1.00  0.00    -0.649 C  
BRANCH   3   4
HETATM    4  C   UNL     1     -12.447  13.040  64.713  1.00  0.00    -0.485 C  
BRANCH   4   5
HETATM    5  C   UNL     1     -12.203  14.495  64.324  1.00  0.00    -0.441 C  
BRANCH   5   6
HETATM    6  C   UNL     1     -10.900  15.006  64.929  1.00  0.00    -0.430 C  
BRANCH   6   7
HETATM    7  C   UNL     1     -11.107  15.425  66.379  1.00  0.00    -0.230 C  
BRANCH   7   8
HETATM    8  C   UNL     1      -9.768  15.673  67.062  1.00  0.00    -0.234 C  
BRANCH   8   9
HETATM    9  C   UNL     1      -9.450  14.552  68.042  1.00  0.00    -0.209 C  
BRANCH   9  10
HETATM   10  C   UNL     1     -10.558  14.418  69.078  1.00  0.00    -0.245 C  
BRANCH  10  11
HETATM   11  C   UNL     1     -10.431  15.502  70.139  1.00  0.00    -0.317 C  
BRANCH  11  12
HETATM   12  C   UNL     1     -11.804  15.896  70.665  1.00  0.00    -0.398 C  
BRANCH  12  13
HETATM   13  C   UNL     1     -11.883  15.672  72.167  1.00  0.00    -0.567 C  
BRANCH  13  14
HETATM   14  C   UNL     1     -13.315  15.369  72.589  1.00  0.00    -0.602 C  
BRANCH  14  15
HETATM   15  C   UNL     1     -13.896  14.250  71.738  1.00  0.00    -0.514 C  
BRANCH  15  16
HETATM   16  C   UNL     1     -13.246  12.918  72.087  1.00  0.00    -0.552 C  
BRANCH  16  17
HETATM   17  C   UNL     1     -12.627  12.280  70.849  1.00  0.00    -0.334 C  
BRANCH  17  18
HETATM   18  C   UNL     1     -12.627  10.760  70.970  1.00  0.00    -0.520 C  
BRANCH  18  19
HETATM   19  C   UNL     1     -11.239  10.194  70.689  1.00  0.00    -0.418 C  
BRANCH  19  20
HETATM   20  C   UNL     1     -11.029   9.999  69.191  1.00  0.00    -0.256 C  
BRANCH  20  21
HETATM   21  C   UNL     1     -10.459   8.617  68.895  1.00  0.00    -0.211 C  
BRANCH  21  22
HETATM   22  C   UNL     1     -10.524   8.300  67.407  1.00  0.00    -0.283 C  
HETATM   23  O   UNL     1     -11.294   7.123  67.199  1.00  0.00    -0.565 OA 
HETATM   24  H   UNL     1     -11.335   6.925  66.271  1.00  0.00     0.000 HD 
ENDBRANCH  21  22
ENDBRANCH  20  21
ENDBRANCH  19  20
ENDBRANCH  18  19
ENDBRANCH  17  18
ENDBRANCH  16  17
ENDBRANCH  15  16
ENDBRANCH  14  15
ENDBRANCH  13  14
ENDBRANCH  12  13
ENDBRANCH  11  12
ENDBRANCH  10  11
ENDBRANCH   9  10
ENDBRANCH   8   9
ENDBRANCH   7   8
ENDBRANCH   6   7
ENDBRANCH   5   6
ENDBRANCH   4   5
ENDBRANCH   3   4
ENDBRANCH   2   3
TORSDOF 20
ENDMDL
MODEL       69
REMARK 921   NORMALIZED FREE ENERGY PREDICTED BY IDOCK:   -3.90 KCAL/MOL
REMARK 922        TOTAL FREE ENERGY PREDICTED BY IDOCK:  -11.32 KCAL/MOL
REMARK 923 INTER-LIGAND FREE ENERGY PREDICTED BY IDOCK:   -8.08 KCAL/MOL
REMARK 924 INTRA-LIGAND FREE ENERGY PREDICTED BY IDOCK:   -3.24 KCAL/MOL
REMARK 927      BINDING AFFINITY PREDICTED BY RF-SCORE:    0.00 PKD
ROOT
HETATM    1  C   UNL     1     -14.086   8.385  71.741  1.00  0.00    -0.509 C  
HETATM    2  C   UNL     1     -13.571   9.760  72.127  1.00  0.00    -0.432 C  
ENDROOT
BRANCH   2   3
HETATM    3  C   UNL     1     -12.355  10.147  71.291  1.00  0.00    -0.501 C  
BRANCH   3   4
HETATM    4  C   UNL     1     -11.445   8.945  71.055  1.00  0.00    -0.351 C  
BRANCH   4   5
HETATM    5  C   UNL     1     -10.008   9.269  71.451  1.00  0.00    -0.323 C  
BRANCH   5   6
HETATM    6  C   UNL     1      -9.558   8.401  72.621  1.00  0.00    -0.337 C  
BRANCH   6   7
HETATM    7  C   UNL     1     -10.712   7.546  73.131  1.00  0.00    -0.452 C  
BRANCH   7   8
HETATM    8  C   UNL     1     -10.313   6.077  73.173  1.00  0.00    -0.230 C  
BRANCH   8   9
HETATM    9  C   UNL     1     -11.040   5.293  72.088  1.00  0.00    -0.187 C  
BRANCH   9  10
HETATM   10  C   UNL     1     -10.224   5.275  70.803  1.00  0.00    -0.317 C  
BRANCH  10  11
HETATM   11  C   UNL     1     -11.021   5.876  69.655  1.00  0.00    -0.447 C  
BRANCH  11  12
HETATM   12  C   UNL     1     -10.087   6.431  68.589  1.00  0.00    -0.179 C  
BRANCH  12  13
HETATM   13  C   UNL     1      -8.685   6.609  69.151  1.00  0.00    -0.130 C  
BRANCH  13  14
HETATM   14  C   UNL     1      -8.079   7.921  68.670  1.00  0.00    -0.126 C  
BRANCH  14  15
HETATM   15  C   UNL     1      -9.120   8.754  67.937  1.00  0.00    -0.145 C  
BRANCH  15  16
HETATM   16  C   UNL     1      -8.737  10.228  67.956  1.00  0.00    -0.122 C  
BRANCH  16  17
HETATM   17  C   UNL     1      -9.920  11.086  68.388  1.00  0.00    -0.194 C  
BRANCH  17  18
HETATM   18  C   UNL     1     -11.138  10.798  67.519  1.00  0.00    -0.374 C  
BRANCH  18  19
HETATM   19  C   UNL     1     -11.331  11.894  66.476  1.00  0.00    -0.403 C  
BRANCH  19  20
HETATM   20  C   UNL     1     -10.532  11.585  65.215  1.00  0.00    -0.336 C  
BRANCH  20  21
HETATM   21  C   UNL     1     -10.649  12.718  64.202  1.00  0.00    -0.441 C  
BRANCH  21  22
HETATM   22  C   UNL     1     -11.950  13.490  64.385  1.00  0.00    -0.422 C  
HETATM   23  O   UNL     1     -12.412  13.959  63.125  1.00  0.00    -1.121 OA 
HETATM   24  H   UNL     1     -13.223  14.440  63.239  1.00  0.00     0.000 HD 
ENDBRANCH  21  22
ENDBRANCH  20  21
ENDBRANCH  19  20
ENDBRANCH  18  19
ENDBRANCH  17  18
ENDBRANCH  16  17
ENDBRANCH  15  16
ENDBRANCH  14  15
ENDBRANCH  13  14
ENDBRANCH  12  13
ENDBRANCH  11  12
ENDBRANCH  10  11
ENDBRANCH   9  10
ENDBRANCH   8   9
ENDBRANCH   7   8
ENDBRANCH   6   7
ENDBRANCH   5   6
ENDBRANCH   4   5
ENDBRANCH   3   4
ENDBRANCH   2   3
TORSDOF 20
ENDMDL
MODEL       70
REMARK 921   NORMALIZED FREE ENERGY PREDICTED BY IDOCK:   -3.90 KCAL/MOL
REMARK 922        TOTAL FREE ENERGY PREDICTED BY IDOCK:  -11.32 KCAL/MOL
REMARK 923 INTER-LIGAND FREE ENERGY PREDICTED BY IDOCK:   -9.32 KCAL/MOL
REMARK 924 INTRA-LIGAND FREE ENERGY PREDICTED BY IDOCK:   -2.00 KCAL/MOL
REMARK 927      BINDING AFFINITY PREDICTED BY RF-SCORE:    0.00 PKD
ROOT
HETATM    1  C   UNL     1     -10.316   9.731  66.234  1.00  0.00    -0.235 C  
HETATM    2  C   UNL     1      -9.192  10.129  65.293  1.00  0.00    -0.257 C  
ENDROOT
BRANCH   2   3
HETATM    3  C   UNL     1      -9.732  10.877  64.078  1.00  0.00    -0.351 C  
BRANCH   3   4
HETATM    4  C   UNL     1     -11.158  11.364  64.320  1.00  0.00    -0.356 C  
BRANCH   4   5
HETATM    5  C   UNL     1     -11.508  12.505  63.371  1.00  0.00    -0.523 C  
BRANCH   5   6
HETATM    6  C   UNL     1     -12.112  13.680  64.133  1.00  0.00    -0.484 C  
BRANCH   6   7
HETATM    7  C   UNL     1     -12.599  13.236  65.507  1.00  0.00    -0.505 C  
BRANCH   7   8
HETATM    8  C   UNL     1     -11.923  14.049  66.604  1.00  0.00    -0.473 C  
BRANCH   8   9
HETATM    9  C   UNL     1     -11.209  13.131  67.587  1.00  0.00    -0.313 C  
BRANCH   9  10
HETATM   10  C   UNL     1     -11.938  13.108  68.923  1.00  0.00    -0.317 C  
BRANCH  10  11
HETATM   11  C   UNL     1     -11.993  11.690  69.476  1.00  0.00    -0.383 C  
BRANCH  11  12
HETATM   12  C   UNL     1     -12.586  11.688  70.878  1.00  0.00    -0.409 C  
BRANCH  12  13
HETATM   13  C   UNL     1     -12.594  10.279  71.450  1.00  0.00    -0.539 C  
BRANCH  13  14
HETATM   14  C   UNL     1     -11.291   9.561  71.124  1.00  0.00    -0.440 C  
BRANCH  14  15
HETATM   15  C   UNL     1     -11.264   8.184  71.769  1.00  0.00    -0.329 C  
BRANCH  15  16
HETATM   16  C   UNL     1     -11.861   7.142  70.832  1.00  0.00    -0.379 C  
BRANCH  16  17
HETATM   17  C   UNL     1     -11.010   5.877  70.823  1.00  0.00    -0.343 C  
BRANCH  17  18
HETATM   18  C   UNL     1     -10.423   5.635  69.437  1.00  0.00    -0.367 C  
BRANCH  18  19
HETATM   19  C   UNL     1     -10.876   6.714  68.460  1.00  0.00    -0.319 C  
BRANCH  19  20
HETATM   20  C   UNL     1     -10.964   6.158  67.043  1.00  0.00    -0.414 C  
BRANCH  20  21
HETATM   21  C   UNL     1     -10.117   4.899  66.897  1.00  0.00    -0.257 C  
BRANCH  21  22
HETATM   22  C   UNL     1     -10.167   4.361  65.473  1.00  0.00    -0.241 C  
HETATM   23  O   UNL     1     -11.495   4.451  64.971  1.00  0.00    -1.090 OA 
HETATM   24  H   UNL     1     -11.526   4.115  64.083  1.00  0.00     0.000 HD 
ENDBRANCH  21  22
ENDBRANCH  20  21
ENDBRANCH  19  20
ENDBRANCH  18  19
ENDBRANCH  17  18
ENDBRANCH  16  17
ENDBRANCH  15  16
ENDBRANCH  14  15
ENDBRANCH  13  14
ENDBRANCH  12  13
ENDBRANCH  11  12
ENDBRANCH  10  11
ENDBRANCH   9  10
ENDBRANCH   8   9
ENDBRANCH   7   8
ENDBRANCH   6   7
ENDBRANCH   5   6
ENDBRANCH   4   5
ENDBRANCH   3   4
ENDBRANCH   2   3
TORSDOF 20
ENDMDL
MODEL       71
REMARK 921   NORMALIZED FREE ENERGY PREDICTED BY IDOCK:   -3.90 KCAL/MOL
REMARK 922        TOTAL FREE ENERGY PREDICTED BY IDOCK:  -11.32 KCAL/MOL
REMARK 923 INTER-LIGAND FREE ENERGY PREDICTED BY IDOCK:   -8.07 KCAL/MOL
REMARK 924 INTRA-LIGAND FREE ENERGY PREDICTED BY IDOCK:   -3.24 KCAL/MOL
REMARK 927      BINDING AFFINITY PREDICTED BY RF-SCORE:    0.00 PKD
ROOT
HETATM    1  C   UNL     1      -7.591   5.589  69.939  1.00  0.00    -0.074 C  
HETATM    2  C   UNL     1      -8.699   5.297  70.935  1.00  0.00    -0.141 C  
ENDROOT
BRANCH   2   3
HETATM    3  C   UNL     1      -9.981   4.873  70.224  1.00  0.00    -0.321 C  
BRANCH   3   4
HETATM    4  C   UNL     1      -9.957   5.288  68.755  1.00  0.00    -0.243 C  
BRANCH   4   5
HETATM    5  C   UNL     1     -11.148   6.185  68.428  1.00  0.00    -0.343 C  
BRANCH   5   6
HETATM    6  C   UNL     1     -10.973   6.844  67.064  1.00  0.00    -0.404 C  
BRANCH   6   7
HETATM    7  C   UNL     1     -10.440   8.263  67.217  1.00  0.00    -0.373 C  
BRANCH   7   8
HETATM    8  C   UNL     1      -8.942   8.306  66.943  1.00  0.00    -0.169 C  
BRANCH   8   9
HETATM    9  C   UNL     1      -8.177   8.677  68.206  1.00  0.00    -0.122 C  
BRANCH   9  10
HETATM   10  C   UNL     1      -9.099   9.352  69.212  1.00  0.00    -0.152 C  
BRANCH  10  11
HETATM   11  C   UNL     1      -8.525   9.244  70.618  1.00  0.00    -0.258 C  
BRANCH  11  12
HETATM   12  C   UNL     1      -9.627   8.934  71.621  1.00  0.00    -0.363 C  
BRANCH  12  13
HETATM   13  C   UNL     1     -10.972   8.829  70.919  1.00  0.00    -0.315 C  
BRANCH  13  14
HETATM   14  C   UNL     1     -12.065   9.485  71.752  1.00  0.00    -0.459 C  
BRANCH  14  15
HETATM   15  C   UNL     1     -12.751  10.588  70.960  1.00  0.00    -0.504 C  
BRANCH  15  16
HETATM   16  C   UNL     1     -12.211  10.640  69.537  1.00  0.00    -0.230 C  
BRANCH  16  17
HETATM   17  C   UNL     1     -11.820  12.064  69.161  1.00  0.00    -0.369 C  
BRANCH  17  18
HETATM   18  C   UNL     1     -11.779  12.229  67.647  1.00  0.00    -0.403 C  
BRANCH  18  19
HETATM   19  C   UNL     1     -12.029  13.681  67.252  1.00  0.00    -0.420 C  
BRANCH  19  20
HETATM   20  C   UNL     1     -12.475  13.775  65.797  1.00  0.00    -0.527 C  
BRANCH  20  21
HETATM   21  C   UNL     1     -12.137  12.498  65.037  1.00  0.00    -0.504 C  
BRANCH  21  22
HETATM   22  C   UNL     1     -12.209  12.715  63.531  1.00  0.00    -0.547 C  
HETATM   23  O   UNL     1     -11.684  11.579  62.856  1.00  0.00    -0.834 OA 
HETATM   24  H   UNL     1     -11.729  11.715  61.917  1.00  0.00     0.000 HD 
ENDBRANCH  21  22
ENDBRANCH  20  21
ENDBRANCH  19  20
ENDBRANCH  18  19
ENDBRANCH  17  18
ENDBRANCH  16  17
ENDBRANCH  15  16
ENDBRANCH  14  15
ENDBRANCH  13  14
ENDBRANCH  12  13
ENDBRANCH  11  12
ENDBRANCH  10  11
ENDBRANCH   9  10
ENDBRANCH   8   9
ENDBRANCH   7   8
ENDBRANCH   6   7
ENDBRANCH   5   6
ENDBRANCH   4   5
ENDBRANCH   3   4
ENDBRANCH   2   3
TORSDOF 20
ENDMDL
MODEL       72
REMARK 921   NORMALIZED FREE ENERGY PREDICTED BY IDOCK:   -3.89 KCAL/MOL
REMARK 922        TOTAL FREE ENERGY PREDICTED BY IDOCK:  -11.31 KCAL/MOL
REMARK 923 INTER-LIGAND FREE ENERGY PREDICTED BY IDOCK:   -8.32 KCAL/MOL
REMARK 924 INTRA-LIGAND FREE ENERGY PREDICTED BY IDOCK:   -2.99 KCAL/MOL
REMARK 927      BINDING AFFINITY PREDICTED BY RF-SCORE:    0.00 PKD
ROOT
HETATM    1  C   UNL     1     -12.633  12.064  63.538  1.00  0.00    -0.625 C  
HETATM    2  C   UNL     1     -12.035  13.324  64.141  1.00  0.00    -0.505 C  
ENDROOT
BRANCH   2   3
HETATM    3  C   UNL     1     -12.651  13.627  65.503  1.00  0.00    -0.541 C  
BRANCH   3   4
HETATM    4  C   UNL     1     -11.840  12.989  66.628  1.00  0.00    -0.455 C  
BRANCH   4   5
HETATM    5  C   UNL     1     -10.345  13.191  66.396  1.00  0.00    -0.289 C  
BRANCH   5   6
HETATM    6  C   UNL     1      -9.603  13.321  67.722  1.00  0.00    -0.214 C  
BRANCH   6   7
HETATM    7  C   UNL     1      -8.473  14.337  67.610  1.00  0.00    -0.185 C  
BRANCH   7   8
HETATM    8  C   UNL     1      -9.031  15.736  67.387  1.00  0.00    -0.204 C  
BRANCH   8   9
HETATM    9  C   UNL     1      -9.644  16.280  68.671  1.00  0.00    -0.237 C  
BRANCH   9  10
HETATM   10  C   UNL     1     -11.116  16.605  68.465  1.00  0.00    -0.301 C  
BRANCH  10  11
HETATM   11  C   UNL     1     -11.989  15.673  69.294  1.00  0.00    -0.338 C  
BRANCH  11  12
HETATM   12  C   UNL     1     -11.511  15.640  70.739  1.00  0.00    -0.409 C  
BRANCH  12  13
HETATM   13  C   UNL     1     -12.373  14.696  71.563  1.00  0.00    -0.415 C  
BRANCH  13  14
HETATM   14  C   UNL     1     -12.560  13.371  70.837  1.00  0.00    -0.406 C  
BRANCH  14  15
HETATM   15  C   UNL     1     -13.102  12.313  71.788  1.00  0.00    -0.449 C  
BRANCH  15  16
HETATM   16  C   UNL     1     -12.784  10.916  71.271  1.00  0.00    -0.542 C  
BRANCH  16  17
HETATM   17  C   UNL     1     -11.850  10.986  70.069  1.00  0.00    -0.435 C  
BRANCH  17  18
HETATM   18  C   UNL     1     -10.683  10.020  70.239  1.00  0.00    -0.367 C  
BRANCH  18  19
HETATM   19  C   UNL     1     -10.635   9.020  69.090  1.00  0.00    -0.219 C  
BRANCH  19  20
HETATM   20  C   UNL     1     -10.716   9.737  67.746  1.00  0.00    -0.329 C  
BRANCH  20  21
HETATM   21  C   UNL     1     -10.066   8.909  66.644  1.00  0.00    -0.357 C  
BRANCH  21  22
HETATM   22  C   UNL     1      -9.156   9.764  65.773  1.00  0.00    -0.177 C  
HETATM   23  O   UNL     1      -9.847  10.157  64.595  1.00  0.00    -0.324 OA 
HETATM   24  H   UNL     1      -9.279  10.691  64.052  1.00  0.00     0.000 HD 
ENDBRANCH  21  22
ENDBRANCH  20  21
ENDBRANCH  19  20
ENDBRANCH  18  19
ENDBRANCH  17  18
ENDBRANCH  16  17
ENDBRANCH  15  16
ENDBRANCH  14  15
ENDBRANCH  13  14
ENDBRANCH  12  13
ENDBRANCH  11  12
ENDBRANCH  10  11
ENDBRANCH   9  10
ENDBRANCH   8   9
ENDBRANCH   7   8
ENDBRANCH   6   7
ENDBRANCH   5   6
ENDBRANCH   4   5
ENDBRANCH   3   4
ENDBRANCH   2   3
TORSDOF 20
ENDMDL
MODEL       73
REMARK 921   NORMALIZED FREE ENERGY PREDICTED BY IDOCK:   -3.89 KCAL/MOL
REMARK 922        TOTAL FREE ENERGY PREDICTED BY IDOCK:  -11.31 KCAL/MOL
REMARK 923 INTER-LIGAND FREE ENERGY PREDICTED BY IDOCK:   -8.97 KCAL/MOL
REMARK 924 INTRA-LIGAND FREE ENERGY PREDICTED BY IDOCK:   -2.34 KCAL/MOL
REMARK 927      BINDING AFFINITY PREDICTED BY RF-SCORE:    0.00 PKD
ROOT
HETATM    1  C   UNL     1      -6.975  20.953  67.552  1.00  0.00    -0.406 C  
HETATM    2  C   UNL     1      -7.209  19.946  68.665  1.00  0.00    -0.323 C  
ENDROOT
BRANCH   2   3
HETATM    3  C   UNL     1      -8.265  18.920  68.264  1.00  0.00    -0.362 C  
BRANCH   3   4
HETATM    4  C   UNL     1      -9.673  19.448  68.524  1.00  0.00    -0.497 C  
BRANCH   4   5
HETATM    5  C   UNL     1     -10.543  19.302  67.280  1.00  0.00    -0.590 C  
BRANCH   5   6
HETATM    6  C   UNL     1      -9.866  18.409  66.245  1.00  0.00    -0.338 C  
BRANCH   6   7
HETATM    7  C   UNL     1     -10.699  17.161  65.983  1.00  0.00    -0.113 C  
BRANCH   7   8
HETATM    8  C   UNL     1     -10.604  16.196  67.157  1.00  0.00    -0.294 C  
BRANCH   8   9
HETATM    9  C   UNL     1     -10.667  14.754  66.672  1.00  0.00    -0.309 C  
BRANCH   9  10
HETATM   10  C   UNL     1     -12.112  14.317  66.479  1.00  0.00    -0.454 C  
BRANCH  10  11
HETATM   11  C   UNL     1     -12.380  13.988  65.017  1.00  0.00    -0.458 C  
BRANCH  11  12
HETATM   12  C   UNL     1     -12.404  12.481  64.805  1.00  0.00    -0.544 C  
BRANCH  12  13
HETATM   13  C   UNL     1     -11.164  12.030  64.048  1.00  0.00    -0.468 C  
BRANCH  13  14
HETATM   14  C   UNL     1     -10.047  11.668  65.018  1.00  0.00    -0.305 C  
BRANCH  14  15
HETATM   15  C   UNL     1     -10.350  10.348  65.712  1.00  0.00    -0.257 C  
BRANCH  15  16
HETATM   16  C   UNL     1     -10.057  10.447  67.203  1.00  0.00    -0.254 C  
BRANCH  16  17
HETATM   17  C   UNL     1     -11.281  10.952  67.959  1.00  0.00    -0.378 C  
BRANCH  17  18
HETATM   18  C   UNL     1     -10.888  12.037  68.955  1.00  0.00    -0.252 C  
BRANCH  18  19
HETATM   19  C   UNL     1     -12.032  12.328  69.920  1.00  0.00    -0.377 C  
BRANCH  19  20
HETATM   20  C   UNL     1     -11.983  13.776  70.394  1.00  0.00    -0.385 C  
BRANCH  20  21
HETATM   21  C   UNL     1     -12.859  13.978  71.624  1.00  0.00    -0.433 C  
BRANCH  21  22
HETATM   22  C   UNL     1     -13.614  15.300  71.554  1.00  0.00    -0.504 C  
HETATM   23  O   UNL     1     -13.135  16.070  70.460  1.00  0.00    -0.669 OA 
HETATM   24  H   UNL     1     -13.606  16.894  70.416  1.00  0.00     0.000 HD 
ENDBRANCH  21  22
ENDBRANCH  20  21
ENDBRANCH  19  20
ENDBRANCH  18  19
ENDBRANCH  17  18
ENDBRANCH  16  17
ENDBRANCH  15  16
ENDBRANCH  14  15
ENDBRANCH  13  14
ENDBRANCH  12  13
ENDBRANCH  11  12
ENDBRANCH  10  11
ENDBRANCH   9  10
ENDBRANCH   8   9
ENDBRANCH   7   8
ENDBRANCH   6   7
ENDBRANCH   5   6
ENDBRANCH   4   5
ENDBRANCH   3   4
ENDBRANCH   2   3
TORSDOF 20
ENDMDL
MODEL       74
REMARK 921   NORMALIZED FREE ENERGY PREDICTED BY IDOCK:   -3.89 KCAL/MOL
REMARK 922        TOTAL FREE ENERGY PREDICTED BY IDOCK:  -11.30 KCAL/MOL
REMARK 923 INTER-LIGAND FREE ENERGY PREDICTED BY IDOCK:   -8.92 KCAL/MOL
REMARK 924 INTRA-LIGAND FREE ENERGY PREDICTED BY IDOCK:   -2.38 KCAL/MOL
REMARK 927      BINDING AFFINITY PREDICTED BY RF-SCORE:    0.00 PKD
ROOT
HETATM    1  C   UNL     1     -11.966  14.919  64.490  1.00  0.00    -0.420 C  
HETATM    2  C   UNL     1     -12.717  13.943  65.380  1.00  0.00    -0.525 C  
ENDROOT
BRANCH   2   3
HETATM    3  C   UNL     1     -12.369  12.500  65.029  1.00  0.00    -0.522 C  
BRANCH   3   4
HETATM    4  C   UNL     1     -11.109  12.044  65.760  1.00  0.00    -0.371 C  
BRANCH   4   5
HETATM    5  C   UNL     1     -11.175  12.424  67.237  1.00  0.00    -0.357 C  
BRANCH   5   6
HETATM    6  C   UNL     1      -9.785  12.405  67.864  1.00  0.00    -0.204 C  
BRANCH   6   7
HETATM    7  C   UNL     1      -9.625  11.198  68.780  1.00  0.00    -0.180 C  
BRANCH   7   8
HETATM    8  C   UNL     1     -10.976  10.550  69.055  1.00  0.00    -0.289 C  
BRANCH   8   9
HETATM    9  C   UNL     1     -10.913   9.692  70.311  1.00  0.00    -0.337 C  
BRANCH   9  10
HETATM   10  C   UNL     1     -12.059  10.036  71.252  1.00  0.00    -0.487 C  
BRANCH  10  11
HETATM   11  C   UNL     1     -12.748  11.319  70.807  1.00  0.00    -0.360 C  
BRANCH  11  12
HETATM   12  C   UNL     1     -13.254  12.098  72.013  1.00  0.00    -0.496 C  
BRANCH  12  13
HETATM   13  C   UNL     1     -13.179  13.594  71.750  1.00  0.00    -0.477 C  
BRANCH  13  14
HETATM   14  C   UNL     1     -12.186  13.893  70.634  1.00  0.00    -0.443 C  
BRANCH  14  15
HETATM   15  C   UNL     1     -12.149  15.384  70.338  1.00  0.00    -0.408 C  
BRANCH  15  16
HETATM   16  C   UNL     1     -11.742  15.633  68.891  1.00  0.00    -0.396 C  
BRANCH  16  17
HETATM   17  C   UNL     1     -10.634  16.677  68.816  1.00  0.00    -0.340 C  
BRANCH  17  18
HETATM   18  C   UNL     1     -10.509  17.226  67.400  1.00  0.00    -0.338 C  
BRANCH  18  19
HETATM   19  C   UNL     1     -10.780  18.727  67.374  1.00  0.00    -0.487 C  
BRANCH  19  20
HETATM   20  C   UNL     1     -10.010  19.434  68.484  1.00  0.00    -0.520 C  
BRANCH  20  21
HETATM   21  C   UNL     1      -8.646  19.901  67.991  1.00  0.00    -0.311 C  
BRANCH  21  22
HETATM   22  C   UNL     1      -7.534  18.989  68.493  1.00  0.00    -0.317 C  
HETATM   23  O   UNL     1      -6.667  19.715  69.354  1.00  0.00    -0.333 OA 
HETATM   24  H   UNL     1      -5.973  19.146  69.666  1.00  0.00     0.000 HD 
ENDBRANCH  21  22
ENDBRANCH  20  21
ENDBRANCH  19  20
ENDBRANCH  18  19
ENDBRANCH  17  18
ENDBRANCH  16  17
ENDBRANCH  15  16
ENDBRANCH  14  15
ENDBRANCH  13  14
ENDBRANCH  12  13
ENDBRANCH  11  12
ENDBRANCH  10  11
ENDBRANCH   9  10
ENDBRANCH   8   9
ENDBRANCH   7   8
ENDBRANCH   6   7
ENDBRANCH   5   6
ENDBRANCH   4   5
ENDBRANCH   3   4
ENDBRANCH   2   3
TORSDOF 20
ENDMDL
MODEL       75
REMARK 921   NORMALIZED FREE ENERGY PREDICTED BY IDOCK:   -3.88 KCAL/MOL
REMARK 922        TOTAL FREE ENERGY PREDICTED BY IDOCK:  -11.29 KCAL/MOL
REMARK 923 INTER-LIGAND FREE ENERGY PREDICTED BY IDOCK:   -9.19 KCAL/MOL
REMARK 924 INTRA-LIGAND FREE ENERGY PREDICTED BY IDOCK:   -2.10 KCAL/MOL
REMARK 927      BINDING AFFINITY PREDICTED BY RF-SCORE:    0.00 PKD
ROOT
HETATM    1  C   UNL     1     -12.445  15.160  73.596  1.00  0.00    -0.692 C  
HETATM    2  C   UNL     1     -11.983  16.260  72.656  1.00  0.00    -0.644 C  
ENDROOT
BRANCH   2   3
HETATM    3  C   UNL     1     -12.030  15.797  71.203  1.00  0.00    -0.469 C  
BRANCH   3   4
HETATM    4  C   UNL     1     -12.799  14.485  71.068  1.00  0.00    -0.418 C  
BRANCH   4   5
HETATM    5  C   UNL     1     -12.043  13.505  70.177  1.00  0.00    -0.425 C  
BRANCH   5   6
HETATM    6  C   UNL     1     -11.490  14.210  68.942  1.00  0.00    -0.327 C  
BRANCH   6   7
HETATM    7  C   UNL     1     -11.873  13.455  67.675  1.00  0.00    -0.394 C  
BRANCH   7   8
HETATM    8  C   UNL     1     -11.750  14.359  66.455  1.00  0.00    -0.404 C  
BRANCH   8   9
HETATM    9  C   UNL     1     -12.781  13.980  65.401  1.00  0.00    -0.499 C  
BRANCH   9  10
HETATM   10  C   UNL     1     -12.465  12.613  64.810  1.00  0.00    -0.555 C  
BRANCH  10  11
HETATM   11  C   UNL     1     -11.041  12.580  64.272  1.00  0.00    -0.403 C  
BRANCH  11  12
HETATM   12  C   UNL     1     -10.734  11.221  63.660  1.00  0.00    -0.438 C  
BRANCH  12  13
HETATM   13  C   UNL     1      -9.872  10.395  64.602  1.00  0.00    -0.405 C  
BRANCH  13  14
HETATM   14  C   UNL     1      -9.262  11.279  65.683  1.00  0.00    -0.231 C  
BRANCH  14  15
HETATM   15  C   UNL     1      -9.169  10.523  67.000  1.00  0.00    -0.167 C  
BRANCH  15  16
HETATM   16  C   UNL     1     -10.559  10.235  67.552  1.00  0.00    -0.320 C  
BRANCH  16  17
HETATM   17  C   UNL     1     -10.467   9.560  68.915  1.00  0.00    -0.235 C  
BRANCH  17  18
HETATM   18  C   UNL     1     -11.422  10.217  69.905  1.00  0.00    -0.317 C  
BRANCH  18  19
HETATM   19  C   UNL     1     -11.269   9.605  71.293  1.00  0.00    -0.446 C  
BRANCH  19  20
HETATM   20  C   UNL     1     -10.442   8.325  71.231  1.00  0.00    -0.262 C  
BRANCH  20  21
HETATM   21  C   UNL     1     -11.133   7.191  71.979  1.00  0.00    -0.278 C  
BRANCH  21  22
HETATM   22  C   UNL     1     -12.409   6.758  71.269  1.00  0.00    -0.344 C  
HETATM   23  O   UNL     1     -13.450   6.573  72.219  1.00  0.00    -0.516 OA 
HETATM   24  H   UNL     1     -14.246   6.303  71.776  1.00  0.00     0.000 HD 
ENDBRANCH  21  22
ENDBRANCH  20  21
ENDBRANCH  19  20
ENDBRANCH  18  19
ENDBRANCH  17  18
ENDBRANCH  16  17
ENDBRANCH  15  16
ENDBRANCH  14  15
ENDBRANCH  13  14
ENDBRANCH  12  13
ENDBRANCH  11  12
ENDBRANCH  10  11
ENDBRANCH   9  10
ENDBRANCH   8   9
ENDBRANCH   7   8
ENDBRANCH   6   7
ENDBRANCH   5   6
ENDBRANCH   4   5
ENDBRANCH   3   4
ENDBRANCH   2   3
TORSDOF 20
ENDMDL
MODEL       76
REMARK 921   NORMALIZED FREE ENERGY PREDICTED BY IDOCK:   -3.88 KCAL/MOL
REMARK 922        TOTAL FREE ENERGY PREDICTED BY IDOCK:  -11.28 KCAL/MOL
REMARK 923 INTER-LIGAND FREE ENERGY PREDICTED BY IDOCK:   -8.74 KCAL/MOL
REMARK 924 INTRA-LIGAND FREE ENERGY PREDICTED BY IDOCK:   -2.54 KCAL/MOL
REMARK 927      BINDING AFFINITY PREDICTED BY RF-SCORE:    0.00 PKD
ROOT
HETATM    1  C   UNL     1     -13.415  12.813  72.045  1.00  0.00    -0.540 C  
HETATM    2  C   UNL     1     -13.087  11.343  71.847  1.00  0.00    -0.505 C  
ENDROOT
BRANCH   2   3
HETATM    3  C   UNL     1     -12.287  11.126  70.567  1.00  0.00    -0.454 C  
BRANCH   3   4
HETATM    4  C   UNL     1     -11.942  12.455  69.901  1.00  0.00    -0.369 C  
BRANCH   4   5
HETATM    5  C   UNL     1     -10.950  12.247  68.761  1.00  0.00    -0.277 C  
BRANCH   5   6
HETATM    6  C   UNL     1     -11.633  12.420  67.409  1.00  0.00    -0.433 C  
BRANCH   6   7
HETATM    7  C   UNL     1     -12.050  13.870  67.198  1.00  0.00    -0.422 C  
BRANCH   7   8
HETATM    8  C   UNL     1     -12.224  14.168  65.715  1.00  0.00    -0.458 C  
BRANCH   8   9
HETATM    9  C   UNL     1     -12.463  12.882  64.934  1.00  0.00    -0.540 C  
BRANCH   9  10
HETATM   10  C   UNL     1     -11.613  12.858  63.671  1.00  0.00    -0.547 C  
BRANCH  10  11
HETATM   11  C   UNL     1     -10.939  11.503  63.507  1.00  0.00    -0.453 C  
BRANCH  11  12
HETATM   12  C   UNL     1      -9.849  11.319  64.553  1.00  0.00    -0.317 C  
BRANCH  12  13
HETATM   13  C   UNL     1      -9.764   9.863  64.984  1.00  0.00    -0.359 C  
BRANCH  13  14
HETATM   14  C   UNL     1      -9.357   9.760  66.448  1.00  0.00    -0.218 C  
BRANCH  14  15
HETATM   15  C   UNL     1      -9.595   8.352  66.970  1.00  0.00    -0.248 C  
BRANCH  15  16
HETATM   16  C   UNL     1     -10.018   8.388  68.433  1.00  0.00    -0.208 C  
BRANCH  16  17
HETATM   17  C   UNL     1      -8.846   8.783  69.323  1.00  0.00    -0.140 C  
BRANCH  17  18
HETATM   18  C   UNL     1      -9.343   9.320  70.660  1.00  0.00    -0.329 C  
BRANCH  18  19
HETATM   19  C   UNL     1      -9.287   8.239  71.733  1.00  0.00    -0.266 C  
BRANCH  19  20
HETATM   20  C   UNL     1     -10.566   8.237  72.564  1.00  0.00    -0.407 C  
BRANCH  20  21
HETATM   21  C   UNL     1     -11.311   6.916  72.417  1.00  0.00    -0.308 C  
BRANCH  21  22
HETATM   22  C   UNL     1     -12.571   7.083  71.578  1.00  0.00    -0.385 C  
HETATM   23  O   UNL     1     -12.318   6.670  70.242  1.00  0.00    -0.555 OA 
HETATM   24  H   UNL     1     -13.104   6.774  69.719  1.00  0.00     0.000 HD 
ENDBRANCH  21  22
ENDBRANCH  20  21
ENDBRANCH  19  20
ENDBRANCH  18  19
ENDBRANCH  17  18
ENDBRANCH  16  17
ENDBRANCH  15  16
ENDBRANCH  14  15
ENDBRANCH  13  14
ENDBRANCH  12  13
ENDBRANCH  11  12
ENDBRANCH  10  11
ENDBRANCH   9  10
ENDBRANCH   8   9
ENDBRANCH   7   8
ENDBRANCH   6   7
ENDBRANCH   5   6
ENDBRANCH   4   5
ENDBRANCH   3   4
ENDBRANCH   2   3
TORSDOF 20
ENDMDL
MODEL       77
REMARK 921   NORMALIZED FREE ENERGY PREDICTED BY IDOCK:   -3.87 KCAL/MOL
REMARK 922        TOTAL FREE ENERGY PREDICTED BY IDOCK:  -11.26 KCAL/MOL
REMARK 923 INTER-LIGAND FREE ENERGY PREDICTED BY IDOCK:   -8.53 KCAL/MOL
REMARK 924 INTRA-LIGAND FREE ENERGY PREDICTED BY IDOCK:   -2.73 KCAL/MOL
REMARK 927      BINDING AFFINITY PREDICTED BY RF-SCORE:    0.00 PKD
ROOT
HETATM    1  C   UNL     1     -10.273  17.511  67.300  1.00  0.00    -0.335 C  
HETATM    2  C   UNL     1      -9.777  16.085  67.462  1.00  0.00    -0.228 C  
ENDROOT
BRANCH   2   3
HETATM    3  C   UNL     1      -9.484  15.447  66.107  1.00  0.00    -0.371 C  
BRANCH   3   4
HETATM    4  C   UNL     1     -10.776  15.117  65.364  1.00  0.00    -0.396 C  
BRANCH   4   5
HETATM    5  C   UNL     1     -11.720  14.313  66.253  1.00  0.00    -0.404 C  
BRANCH   5   6
HETATM    6  C   UNL     1     -12.648  13.442  65.412  1.00  0.00    -0.528 C  
BRANCH   6   7
HETATM    7  C   UNL     1     -12.185  13.409  63.961  1.00  0.00    -0.466 C  
BRANCH   7   8
HETATM    8  C   UNL     1     -11.824  11.989  63.545  1.00  0.00    -0.587 C  
BRANCH   8   9
HETATM    9  C   UNL     1     -10.314  11.833  63.427  1.00  0.00    -0.481 C  
BRANCH   9  10
HETATM   10  C   UNL     1      -9.865  10.506  64.022  1.00  0.00    -0.387 C  
BRANCH  10  11
HETATM   11  C   UNL     1     -10.044  10.511  65.534  1.00  0.00    -0.349 C  
BRANCH  11  12
HETATM   12  C   UNL     1      -9.084  11.498  66.182  1.00  0.00    -0.217 C  
BRANCH  12  13
HETATM   13  C   UNL     1      -9.534  11.829  67.596  1.00  0.00    -0.180 C  
BRANCH  13  14
HETATM   14  C   UNL     1     -10.807  11.068  67.945  1.00  0.00    -0.285 C  
BRANCH  14  15
HETATM   15  C   UNL     1     -10.956  10.942  69.454  1.00  0.00    -0.304 C  
BRANCH  15  16
HETATM   16  C   UNL     1     -12.409  10.674  69.827  1.00  0.00    -0.263 C  
BRANCH  16  17
HETATM   17  C   UNL     1     -12.616  10.836  71.328  1.00  0.00    -0.532 C  
BRANCH  17  18
HETATM   18  C   UNL     1     -13.234   9.576  71.924  1.00  0.00    -0.524 C  
BRANCH  18  19
HETATM   19  C   UNL     1     -12.164   8.525  72.197  1.00  0.00    -0.446 C  
BRANCH  19  20
HETATM   20  C   UNL     1     -12.537   7.194  71.552  1.00  0.00    -0.427 C  
BRANCH  20  21
HETATM   21  C   UNL     1     -11.668   6.917  70.331  1.00  0.00    -0.377 C  
BRANCH  21  22
HETATM   22  C   UNL     1     -10.670   5.799  70.606  1.00  0.00    -0.281 C  
HETATM   23  O   UNL     1      -9.349   6.323  70.607  1.00  0.00    -0.160 OA 
HETATM   24  H   UNL     1      -8.727   5.626  70.778  1.00  0.00     0.000 HD 
ENDBRANCH  21  22
ENDBRANCH  20  21
ENDBRANCH  19  20
ENDBRANCH  18  19
ENDBRANCH  17  18
ENDBRANCH  16  17
ENDBRANCH  15  16
ENDBRANCH  14  15
ENDBRANCH  13  14
ENDBRANCH  12  13
ENDBRANCH  11  12
ENDBRANCH  10  11
ENDBRANCH   9  10
ENDBRANCH   8   9
ENDBRANCH   7   8
ENDBRANCH   6   7
ENDBRANCH   5   6
ENDBRANCH   4   5
ENDBRANCH   3   4
ENDBRANCH   2   3
TORSDOF 20
ENDMDL
MODEL       78
REMARK 921   NORMALIZED FREE ENERGY PREDICTED BY IDOCK:   -3.87 KCAL/MOL
REMARK 922        TOTAL FREE ENERGY PREDICTED BY IDOCK:  -11.25 KCAL/MOL
REMARK 923 INTER-LIGAND FREE ENERGY PREDICTED BY IDOCK:   -8.80 KCAL/MOL
REMARK 924 INTRA-LIGAND FREE ENERGY PREDICTED BY IDOCK:   -2.45 KCAL/MOL
REMARK 927      BINDING AFFINITY PREDICTED BY RF-SCORE:    0.00 PKD
ROOT
HETATM    1  C   UNL     1     -11.853  14.233  69.159  1.00  0.00    -0.368 C  
HETATM    2  C   UNL     1     -12.029  13.049  70.094  1.00  0.00    -0.374 C  
ENDROOT
BRANCH   2   3
HETATM    3  C   UNL     1     -12.665  13.480  71.412  1.00  0.00    -0.423 C  
BRANCH   3   4
HETATM    4  C   UNL     1     -13.406  12.320  72.071  1.00  0.00    -0.491 C  
BRANCH   4   5
HETATM    5  C   UNL     1     -12.963  10.988  71.474  1.00  0.00    -0.553 C  
BRANCH   5   6
HETATM    6  C   UNL     1     -13.582   9.820  72.234  1.00  0.00    -0.397 C  
BRANCH   6   7
HETATM    7  C   UNL     1     -14.224   8.830  71.270  1.00  0.00    -0.203 C  
BRANCH   7   8
HETATM    8  C   UNL     1     -13.906   7.398  71.681  1.00  0.00    -0.490 C  
BRANCH   8   9
HETATM    9  C   UNL     1     -12.606   6.933  71.038  1.00  0.00    -0.319 C  
BRANCH   9  10
HETATM   10  C   UNL     1     -11.707   6.268  72.070  1.00  0.00    -0.374 C  
BRANCH  10  11
HETATM   11  C   UNL     1     -10.295   6.830  71.990  1.00  0.00    -0.217 C  
BRANCH  11  12
HETATM   12  C   UNL     1     -10.332   8.328  71.720  1.00  0.00    -0.321 C  
BRANCH  12  13
HETATM   13  C   UNL     1      -9.107   8.756  70.926  1.00  0.00    -0.256 C  
BRANCH  13  14
HETATM   14  C   UNL     1      -9.486   9.789  69.873  1.00  0.00    -0.264 C  
BRANCH  14  15
HETATM   15  C   UNL     1     -10.699   9.323  69.080  1.00  0.00    -0.202 C  
BRANCH  15  16
HETATM   16  C   UNL     1     -11.012  10.301  67.956  1.00  0.00    -0.345 C  
BRANCH  16  17
HETATM   17  C   UNL     1     -10.515   9.763  66.620  1.00  0.00    -0.233 C  
BRANCH  17  18
HETATM   18  C   UNL     1      -9.622  10.785  65.927  1.00  0.00    -0.252 C  
BRANCH  18  19
HETATM   19  C   UNL     1     -10.448  11.943  65.377  1.00  0.00    -0.312 C  
BRANCH  19  20
HETATM   20  C   UNL     1     -11.125  11.549  64.068  1.00  0.00    -0.441 C  
BRANCH  20  21
HETATM   21  C   UNL     1     -11.888  12.726  63.472  1.00  0.00    -0.618 C  
BRANCH  21  22
HETATM   22  C   UNL     1     -12.085  13.834  64.498  1.00  0.00    -0.428 C  
HETATM   23  O   UNL     1     -12.269  15.077  63.833  1.00  0.00    -0.923 OA 
HETATM   24  H   UNL     1     -12.392  15.769  64.473  1.00  0.00     0.000 HD 
ENDBRANCH  21  22
ENDBRANCH  20  21
ENDBRANCH  19  20
ENDBRANCH  18  19
ENDBRANCH  17  18
ENDBRANCH  16  17
ENDBRANCH  15  16
ENDBRANCH  14  15
ENDBRANCH  13  14
ENDBRANCH  12  13
ENDBRANCH  11  12
ENDBRANCH  10  11
ENDBRANCH   9  10
ENDBRANCH   8   9
ENDBRANCH   7   8
ENDBRANCH   6   7
ENDBRANCH   5   6
ENDBRANCH   4   5
ENDBRANCH   3   4
ENDBRANCH   2   3
TORSDOF 20
ENDMDL
MODEL       79
REMARK 921   NORMALIZED FREE ENERGY PREDICTED BY IDOCK:   -3.86 KCAL/MOL
REMARK 922        TOTAL FREE ENERGY PREDICTED BY IDOCK:  -11.25 KCAL/MOL
REMARK 923 INTER-LIGAND FREE ENERGY PREDICTED BY IDOCK:   -9.32 KCAL/MOL
REMARK 924 INTRA-LIGAND FREE ENERGY PREDICTED BY IDOCK:   -1.93 KCAL/MOL
REMARK 927      BINDING AFFINITY PREDICTED BY RF-SCORE:    0.00 PKD
ROOT
HETATM    1  C   UNL     1      -9.443  11.018  62.598  1.00  0.00    -0.322 C  
HETATM    2  C   UNL     1     -10.118  11.773  63.730  1.00  0.00    -0.421 C  
ENDROOT
BRANCH   2   3
HETATM    3  C   UNL     1     -11.635  11.626  63.661  1.00  0.00    -0.435 C  
BRANCH   3   4
HETATM    4  C   UNL     1     -12.304  12.961  63.347  1.00  0.00    -0.498 C  
BRANCH   4   5
HETATM    5  C   UNL     1     -11.795  14.054  64.282  1.00  0.00    -0.435 C  
BRANCH   5   6
HETATM    6  C   UNL     1     -12.593  14.071  65.581  1.00  0.00    -0.542 C  
BRANCH   6   7
HETATM    7  C   UNL     1     -11.663  13.988  66.785  1.00  0.00    -0.430 C  
BRANCH   7   8
HETATM    8  C   UNL     1     -11.899  12.695  67.556  1.00  0.00    -0.396 C  
BRANCH   8   9
HETATM    9  C   UNL     1     -10.681  11.786  67.463  1.00  0.00    -0.262 C  
BRANCH   9  10
HETATM   10  C   UNL     1     -11.054  10.354  67.818  1.00  0.00    -0.365 C  
BRANCH  10  11
HETATM   11  C   UNL     1     -11.005  10.146  69.325  1.00  0.00    -0.279 C  
BRANCH  11  12
HETATM   12  C   UNL     1     -11.901  11.153  70.032  1.00  0.00    -0.441 C  
BRANCH  12  13
HETATM   13  C   UNL     1     -12.871  10.441  70.962  1.00  0.00    -0.494 C  
BRANCH  13  14
HETATM   14  C   UNL     1     -13.400  11.400  72.021  1.00  0.00    -0.388 C  
BRANCH  14  15
HETATM   15  C   UNL     1     -12.843  12.799  71.800  1.00  0.00    -0.342 C  
BRANCH  15  16
HETATM   16  C   UNL     1     -13.867  13.852  72.204  1.00  0.00    -0.636 C  
BRANCH  16  17
HETATM   17  C   UNL     1     -13.442  15.231  71.712  1.00  0.00    -0.558 C  
BRANCH  17  18
HETATM   18  C   UNL     1     -11.932  15.289  71.515  1.00  0.00    -0.429 C  
BRANCH  18  19
HETATM   19  C   UNL     1     -11.587  15.755  70.104  1.00  0.00    -0.364 C  
BRANCH  19  20
HETATM   20  C   UNL     1     -10.166  15.344  69.732  1.00  0.00    -0.278 C  
BRANCH  20  21
HETATM   21  C   UNL     1      -9.487  16.421  68.895  1.00  0.00    -0.254 C  
BRANCH  21  22
HETATM   22  C   UNL     1     -10.501  17.420  68.351  1.00  0.00    -0.384 C  
HETATM   23  O   UNL     1     -10.032  18.745  68.563  1.00  0.00    -0.365 OA 
HETATM   24  H   UNL     1     -10.664  19.368  68.223  1.00  0.00     0.000 HD 
ENDBRANCH  21  22
ENDBRANCH  20  21
ENDBRANCH  19  20
ENDBRANCH  18  19
ENDBRANCH  17  18
ENDBRANCH  16  17
ENDBRANCH  15  16
ENDBRANCH  14  15
ENDBRANCH  13  14
ENDBRANCH  12  13
ENDBRANCH  11  12
ENDBRANCH  10  11
ENDBRANCH   9  10
ENDBRANCH   8   9
ENDBRANCH   7   8
ENDBRANCH   6   7
ENDBRANCH   5   6
ENDBRANCH   4   5
ENDBRANCH   3   4
ENDBRANCH   2   3
TORSDOF 20
ENDMDL
MODEL       80
REMARK 921   NORMALIZED FREE ENERGY PREDICTED BY IDOCK:   -3.86 KCAL/MOL
REMARK 922        TOTAL FREE ENERGY PREDICTED BY IDOCK:  -11.25 KCAL/MOL
REMARK 923 INTER-LIGAND FREE ENERGY PREDICTED BY IDOCK:   -8.42 KCAL/MOL
REMARK 924 INTRA-LIGAND FREE ENERGY PREDICTED BY IDOCK:   -2.83 KCAL/MOL
REMARK 927      BINDING AFFINITY PREDICTED BY RF-SCORE:    0.00 PKD
ROOT
HETATM    1  C   UNL     1     -13.695   9.216  72.195  1.00  0.00    -0.531 C  
HETATM    2  C   UNL     1     -12.420   8.390  72.210  1.00  0.00    -0.417 C  
ENDROOT
BRANCH   2   3
HETATM    3  C   UNL     1     -12.564   7.141  71.345  1.00  0.00    -0.432 C  
BRANCH   3   4
HETATM    4  C   UNL     1     -11.348   6.231  71.485  1.00  0.00    -0.352 C  
BRANCH   4   5
HETATM    5  C   UNL     1     -10.061   7.003  71.207  1.00  0.00    -0.199 C  
BRANCH   5   6
HETATM    6  C   UNL     1      -9.811   7.117  69.707  1.00  0.00    -0.173 C  
BRANCH   6   7
HETATM    7  C   UNL     1      -9.352   8.524  69.344  1.00  0.00    -0.154 C  
BRANCH   7   8
HETATM    8  C   UNL     1     -10.544   9.397  68.970  1.00  0.00    -0.233 C  
BRANCH   8   9
HETATM    9  C   UNL     1     -10.675  10.567  69.935  1.00  0.00    -0.301 C  
BRANCH   9  10
HETATM   10  C   UNL     1     -11.680  11.583  69.410  1.00  0.00    -0.413 C  
BRANCH  10  11
HETATM   11  C   UNL     1     -12.373  12.295  70.564  1.00  0.00    -0.349 C  
BRANCH  11  12
HETATM   12  C   UNL     1     -12.661  13.744  70.201  1.00  0.00    -0.253 C  
BRANCH  12  13
HETATM   13  C   UNL     1     -12.309  14.664  71.360  1.00  0.00    -0.411 C  
BRANCH  13  14
HETATM   14  C   UNL     1     -11.655  15.941  70.851  1.00  0.00    -0.456 C  
BRANCH  14  15
HETATM   15  C   UNL     1     -10.601  15.620  69.802  1.00  0.00    -0.308 C  
BRANCH  15  16
HETATM   16  C   UNL     1     -10.670  16.614  68.651  1.00  0.00    -0.349 C  
BRANCH  16  17
HETATM   17  C   UNL     1     -10.484  15.905  67.315  1.00  0.00    -0.310 C  
BRANCH  17  18
HETATM   18  C   UNL     1      -9.802  14.556  67.513  1.00  0.00    -0.222 C  
BRANCH  18  19
HETATM   19  C   UNL     1     -10.531  13.461  66.743  1.00  0.00    -0.275 C  
BRANCH  19  20
HETATM   20  C   UNL     1     -11.974  13.868  66.462  1.00  0.00    -0.470 C  
BRANCH  20  21
HETATM   21  C   UNL     1     -12.508  13.166  65.218  1.00  0.00    -0.550 C  
BRANCH  21  22
HETATM   22  C   UNL     1     -11.796  13.650  63.962  1.00  0.00    -0.400 C  
HETATM   23  O   UNL     1     -11.920  15.062  63.853  1.00  0.00    -0.866 OA 
HETATM   24  H   UNL     1     -11.476  15.364  63.069  1.00  0.00     0.000 HD 
ENDBRANCH  21  22
ENDBRANCH  20  21
ENDBRANCH  19  20
ENDBRANCH  18  19
ENDBRANCH  17  18
ENDBRANCH  16  17
ENDBRANCH  15  16
ENDBRANCH  14  15
ENDBRANCH  13  14
ENDBRANCH  12  13
ENDBRANCH  11  12
ENDBRANCH  10  11
ENDBRANCH   9  10
ENDBRANCH   8   9
ENDBRANCH   7   8
ENDBRANCH   6   7
ENDBRANCH   5   6
ENDBRANCH   4   5
ENDBRANCH   3   4
ENDBRANCH   2   3
TORSDOF 20
ENDMDL
MODEL       81
REMARK 921   NORMALIZED FREE ENERGY PREDICTED BY IDOCK:   -3.86 KCAL/MOL
REMARK 922        TOTAL FREE ENERGY PREDICTED BY IDOCK:  -11.25 KCAL/MOL
REMARK 923 INTER-LIGAND FREE ENERGY PREDICTED BY IDOCK:   -9.01 KCAL/MOL
REMARK 924 INTRA-LIGAND FREE ENERGY PREDICTED BY IDOCK:   -2.24 KCAL/MOL
REMARK 927      BINDING AFFINITY PREDICTED BY RF-SCORE:    0.00 PKD
ROOT
HETATM    1  C   UNL     1     -12.984  10.741  71.484  1.00  0.00    -0.562 C  
HETATM    2  C   UNL     1     -13.652   9.386  71.639  1.00  0.00    -0.437 C  
ENDROOT
BRANCH   2   3
HETATM    3  C   UNL     1     -12.713   8.382  72.301  1.00  0.00    -0.376 C  
BRANCH   3   4
HETATM    4  C   UNL     1     -12.355   7.249  71.343  1.00  0.00    -0.403 C  
BRANCH   4   5
HETATM    5  C   UNL     1     -10.845   7.176  71.134  1.00  0.00    -0.261 C  
BRANCH   5   6
HETATM    6  C   UNL     1     -10.141   8.319  71.857  1.00  0.00    -0.314 C  
BRANCH   6   7
HETATM    7  C   UNL     1      -9.508   9.279  70.857  1.00  0.00    -0.330 C  
BRANCH   7   8
HETATM    8  C   UNL     1      -9.982   8.969  69.442  1.00  0.00    -0.191 C  
BRANCH   8   9
HETATM    9  C   UNL     1     -10.486  10.232  68.757  1.00  0.00    -0.222 C  
BRANCH   9  10
HETATM   10  C   UNL     1     -10.836   9.949  67.303  1.00  0.00    -0.268 C  
BRANCH  10  11
HETATM   11  C   UNL     1      -9.571   9.821  66.466  1.00  0.00    -0.249 C  
BRANCH  11  12
HETATM   12  C   UNL     1      -9.877  10.072  64.996  1.00  0.00    -0.374 C  
BRANCH  12  13
HETATM   13  C   UNL     1      -9.825  11.561  64.688  1.00  0.00    -0.283 C  
BRANCH  13  14
HETATM   14  C   UNL     1     -10.583  11.868  63.403  1.00  0.00    -0.485 C  
BRANCH  14  15
HETATM   15  C   UNL     1     -11.621  12.954  63.642  1.00  0.00    -0.547 C  
BRANCH  15  16
HETATM   16  C   UNL     1     -12.331  12.733  64.972  1.00  0.00    -0.559 C  
BRANCH  16  17
HETATM   17  C   UNL     1     -12.435  14.039  65.750  1.00  0.00    -0.523 C  
BRANCH  17  18
HETATM   18  C   UNL     1     -11.902  13.864  67.167  1.00  0.00    -0.445 C  
BRANCH  18  19
HETATM   19  C   UNL     1     -10.966  15.009  67.540  1.00  0.00    -0.307 C  
BRANCH  19  20
HETATM   20  C   UNL     1     -11.606  15.909  68.591  1.00  0.00    -0.383 C  
BRANCH  20  21
HETATM   21  C   UNL     1     -10.986  15.675  69.963  1.00  0.00    -0.336 C  
BRANCH  21  22
HETATM   22  C   UNL     1     -12.053  15.619  71.049  1.00  0.00    -0.400 C  
HETATM   23  O   UNL     1     -13.343  15.566  70.455  1.00  0.00    -0.751 OA 
HETATM   24  H   UNL     1     -14.008  15.531  71.132  1.00  0.00     0.000 HD 
ENDBRANCH  21  22
ENDBRANCH  20  21
ENDBRANCH  19  20
ENDBRANCH  18  19
ENDBRANCH  17  18
ENDBRANCH  16  17
ENDBRANCH  15  16
ENDBRANCH  14  15
ENDBRANCH  13  14
ENDBRANCH  12  13
ENDBRANCH  11  12
ENDBRANCH  10  11
ENDBRANCH   9  10
ENDBRANCH   8   9
ENDBRANCH   7   8
ENDBRANCH   6   7
ENDBRANCH   5   6
ENDBRANCH   4   5
ENDBRANCH   3   4
ENDBRANCH   2   3
TORSDOF 20
ENDMDL
MODEL       82
REMARK 921   NORMALIZED FREE ENERGY PREDICTED BY IDOCK:   -3.86 KCAL/MOL
REMARK 922        TOTAL FREE ENERGY PREDICTED BY IDOCK:  -11.23 KCAL/MOL
REMARK 923 INTER-LIGAND FREE ENERGY PREDICTED BY IDOCK:   -8.26 KCAL/MOL
REMARK 924 INTRA-LIGAND FREE ENERGY PREDICTED BY IDOCK:   -2.98 KCAL/MOL
REMARK 927      BINDING AFFINITY PREDICTED BY RF-SCORE:    0.00 PKD
ROOT
HETATM    1  C   UNL     1     -13.133  12.070  71.344  1.00  0.00    -0.295 C  
HETATM    2  C   UNL     1     -13.664  13.202  72.206  1.00  0.00    -0.647 C  
ENDROOT
BRANCH   2   3
HETATM    3  C   UNL     1     -13.016  14.531  71.830  1.00  0.00    -0.413 C  
BRANCH   3   4
HETATM    4  C   UNL     1     -12.427  14.476  70.423  1.00  0.00    -0.407 C  
BRANCH   4   5
HETATM    5  C   UNL     1     -11.675  15.764  70.102  1.00  0.00    -0.367 C  
BRANCH   5   6
HETATM    6  C   UNL     1     -11.549  15.958  68.595  1.00  0.00    -0.383 C  
BRANCH   6   7
HETATM    7  C   UNL     1     -10.085  16.074  68.187  1.00  0.00    -0.234 C  
BRANCH   7   8
HETATM    8  C   UNL     1      -9.949  16.079  66.670  1.00  0.00    -0.277 C  
BRANCH   8   9
HETATM    9  C   UNL     1     -11.123  15.355  66.024  1.00  0.00    -0.233 C  
BRANCH   9  10
HETATM   10  C   UNL     1     -10.629  14.330  65.014  1.00  0.00    -0.444 C  
BRANCH  10  11
HETATM   11  C   UNL     1     -10.654  12.932  65.616  1.00  0.00    -0.295 C  
BRANCH  11  12
HETATM   12  C   UNL     1     -11.958  12.696  66.364  1.00  0.00    -0.425 C  
BRANCH  12  13
HETATM   13  C   UNL     1     -11.711  11.880  67.623  1.00  0.00    -0.346 C  
BRANCH  13  14
HETATM   14  C   UNL     1     -10.417  12.315  68.298  1.00  0.00    -0.236 C  
BRANCH  14  15
HETATM   15  C   UNL     1      -9.849  11.185  69.142  1.00  0.00    -0.074 C  
BRANCH  15  16
HETATM   16  C   UNL     1     -10.347   9.837  68.637  1.00  0.00    -0.224 C  
BRANCH  16  17
HETATM   17  C   UNL     1      -9.761   8.701  69.468  1.00  0.00    -0.179 C  
BRANCH  17  18
HETATM   18  C   UNL     1      -9.305   9.211  70.829  1.00  0.00    -0.325 C  
BRANCH  18  19
HETATM   19  C   UNL     1      -9.932   8.394  71.953  1.00  0.00    -0.331 C  
BRANCH  19  20
HETATM   20  C   UNL     1     -11.349   8.878  72.246  1.00  0.00    -0.288 C  
BRANCH  20  21
HETATM   21  C   UNL     1     -12.380   7.838  71.823  1.00  0.00    -0.346 C  
BRANCH  21  22
HETATM   22  C   UNL     1     -13.797   8.313  72.118  1.00  0.00    -0.296 C  
HETATM   23  O   UNL     1     -13.861   8.848  73.434  1.00  0.00    -1.192 OA 
HETATM   24  H   UNL     1     -14.745   9.144  73.618  1.00  0.00     0.000 HD 
ENDBRANCH  21  22
ENDBRANCH  20  21
ENDBRANCH  19  20
ENDBRANCH  18  19
ENDBRANCH  17  18
ENDBRANCH  16  17
ENDBRANCH  15  16
ENDBRANCH  14  15
ENDBRANCH  13  14
ENDBRANCH  12  13
ENDBRANCH  11  12
ENDBRANCH  10  11
ENDBRANCH   9  10
ENDBRANCH   8   9
ENDBRANCH   7   8
ENDBRANCH   6   7
ENDBRANCH   5   6
ENDBRANCH   4   5
ENDBRANCH   3   4
ENDBRANCH   2   3
TORSDOF 20
ENDMDL
MODEL       83
REMARK 921   NORMALIZED FREE ENERGY PREDICTED BY IDOCK:   -3.85 KCAL/MOL
REMARK 922        TOTAL FREE ENERGY PREDICTED BY IDOCK:  -11.21 KCAL/MOL
REMARK 923 INTER-LIGAND FREE ENERGY PREDICTED BY IDOCK:   -7.44 KCAL/MOL
REMARK 924 INTRA-LIGAND FREE ENERGY PREDICTED BY IDOCK:   -3.77 KCAL/MOL
REMARK 927      BINDING AFFINITY PREDICTED BY RF-SCORE:    0.00 PKD
ROOT
HETATM    1  C   UNL     1     -11.890   7.969  72.469  1.00  0.00    -0.419 C  
HETATM    2  C   UNL     1     -12.409   7.117  71.324  1.00  0.00    -0.418 C  
ENDROOT
BRANCH   2   3
HETATM    3  C   UNL     1     -11.308   6.224  70.760  1.00  0.00    -0.397 C  
BRANCH   3   4
HETATM    4  C   UNL     1     -11.306   6.250  69.234  1.00  0.00    -0.411 C  
BRANCH   4   5
HETATM    5  C   UNL     1      -9.889   6.433  68.699  1.00  0.00    -0.152 C  
BRANCH   5   6
HETATM    6  C   UNL     1      -8.910   6.703  69.836  1.00  0.00    -0.144 C  
BRANCH   6   7
HETATM    7  C   UNL     1      -8.071   7.940  69.541  1.00  0.00    -0.121 C  
BRANCH   7   8
HETATM    8  C   UNL     1      -8.342   9.030  70.570  1.00  0.00    -0.205 C  
BRANCH   8   9
HETATM    9  C   UNL     1      -9.672   9.716  70.287  1.00  0.00    -0.314 C  
BRANCH   9  10
HETATM   10  C   UNL     1      -9.658  10.361  68.909  1.00  0.00    -0.197 C  
BRANCH  10  11
HETATM   11  C   UNL     1     -10.901   9.967  68.122  1.00  0.00    -0.282 C  
BRANCH  11  12
HETATM   12  C   UNL     1     -10.534   9.612  66.688  1.00  0.00    -0.233 C  
BRANCH  12  13
HETATM   13  C   UNL     1      -9.054   9.857  66.441  1.00  0.00    -0.179 C  
BRANCH  13  14
HETATM   14  C   UNL     1      -8.856  10.796  65.259  1.00  0.00    -0.200 C  
BRANCH  14  15
HETATM   15  C   UNL     1      -9.790  10.422  64.118  1.00  0.00    -0.379 C  
BRANCH  15  16
HETATM   16  C   UNL     1     -10.292  11.672  63.405  1.00  0.00    -0.482 C  
BRANCH  16  17
HETATM   17  C   UNL     1     -11.732  11.975  63.800  1.00  0.00    -0.575 C  
BRANCH  17  18
HETATM   18  C   UNL     1     -11.884  13.438  64.196  1.00  0.00    -0.492 C  
BRANCH  18  19
HETATM   19  C   UNL     1     -11.033  13.760  65.420  1.00  0.00    -0.309 C  
BRANCH  19  20
HETATM   20  C   UNL     1     -11.727  13.298  66.697  1.00  0.00    -0.425 C  
BRANCH  20  21
HETATM   21  C   UNL     1     -10.907  13.663  67.928  1.00  0.00    -0.264 C  
BRANCH  21  22
HETATM   22  C   UNL     1     -11.798  13.872  69.145  1.00  0.00    -0.358 C  
HETATM   23  O   UNL     1     -11.293  13.128  70.245  1.00  0.00    -0.487 OA 
HETATM   24  H   UNL     1     -11.850  13.259  71.004  1.00  0.00     0.000 HD 
ENDBRANCH  21  22
ENDBRANCH  20  21
ENDBRANCH  19  20
ENDBRANCH  18  19
ENDBRANCH  17  18
ENDBRANCH  16  17
ENDBRANCH  15  16
ENDBRANCH  14  15
ENDBRANCH  13  14
ENDBRANCH  12  13
ENDBRANCH  11  12
ENDBRANCH  10  11
ENDBRANCH   9  10
ENDBRANCH   8   9
ENDBRANCH   7   8
ENDBRANCH   6   7
ENDBRANCH   5   6
ENDBRANCH   4   5
ENDBRANCH   3   4
ENDBRANCH   2   3
TORSDOF 20
ENDMDL
MODEL       84
REMARK 921   NORMALIZED FREE ENERGY PREDICTED BY IDOCK:   -3.85 KCAL/MOL
REMARK 922        TOTAL FREE ENERGY PREDICTED BY IDOCK:  -11.21 KCAL/MOL
REMARK 923 INTER-LIGAND FREE ENERGY PREDICTED BY IDOCK:   -8.58 KCAL/MOL
REMARK 924 INTRA-LIGAND FREE ENERGY PREDICTED BY IDOCK:   -2.63 KCAL/MOL
REMARK 927      BINDING AFFINITY PREDICTED BY RF-SCORE:    0.00 PKD
ROOT
HETATM    1  C   UNL     1     -10.469   8.774  72.033  1.00  0.00    -0.414 C  
HETATM    2  C   UNL     1     -10.287   9.595  70.768  1.00  0.00    -0.356 C  
ENDROOT
BRANCH   2   3
HETATM    3  C   UNL     1     -11.496  10.492  70.516  1.00  0.00    -0.433 C  
BRANCH   3   4
HETATM    4  C   UNL     1     -12.754   9.911  71.154  1.00  0.00    -0.462 C  
BRANCH   4   5
HETATM    5  C   UNL     1     -13.472  10.967  71.990  1.00  0.00    -0.287 C  
BRANCH   5   6
HETATM    6  C   UNL     1     -12.988  12.367  71.628  1.00  0.00    -0.409 C  
BRANCH   6   7
HETATM    7  C   UNL     1     -13.891  13.425  72.249  1.00  0.00    -0.671 C  
BRANCH   7   8
HETATM    8  C   UNL     1     -13.062  14.510  72.923  1.00  0.00    -0.614 C  
BRANCH   8   9
HETATM    9  C   UNL     1     -13.068  15.786  72.091  1.00  0.00    -0.517 C  
BRANCH   9  10
HETATM   10  C   UNL     1     -11.743  15.956  71.362  1.00  0.00    -0.530 C  
BRANCH  10  11
HETATM   11  C   UNL     1     -11.931  15.778  69.862  1.00  0.00    -0.346 C  
BRANCH  11  12
HETATM   12  C   UNL     1     -11.114  14.596  69.359  1.00  0.00    -0.293 C  
BRANCH  12  13
HETATM   13  C   UNL     1     -11.892  13.821  68.307  1.00  0.00    -0.413 C  
BRANCH  13  14
HETATM   14  C   UNL     1     -10.967  13.362  67.188  1.00  0.00    -0.292 C  
BRANCH  14  15
HETATM   15  C   UNL     1     -11.380  11.986  66.685  1.00  0.00    -0.399 C  
BRANCH  15  16
HETATM   16  C   UNL     1     -10.289  10.962  66.969  1.00  0.00    -0.276 C  
BRANCH  16  17
HETATM   17  C   UNL     1     -10.882   9.562  67.082  1.00  0.00    -0.156 C  
BRANCH  17  18
HETATM   18  C   UNL     1      -9.910   8.522  66.538  1.00  0.00    -0.342 C  
BRANCH  18  19
HETATM   19  C   UNL     1     -10.278   7.127  67.031  1.00  0.00    -0.339 C  
BRANCH  19  20
HETATM   20  C   UNL     1      -9.942   6.972  68.511  1.00  0.00    -0.158 C  
BRANCH  20  21
HETATM   21  C   UNL     1     -11.060   6.249  69.252  1.00  0.00    -0.461 C  
BRANCH  21  22
HETATM   22  C   UNL     1     -10.507   5.376  70.371  1.00  0.00    -0.275 C  
HETATM   23  O   UNL     1      -9.119   5.633  70.541  1.00  0.00    -0.141 OA 
HETATM   24  H   UNL     1      -8.775   5.089  71.239  1.00  0.00     0.000 HD 
ENDBRANCH  21  22
ENDBRANCH  20  21
ENDBRANCH  19  20
ENDBRANCH  18  19
ENDBRANCH  17  18
ENDBRANCH  16  17
ENDBRANCH  15  16
ENDBRANCH  14  15
ENDBRANCH  13  14
ENDBRANCH  12  13
ENDBRANCH  11  12
ENDBRANCH  10  11
ENDBRANCH   9  10
ENDBRANCH   8   9
ENDBRANCH   7   8
ENDBRANCH   6   7
ENDBRANCH   5   6
ENDBRANCH   4   5
ENDBRANCH   3   4
ENDBRANCH   2   3
TORSDOF 20
ENDMDL
MODEL       85
REMARK 921   NORMALIZED FREE ENERGY PREDICTED BY IDOCK:   -3.84 KCAL/MOL
REMARK 922        TOTAL FREE ENERGY PREDICTED BY IDOCK:  -11.21 KCAL/MOL
REMARK 923 INTER-LIGAND FREE ENERGY PREDICTED BY IDOCK:   -8.74 KCAL/MOL
REMARK 924 INTRA-LIGAND FREE ENERGY PREDICTED BY IDOCK:   -2.47 KCAL/MOL
REMARK 927      BINDING AFFINITY PREDICTED BY RF-SCORE:    0.00 PKD
ROOT
HETATM    1  C   UNL     1      -9.985   4.839  70.772  1.00  0.00    -0.291 C  
HETATM    2  C   UNL     1     -10.732   5.759  69.822  1.00  0.00    -0.418 C  
ENDROOT
BRANCH   2   3
HETATM    3  C   UNL     1     -11.669   6.692  70.583  1.00  0.00    -0.452 C  
BRANCH   3   4
HETATM    4  C   UNL     1     -11.032   7.171  71.884  1.00  0.00    -0.262 C  
BRANCH   4   5
HETATM    5  C   UNL     1     -11.292   8.659  72.098  1.00  0.00    -0.434 C  
BRANCH   5   6
HETATM    6  C   UNL     1     -12.787   8.960  72.052  1.00  0.00    -0.456 C  
BRANCH   6   7
HETATM    7  C   UNL     1     -13.033  10.388  71.582  1.00  0.00    -0.581 C  
BRANCH   7   8
HETATM    8  C   UNL     1     -12.239  10.680  70.315  1.00  0.00    -0.417 C  
BRANCH   8   9
HETATM    9  C   UNL     1     -11.921  12.166  70.213  1.00  0.00    -0.389 C  
BRANCH   9  10
HETATM   10  C   UNL     1     -11.900  12.609  68.757  1.00  0.00    -0.341 C  
BRANCH  10  11
HETATM   11  C   UNL     1     -11.673  14.111  68.658  1.00  0.00    -0.385 C  
BRANCH  11  12
HETATM   12  C   UNL     1     -11.471  14.526  67.208  1.00  0.00    -0.381 C  
BRANCH  12  13
HETATM   13  C   UNL     1     -12.075  13.493  66.270  1.00  0.00    -0.476 C  
BRANCH  13  14
HETATM   14  C   UNL     1     -12.306  14.094  64.889  1.00  0.00    -0.446 C  
BRANCH  14  15
HETATM   15  C   UNL     1     -11.908  13.106  63.803  1.00  0.00    -0.546 C  
BRANCH  15  16
HETATM   16  C   UNL     1     -10.465  12.655  63.992  1.00  0.00    -0.443 C  
BRANCH  16  17
HETATM   17  C   UNL     1     -10.251  11.271  63.391  1.00  0.00    -0.454 C  
BRANCH  17  18
HETATM   18  C   UNL     1      -9.577  10.346  64.397  1.00  0.00    -0.375 C  
BRANCH  18  19
HETATM   19  C   UNL     1     -10.199  10.504  65.780  1.00  0.00    -0.310 C  
BRANCH  19  20
HETATM   20  C   UNL     1      -9.118  10.602  66.851  1.00  0.00    -0.168 C  
BRANCH  20  21
HETATM   21  C   UNL     1      -8.619  12.035  66.996  1.00  0.00    -0.185 C  
BRANCH  21  22
HETATM   22  C   UNL     1      -8.126  12.308  68.411  1.00  0.00    -0.151 C  
HETATM   23  O   UNL     1      -8.572  11.278  69.283  1.00  0.00    -0.377 OA 
HETATM   24  H   UNL     1      -8.264  11.449  70.166  1.00  0.00     0.000 HD 
ENDBRANCH  21  22
ENDBRANCH  20  21
ENDBRANCH  19  20
ENDBRANCH  18  19
ENDBRANCH  17  18
ENDBRANCH  16  17
ENDBRANCH  15  16
ENDBRANCH  14  15
ENDBRANCH  13  14
ENDBRANCH  12  13
ENDBRANCH  11  12
ENDBRANCH  10  11
ENDBRANCH   9  10
ENDBRANCH   8   9
ENDBRANCH   7   8
ENDBRANCH   6   7
ENDBRANCH   5   6
ENDBRANCH   4   5
ENDBRANCH   3   4
ENDBRANCH   2   3
TORSDOF 20
ENDMDL
MODEL       86
REMARK 921   NORMALIZED FREE ENERGY PREDICTED BY IDOCK:   -3.84 KCAL/MOL
REMARK 922        TOTAL FREE ENERGY PREDICTED BY IDOCK:  -11.20 KCAL/MOL
REMARK 923 INTER-LIGAND FREE ENERGY PREDICTED BY IDOCK:   -8.27 KCAL/MOL
REMARK 924 INTRA-LIGAND FREE ENERGY PREDICTED BY IDOCK:   -2.93 KCAL/MOL
REMARK 927      BINDING AFFINITY PREDICTED BY RF-SCORE:    0.00 PKD
ROOT
HETATM    1  C   UNL     1     -11.921  15.596  69.042  1.00  0.00    -0.323 C  
HETATM    2  C   UNL     1     -10.522  15.809  69.594  1.00  0.00    -0.289 C  
ENDROOT
BRANCH   2   3
HETATM    3  C   UNL     1      -9.632  16.518  68.577  1.00  0.00    -0.233 C  
BRANCH   3   4
HETATM    4  C   UNL     1     -10.457  17.096  67.432  1.00  0.00    -0.334 C  
BRANCH   4   5
HETATM    5  C   UNL     1      -9.854  16.713  66.084  1.00  0.00    -0.340 C  
BRANCH   5   6
HETATM    6  C   UNL     1     -10.876  15.979  65.221  1.00  0.00    -0.376 C  
BRANCH   6   7
HETATM    7  C   UNL     1     -10.939  14.504  65.598  1.00  0.00    -0.323 C  
BRANCH   7   8
HETATM    8  C   UNL     1     -12.270  13.898  65.173  1.00  0.00    -0.443 C  
BRANCH   8   9
HETATM    9  C   UNL     1     -12.075  12.940  64.006  1.00  0.00    -0.526 C  
BRANCH   9  10
HETATM   10  C   UNL     1     -10.618  12.512  63.903  1.00  0.00    -0.472 C  
BRANCH  10  11
HETATM   11  C   UNL     1     -10.460  11.053  64.306  1.00  0.00    -0.427 C  
BRANCH  11  12
HETATM   12  C   UNL     1      -9.228  10.872  65.181  1.00  0.00    -0.240 C  
BRANCH  12  13
HETATM   13  C   UNL     1      -9.541  11.235  66.624  1.00  0.00    -0.218 C  
BRANCH  13  14
HETATM   14  C   UNL     1     -10.815  10.541  67.086  1.00  0.00    -0.319 C  
BRANCH  14  15
HETATM   15  C   UNL     1     -11.725  11.522  67.811  1.00  0.00    -0.299 C  
BRANCH  15  16
HETATM   16  C   UNL     1     -11.046  12.055  69.066  1.00  0.00    -0.291 C  
BRANCH  16  17
HETATM   17  C   UNL     1     -12.003  12.020  70.252  1.00  0.00    -0.398 C  
BRANCH  17  18
HETATM   18  C   UNL     1     -12.531  10.607  70.474  1.00  0.00    -0.445 C  
BRANCH  18  19
HETATM   19  C   UNL     1     -11.564   9.795  71.329  1.00  0.00    -0.465 C  
BRANCH  19  20
HETATM   20  C   UNL     1     -10.968   8.645  70.524  1.00  0.00    -0.266 C  
BRANCH  20  21
HETATM   21  C   UNL     1     -11.021   7.341  71.312  1.00  0.00    -0.264 C  
BRANCH  21  22
HETATM   22  C   UNL     1     -11.074   6.135  70.384  1.00  0.00    -0.352 C  
HETATM   23  O   UNL     1     -11.764   6.478  69.189  1.00  0.00    -0.623 OA 
HETATM   24  H   UNL     1     -11.797   5.725  68.610  1.00  0.00     0.000 HD 
ENDBRANCH  21  22
ENDBRANCH  20  21
ENDBRANCH  19  20
ENDBRANCH  18  19
ENDBRANCH  17  18
ENDBRANCH  16  17
ENDBRANCH  15  16
ENDBRANCH  14  15
ENDBRANCH  13  14
ENDBRANCH  12  13
ENDBRANCH  11  12
ENDBRANCH  10  11
ENDBRANCH   9  10
ENDBRANCH   8   9
ENDBRANCH   7   8
ENDBRANCH   6   7
ENDBRANCH   5   6
ENDBRANCH   4   5
ENDBRANCH   3   4
ENDBRANCH   2   3
TORSDOF 20
ENDMDL
MODEL       87
REMARK 921   NORMALIZED FREE ENERGY PREDICTED BY IDOCK:   -3.83 KCAL/MOL
REMARK 922        TOTAL FREE ENERGY PREDICTED BY IDOCK:  -11.18 KCAL/MOL
REMARK 923 INTER-LIGAND FREE ENERGY PREDICTED BY IDOCK:   -7.97 KCAL/MOL
REMARK 924 INTRA-LIGAND FREE ENERGY PREDICTED BY IDOCK:   -3.21 KCAL/MOL
REMARK 927      BINDING AFFINITY PREDICTED BY RF-SCORE:    0.00 PKD
ROOT
HETATM    1  C   UNL     1     -10.550   5.659  69.815  1.00  0.00    -0.400 C  
HETATM    2  C   UNL     1     -10.650   7.159  69.594  1.00  0.00    -0.249 C  
ENDROOT
BRANCH   2   3
HETATM    3  C   UNL     1      -9.664   7.912  70.482  1.00  0.00    -0.174 C  
BRANCH   3   4
HETATM    4  C   UNL     1     -10.375   8.975  71.315  1.00  0.00    -0.383 C  
BRANCH   4   5
HETATM    5  C   UNL     1     -11.867   9.003  70.996  1.00  0.00    -0.339 C  
BRANCH   5   6
HETATM    6  C   UNL     1     -12.529  10.236  71.602  1.00  0.00    -0.491 C  
BRANCH   6   7
HETATM    7  C   UNL     1     -12.260  11.467  70.746  1.00  0.00    -0.475 C  
BRANCH   7   8
HETATM    8  C   UNL     1     -12.183  11.088  69.273  1.00  0.00    -0.280 C  
BRANCH   8   9
HETATM    9  C   UNL     1     -11.844  12.306  68.423  1.00  0.00    -0.358 C  
BRANCH   9  10
HETATM   10  C   UNL     1     -11.647  13.533  69.302  1.00  0.00    -0.369 C  
BRANCH  10  11
HETATM   11  C   UNL     1     -10.634  14.481  68.676  1.00  0.00    -0.255 C  
BRANCH  11  12
HETATM   12  C   UNL     1     -10.405  14.127  67.213  1.00  0.00    -0.267 C  
BRANCH  12  13
HETATM   13  C   UNL     1      -8.923  13.919  66.942  1.00  0.00    -0.236 C  
BRANCH  13  14
HETATM   14  C   UNL     1      -8.287  13.086  68.047  1.00  0.00    -0.169 C  
BRANCH  14  15
HETATM   15  C   UNL     1      -7.760  11.773  67.489  1.00  0.00    -0.143 C  
BRANCH  15  16
HETATM   16  C   UNL     1      -8.553  10.598  68.047  1.00  0.00    -0.122 C  
BRANCH  16  17
HETATM   17  C   UNL     1      -9.574  10.105  67.028  1.00  0.00    -0.209 C  
BRANCH  17  18
HETATM   18  C   UNL     1      -8.876   9.568  65.785  1.00  0.00    -0.193 C  
BRANCH  18  19
HETATM   19  C   UNL     1      -9.302  10.346  64.544  1.00  0.00    -0.313 C  
BRANCH  19  20
HETATM   20  C   UNL     1     -10.570  11.147  64.819  1.00  0.00    -0.371 C  
BRANCH  20  21
HETATM   21  C   UNL     1     -10.766  12.236  63.771  1.00  0.00    -0.494 C  
BRANCH  21  22
HETATM   22  C   UNL     1     -12.244  12.531  63.549  1.00  0.00    -0.558 C  
HETATM   23  O   UNL     1     -12.415  13.898  63.200  1.00  0.00    -1.121 OA 
HETATM   24  H   UNL     1     -13.336  14.081  63.062  1.00  0.00     0.000 HD 
ENDBRANCH  21  22
ENDBRANCH  20  21
ENDBRANCH  19  20
ENDBRANCH  18  19
ENDBRANCH  17  18
ENDBRANCH  16  17
ENDBRANCH  15  16
ENDBRANCH  14  15
ENDBRANCH  13  14
ENDBRANCH  12  13
ENDBRANCH  11  12
ENDBRANCH  10  11
ENDBRANCH   9  10
ENDBRANCH   8   9
ENDBRANCH   7   8
ENDBRANCH   6   7
ENDBRANCH   5   6
ENDBRANCH   4   5
ENDBRANCH   3   4
ENDBRANCH   2   3
TORSDOF 20
ENDMDL
MODEL       88
REMARK 921   NORMALIZED FREE ENERGY PREDICTED BY IDOCK:   -3.83 KCAL/MOL
REMARK 922        TOTAL FREE ENERGY PREDICTED BY IDOCK:  -11.18 KCAL/MOL
REMARK 923 INTER-LIGAND FREE ENERGY PREDICTED BY IDOCK:   -8.84 KCAL/MOL
REMARK 924 INTRA-LIGAND FREE ENERGY PREDICTED BY IDOCK:   -2.34 KCAL/MOL
REMARK 927      BINDING AFFINITY PREDICTED BY RF-SCORE:    0.00 PKD
ROOT
HETATM    1  C   UNL     1     -13.174  13.581  71.638  1.00  0.00    -0.449 C  
HETATM    2  C   UNL     1     -12.314  12.833  70.634  1.00  0.00    -0.381 C  
ENDROOT
BRANCH   2   3
HETATM    3  C   UNL     1     -12.478  11.323  70.786  1.00  0.00    -0.471 C  
BRANCH   3   4
HETATM    4  C   UNL     1     -13.455  10.987  71.909  1.00  0.00    -0.299 C  
BRANCH   4   5
HETATM    5  C   UNL     1     -13.560   9.476  72.099  1.00  0.00    -0.500 C  
BRANCH   5   6
HETATM    6  C   UNL     1     -12.279   8.782  71.648  1.00  0.00    -0.399 C  
BRANCH   6   7
HETATM    7  C   UNL     1     -11.687   7.954  72.782  1.00  0.00    -0.338 C  
BRANCH   7   8
HETATM    8  C   UNL     1     -10.176   7.840  72.630  1.00  0.00    -0.340 C  
BRANCH   8   9
HETATM    9  C   UNL     1      -9.777   7.916  71.163  1.00  0.00    -0.182 C  
BRANCH   9  10
HETATM   10  C   UNL     1      -9.235   6.576  70.686  1.00  0.00    -0.163 C  
BRANCH  10  11
HETATM   11  C   UNL     1     -10.351   5.733  70.083  1.00  0.00    -0.324 C  
BRANCH  11  12
HETATM   12  C   UNL     1     -11.155   6.550  69.083  1.00  0.00    -0.387 C  
BRANCH  12  13
HETATM   13  C   UNL     1     -10.565   6.416  67.688  1.00  0.00    -0.340 C  
BRANCH  13  14
HETATM   14  C   UNL     1     -10.606   7.752  66.958  1.00  0.00    -0.396 C  
BRANCH  14  15
HETATM   15  C   UNL     1     -10.082   8.865  67.853  1.00  0.00    -0.255 C  
BRANCH  15  16
HETATM   16  C   UNL     1     -10.896  10.138  67.657  1.00  0.00    -0.346 C  
BRANCH  16  17
HETATM   17  C   UNL     1     -10.620  10.748  66.288  1.00  0.00    -0.257 C  
BRANCH  17  18
HETATM   18  C   UNL     1     -11.630  11.846  65.975  1.00  0.00    -0.296 C  
BRANCH  18  19
HETATM   19  C   UNL     1     -11.578  12.946  67.029  1.00  0.00    -0.419 C  
BRANCH  19  20
HETATM   20  C   UNL     1     -10.581  14.029  66.630  1.00  0.00    -0.274 C  
BRANCH  20  21
HETATM   21  C   UNL     1     -11.290  15.220  65.999  1.00  0.00    -0.162 C  
BRANCH  21  22
HETATM   22  C   UNL     1     -11.330  15.099  64.481  1.00  0.00    -0.290 C  
HETATM   23  O   UNL     1     -11.525  16.383  63.901  1.00  0.00    -1.569 OA 
HETATM   24  H   UNL     1     -11.550  16.307  62.955  1.00  0.00     0.000 HD 
ENDBRANCH  21  22
ENDBRANCH  20  21
ENDBRANCH  19  20
ENDBRANCH  18  19
ENDBRANCH  17  18
ENDBRANCH  16  17
ENDBRANCH  15  16
ENDBRANCH  14  15
ENDBRANCH  13  14
ENDBRANCH  12  13
ENDBRANCH  11  12
ENDBRANCH  10  11
ENDBRANCH   9  10
ENDBRANCH   8   9
ENDBRANCH   7   8
ENDBRANCH   6   7
ENDBRANCH   5   6
ENDBRANCH   4   5
ENDBRANCH   3   4
ENDBRANCH   2   3
TORSDOF 20
ENDMDL
MODEL       89
REMARK 921   NORMALIZED FREE ENERGY PREDICTED BY IDOCK:   -3.83 KCAL/MOL
REMARK 922        TOTAL FREE ENERGY PREDICTED BY IDOCK:  -11.17 KCAL/MOL
REMARK 923 INTER-LIGAND FREE ENERGY PREDICTED BY IDOCK:   -8.40 KCAL/MOL
REMARK 924 INTRA-LIGAND FREE ENERGY PREDICTED BY IDOCK:   -2.77 KCAL/MOL
REMARK 927      BINDING AFFINITY PREDICTED BY RF-SCORE:    0.00 PKD
ROOT
HETATM    1  C   UNL     1     -12.908  14.085  65.329  1.00  0.00    -0.418 C  
HETATM    2  C   UNL     1     -12.691  12.656  64.860  1.00  0.00    -0.450 C  
ENDROOT
BRANCH   2   3
HETATM    3  C   UNL     1     -11.773  12.610  63.642  1.00  0.00    -0.597 C  
BRANCH   3   4
HETATM    4  C   UNL     1     -10.318  12.407  64.058  1.00  0.00    -0.435 C  
BRANCH   4   5
HETATM    5  C   UNL     1      -9.840  11.008  63.683  1.00  0.00    -0.397 C  
BRANCH   5   6
HETATM    6  C   UNL     1      -9.909  10.071  64.884  1.00  0.00    -0.352 C  
BRANCH   6   7
HETATM    7  C   UNL     1      -9.684  10.839  66.180  1.00  0.00    -0.253 C  
BRANCH   7   8
HETATM    8  C   UNL     1     -10.656  10.374  67.256  1.00  0.00    -0.322 C  
BRANCH   8   9
HETATM    9  C   UNL     1      -9.934  10.172  68.581  1.00  0.00    -0.181 C  
BRANCH   9  10
HETATM   10  C   UNL     1     -10.874  10.435  69.749  1.00  0.00    -0.342 C  
BRANCH  10  11
HETATM   11  C   UNL     1     -12.033  11.320  69.312  1.00  0.00    -0.411 C  
BRANCH  11  12
HETATM   12  C   UNL     1     -11.840  12.741  69.822  1.00  0.00    -0.380 C  
BRANCH  12  13
HETATM   13  C   UNL     1     -11.943  13.737  68.677  1.00  0.00    -0.401 C  
BRANCH  13  14
HETATM   14  C   UNL     1     -10.711  14.632  68.633  1.00  0.00    -0.252 C  
BRANCH  14  15
HETATM   15  C   UNL     1      -9.835  14.277  67.441  1.00  0.00    -0.235 C  
BRANCH  15  16
HETATM   16  C   UNL     1      -9.837  15.406  66.419  1.00  0.00    -0.301 C  
BRANCH  16  17
HETATM   17  C   UNL     1     -10.531  16.641  66.983  1.00  0.00    -0.283 C  
BRANCH  17  18
HETATM   18  C   UNL     1      -9.983  17.907  66.337  1.00  0.00    -0.358 C  
BRANCH  18  19
HETATM   19  C   UNL     1     -10.735  19.138  66.833  1.00  0.00    -0.515 C  
BRANCH  19  20
HETATM   20  C   UNL     1      -9.954  19.837  67.941  1.00  0.00    -0.539 C  
BRANCH  20  21
HETATM   21  C   UNL     1      -8.458  19.819  67.650  1.00  0.00    -0.361 C  
BRANCH  21  22
HETATM   22  C   UNL     1      -7.663  19.365  68.868  1.00  0.00    -0.347 C  
HETATM   23  O   UNL     1      -7.409  17.969  68.783  1.00  0.00    -0.270 OA 
HETATM   24  H   UNL     1      -6.914  17.686  69.543  1.00  0.00     0.000 HD 
ENDBRANCH  21  22
ENDBRANCH  20  21
ENDBRANCH  19  20
ENDBRANCH  18  19
ENDBRANCH  17  18
ENDBRANCH  16  17
ENDBRANCH  15  16
ENDBRANCH  14  15
ENDBRANCH  13  14
ENDBRANCH  12  13
ENDBRANCH  11  12
ENDBRANCH  10  11
ENDBRANCH   9  10
ENDBRANCH   8   9
ENDBRANCH   7   8
ENDBRANCH   6   7
ENDBRANCH   5   6
ENDBRANCH   4   5
ENDBRANCH   3   4
ENDBRANCH   2   3
TORSDOF 20
ENDMDL
MODEL       90
REMARK 921   NORMALIZED FREE ENERGY PREDICTED BY IDOCK:   -3.82 KCAL/MOL
REMARK 922        TOTAL FREE ENERGY PREDICTED BY IDOCK:  -11.16 KCAL/MOL
REMARK 923 INTER-LIGAND FREE ENERGY PREDICTED BY IDOCK:   -9.12 KCAL/MOL
REMARK 924 INTRA-LIGAND FREE ENERGY PREDICTED BY IDOCK:   -2.04 KCAL/MOL
REMARK 927      BINDING AFFINITY PREDICTED BY RF-SCORE:    0.00 PKD
ROOT
HETATM    1  C   UNL     1      -9.688  11.473  63.195  1.00  0.00    -0.412 C  
HETATM    2  C   UNL     1     -10.639  11.024  64.291  1.00  0.00    -0.402 C  
ENDROOT
BRANCH   2   3
HETATM    3  C   UNL     1      -9.898  10.808  65.607  1.00  0.00    -0.299 C  
BRANCH   3   4
HETATM    4  C   UNL     1      -9.608   9.328  65.839  1.00  0.00    -0.345 C  
BRANCH   4   5
HETATM    5  C   UNL     1     -10.388   8.806  67.042  1.00  0.00    -0.353 C  
BRANCH   5   6
HETATM    6  C   UNL     1      -9.451   8.175  68.065  1.00  0.00    -0.155 C  
BRANCH   6   7
HETATM    7  C   UNL     1      -8.606   9.242  68.751  1.00  0.00    -0.131 C  
BRANCH   7   8
HETATM    8  C   UNL     1      -9.456  10.061  69.714  1.00  0.00    -0.239 C  
BRANCH   8   9
HETATM    9  C   UNL     1      -9.809   9.241  70.948  1.00  0.00    -0.363 C  
BRANCH   9  10
HETATM   10  C   UNL     1     -11.231   9.540  71.400  1.00  0.00    -0.452 C  
BRANCH  10  11
HETATM   11  C   UNL     1     -11.901  10.517  70.444  1.00  0.00    -0.431 C  
BRANCH  11  12
HETATM   12  C   UNL     1     -12.694  11.561  71.217  1.00  0.00    -0.469 C  
BRANCH  12  13
HETATM   13  C   UNL     1     -12.381  12.957  70.702  1.00  0.00    -0.385 C  
BRANCH  13  14
HETATM   14  C   UNL     1     -13.258  13.993  71.394  1.00  0.00    -0.404 C  
BRANCH  14  15
HETATM   15  C   UNL     1     -12.950  15.388  70.871  1.00  0.00    -0.539 C  
BRANCH  15  16
HETATM   16  C   UNL     1     -12.079  15.312  69.623  1.00  0.00    -0.342 C  
BRANCH  16  17
HETATM   17  C   UNL     1     -10.881  16.246  69.746  1.00  0.00    -0.356 C  
BRANCH  17  18
HETATM   18  C   UNL     1     -10.171  16.389  68.405  1.00  0.00    -0.259 C  
BRANCH  18  19
HETATM   19  C   UNL     1     -10.691  15.362  67.405  1.00  0.00    -0.296 C  
BRANCH  19  20
HETATM   20  C   UNL     1     -10.344  15.775  65.978  1.00  0.00    -0.356 C  
BRANCH  20  21
HETATM   21  C   UNL     1     -10.543  14.616  65.010  1.00  0.00    -0.461 C  
BRANCH  21  22
HETATM   22  C   UNL     1     -11.911  14.680  64.343  1.00  0.00    -0.437 C  
HETATM   23  O   UNL     1     -12.078  15.941  63.708  1.00  0.00    -1.239 OA 
HETATM   24  H   UNL     1     -12.932  15.981  63.293  1.00  0.00     0.000 HD 
ENDBRANCH  21  22
ENDBRANCH  20  21
ENDBRANCH  19  20
ENDBRANCH  18  19
ENDBRANCH  17  18
ENDBRANCH  16  17
ENDBRANCH  15  16
ENDBRANCH  14  15
ENDBRANCH  13  14
ENDBRANCH  12  13
ENDBRANCH  11  12
ENDBRANCH  10  11
ENDBRANCH   9  10
ENDBRANCH   8   9
ENDBRANCH   7   8
ENDBRANCH   6   7
ENDBRANCH   5   6
ENDBRANCH   4   5
ENDBRANCH   3   4
ENDBRANCH   2   3
TORSDOF 20
ENDMDL
MODEL       91
REMARK 921   NORMALIZED FREE ENERGY PREDICTED BY IDOCK:   -3.82 KCAL/MOL
REMARK 922        TOTAL FREE ENERGY PREDICTED BY IDOCK:  -11.15 KCAL/MOL
REMARK 923 INTER-LIGAND FREE ENERGY PREDICTED BY IDOCK:   -8.43 KCAL/MOL
REMARK 924 INTRA-LIGAND FREE ENERGY PREDICTED BY IDOCK:   -2.72 KCAL/MOL
REMARK 927      BINDING AFFINITY PREDICTED BY RF-SCORE:    0.00 PKD
ROOT
HETATM    1  C   UNL     1     -10.173   8.448  72.246  1.00  0.00    -0.396 C  
HETATM    2  C   UNL     1     -11.564   7.993  72.651  1.00  0.00    -0.448 C  
ENDROOT
BRANCH   2   3
HETATM    3  C   UNL     1     -12.213   7.161  71.549  1.00  0.00    -0.396 C  
BRANCH   3   4
HETATM    4  C   UNL     1     -11.201   6.218  70.904  1.00  0.00    -0.386 C  
BRANCH   4   5
HETATM    5  C   UNL     1     -11.396   6.170  69.391  1.00  0.00    -0.401 C  
BRANCH   5   6
HETATM    6  C   UNL     1     -10.059   6.290  68.668  1.00  0.00    -0.185 C  
BRANCH   6   7
HETATM    7  C   UNL     1     -10.053   7.502  67.745  1.00  0.00    -0.235 C  
BRANCH   7   8
HETATM    8  C   UNL     1     -10.143   8.791  68.551  1.00  0.00    -0.210 C  
BRANCH   8   9
HETATM    9  C   UNL     1     -10.493   9.966  67.648  1.00  0.00    -0.296 C  
BRANCH   9  10
HETATM   10  C   UNL     1     -11.646  10.767  68.235  1.00  0.00    -0.297 C  
BRANCH  10  11
HETATM   11  C   UNL     1     -11.546  10.811  69.754  1.00  0.00    -0.393 C  
BRANCH  11  12
HETATM   12  C   UNL     1     -12.920  11.030  70.372  1.00  0.00    -0.123 C  
BRANCH  12  13
HETATM   13  C   UNL     1     -12.788  11.628  71.764  1.00  0.00    -0.418 C  
BRANCH  13  14
HETATM   14  C   UNL     1     -13.367  13.036  71.798  1.00  0.00    -0.468 C  
BRANCH  14  15
HETATM   15  C   UNL     1     -12.328  14.051  71.344  1.00  0.00    -0.410 C  
BRANCH  15  16
HETATM   16  C   UNL     1     -12.987  15.176  70.557  1.00  0.00    -0.366 C  
BRANCH  16  17
HETATM   17  C   UNL     1     -12.131  15.567  69.358  1.00  0.00    -0.302 C  
BRANCH  17  18
HETATM   18  C   UNL     1     -11.058  14.516  69.098  1.00  0.00    -0.284 C  
BRANCH  18  19
HETATM   19  C   UNL     1     -11.163  13.973  67.678  1.00  0.00    -0.317 C  
BRANCH  19  20
HETATM   20  C   UNL     1     -11.978  14.915  66.798  1.00  0.00    -0.106 C  
BRANCH  20  21
HETATM   21  C   UNL     1     -12.569  14.175  65.605  1.00  0.00    -0.495 C  
BRANCH  21  22
HETATM   22  C   UNL     1     -11.626  14.212  64.409  1.00  0.00    -0.362 C  
HETATM   23  O   UNL     1     -12.367  14.045  63.207  1.00  0.00    -1.133 OA 
HETATM   24  H   UNL     1     -11.778  14.068  62.462  1.00  0.00     0.000 HD 
ENDBRANCH  21  22
ENDBRANCH  20  21
ENDBRANCH  19  20
ENDBRANCH  18  19
ENDBRANCH  17  18
ENDBRANCH  16  17
ENDBRANCH  15  16
ENDBRANCH  14  15
ENDBRANCH  13  14
ENDBRANCH  12  13
ENDBRANCH  11  12
ENDBRANCH  10  11
ENDBRANCH   9  10
ENDBRANCH   8   9
ENDBRANCH   7   8
ENDBRANCH   6   7
ENDBRANCH   5   6
ENDBRANCH   4   5
ENDBRANCH   3   4
ENDBRANCH   2   3
TORSDOF 20
ENDMDL
MODEL       92
REMARK 921   NORMALIZED FREE ENERGY PREDICTED BY IDOCK:   -3.82 KCAL/MOL
REMARK 922        TOTAL FREE ENERGY PREDICTED BY IDOCK:  -11.15 KCAL/MOL
REMARK 923 INTER-LIGAND FREE ENERGY PREDICTED BY IDOCK:   -8.52 KCAL/MOL
REMARK 924 INTRA-LIGAND FREE ENERGY PREDICTED BY IDOCK:   -2.62 KCAL/MOL
REMARK 927      BINDING AFFINITY PREDICTED BY RF-SCORE:    0.00 PKD
ROOT
HETATM    1  C   UNL     1     -12.959  10.413  71.668  1.00  0.00    -0.581 C  
HETATM    2  C   UNL     1     -11.800  10.342  70.688  1.00  0.00    -0.445 C  
ENDROOT
BRANCH   2   3
HETATM    3  C   UNL     1     -11.992  11.328  69.539  1.00  0.00    -0.421 C  
BRANCH   3   4
HETATM    4  C   UNL     1     -11.386  10.789  68.246  1.00  0.00    -0.376 C  
BRANCH   4   5
HETATM    5  C   UNL     1     -10.784  11.921  67.419  1.00  0.00    -0.271 C  
BRANCH   5   6
HETATM    6  C   UNL     1     -11.648  12.219  66.197  1.00  0.00    -0.450 C  
BRANCH   6   7
HETATM    7  C   UNL     1     -12.256  13.613  66.296  1.00  0.00    -0.484 C  
BRANCH   7   8
HETATM    8  C   UNL     1     -12.385  14.240  64.914  1.00  0.00    -0.435 C  
BRANCH   8   9
HETATM    9  C   UNL     1     -11.269  15.250  64.677  1.00  0.00    -0.366 C  
BRANCH   9  10
HETATM   10  C   UNL     1     -10.762  15.806  66.000  1.00  0.00    -0.311 C  
BRANCH  10  11
HETATM   11  C   UNL     1     -10.228  17.220  65.815  1.00  0.00    -0.212 C  
BRANCH  11  12
HETATM   12  C   UNL     1     -10.621  18.097  66.995  1.00  0.00    -0.346 C  
BRANCH  12  13
HETATM   13  C   UNL     1     -10.555  19.567  66.611  1.00  0.00    -0.583 C  
BRANCH  13  14
HETATM   14  C   UNL     1      -9.665  20.334  67.580  1.00  0.00    -0.575 C  
BRANCH  14  15
HETATM   15  C   UNL     1      -9.046  19.389  68.599  1.00  0.00    -0.423 C  
BRANCH  15  16
HETATM   16  C   UNL     1      -7.526  19.456  68.539  1.00  0.00    -0.366 C  
BRANCH  16  17
HETATM   17  C   UNL     1      -6.949  18.145  68.018  1.00  0.00    -0.217 C  
BRANCH  17  18
HETATM   18  C   UNL     1      -7.233  17.008  68.992  1.00  0.00    -0.229 C  
BRANCH  18  19
HETATM   19  C   UNL     1      -7.978  15.872  68.299  1.00  0.00    -0.139 C  
BRANCH  19  20
HETATM   20  C   UNL     1      -8.777  15.055  69.309  1.00  0.00    -0.161 C  
BRANCH  20  21
HETATM   21  C   UNL     1     -10.063  15.773  69.698  1.00  0.00    -0.289 C  
BRANCH  21  22
HETATM   22  C   UNL     1     -11.213  14.790  69.877  1.00  0.00    -0.257 C  
HETATM   23  O   UNL     1     -12.422  15.375  69.411  1.00  0.00    -0.588 OA 
HETATM   24  H   UNL     1     -13.139  14.762  69.522  1.00  0.00     0.000 HD 
ENDBRANCH  21  22
ENDBRANCH  20  21
ENDBRANCH  19  20
ENDBRANCH  18  19
ENDBRANCH  17  18
ENDBRANCH  16  17
ENDBRANCH  15  16
ENDBRANCH  14  15
ENDBRANCH  13  14
ENDBRANCH  12  13
ENDBRANCH  11  12
ENDBRANCH  10  11
ENDBRANCH   9  10
ENDBRANCH   8   9
ENDBRANCH   7   8
ENDBRANCH   6   7
ENDBRANCH   5   6
ENDBRANCH   4   5
ENDBRANCH   3   4
ENDBRANCH   2   3
TORSDOF 20
ENDMDL
MODEL       93
REMARK 921   NORMALIZED FREE ENERGY PREDICTED BY IDOCK:   -3.82 KCAL/MOL
REMARK 922        TOTAL FREE ENERGY PREDICTED BY IDOCK:  -11.15 KCAL/MOL
REMARK 923 INTER-LIGAND FREE ENERGY PREDICTED BY IDOCK:   -7.30 KCAL/MOL
REMARK 924 INTRA-LIGAND FREE ENERGY PREDICTED BY IDOCK:   -3.85 KCAL/MOL
REMARK 927      BINDING AFFINITY PREDICTED BY RF-SCORE:    0.00 PKD
ROOT
HETATM    1  C   UNL     1     -12.081  14.583  64.599  1.00  0.00    -0.486 C  
HETATM    2  C   UNL     1     -12.510  13.781  65.816  1.00  0.00    -0.527 C  
ENDROOT
BRANCH   2   3
HETATM    3  C   UNL     1     -11.779  12.443  65.878  1.00  0.00    -0.476 C  
BRANCH   3   4
HETATM    4  C   UNL     1     -11.886  11.822  67.267  1.00  0.00    -0.186 C  
BRANCH   4   5
HETATM    5  C   UNL     1     -12.003  12.905  68.336  1.00  0.00    -0.289 C  
BRANCH   5   6
HETATM    6  C   UNL     1     -11.884  12.304  69.733  1.00  0.00    -0.388 C  
BRANCH   6   7
HETATM    7  C   UNL     1     -12.134  10.802  69.696  1.00  0.00    -0.361 C  
BRANCH   7   8
HETATM    8  C   UNL     1     -11.339  10.099  70.788  1.00  0.00    -0.436 C  
BRANCH   8   9
HETATM    9  C   UNL     1     -10.071   9.481  70.215  1.00  0.00    -0.314 C  
BRANCH   9  10
HETATM   10  C   UNL     1     -10.404   8.246  69.390  1.00  0.00    -0.223 C  
BRANCH  10  11
HETATM   11  C   UNL     1      -9.491   8.153  68.175  1.00  0.00    -0.150 C  
BRANCH  11  12
HETATM   12  C   UNL     1     -10.253   8.511  66.907  1.00  0.00    -0.375 C  
BRANCH  12  13
HETATM   13  C   UNL     1      -9.414   9.417  66.019  1.00  0.00    -0.304 C  
BRANCH  13  14
HETATM   14  C   UNL     1      -8.280  10.047  66.817  1.00  0.00    -0.121 C  
BRANCH  14  15
HETATM   15  C   UNL     1      -8.269  11.556  66.628  1.00  0.00    -0.156 C  
BRANCH  15  16
HETATM   16  C   UNL     1      -8.283  12.265  67.976  1.00  0.00    -0.163 C  
BRANCH  16  17
HETATM   17  C   UNL     1      -7.960  13.745  67.810  1.00  0.00    -0.170 C  
BRANCH  17  18
HETATM   18  C   UNL     1      -9.024  14.435  66.965  1.00  0.00    -0.257 C  
BRANCH  18  19
HETATM   19  C   UNL     1      -9.565  15.671  67.676  1.00  0.00    -0.220 C  
BRANCH  19  20
HETATM   20  C   UNL     1      -9.884  15.358  69.134  1.00  0.00    -0.247 C  
BRANCH  20  21
HETATM   21  C   UNL     1     -10.807  16.413  69.730  1.00  0.00    -0.343 C  
BRANCH  21  22
HETATM   22  C   UNL     1     -11.712  15.815  70.800  1.00  0.00    -0.399 C  
HETATM   23  O   UNL     1     -13.067  15.879  70.374  1.00  0.00    -0.712 OA 
HETATM   24  H   UNL     1     -13.631  15.506  71.041  1.00  0.00     0.000 HD 
ENDBRANCH  21  22
ENDBRANCH  20  21
ENDBRANCH  19  20
ENDBRANCH  18  19
ENDBRANCH  17  18
ENDBRANCH  16  17
ENDBRANCH  15  16
ENDBRANCH  14  15
ENDBRANCH  13  14
ENDBRANCH  12  13
ENDBRANCH  11  12
ENDBRANCH  10  11
ENDBRANCH   9  10
ENDBRANCH   8   9
ENDBRANCH   7   8
ENDBRANCH   6   7
ENDBRANCH   5   6
ENDBRANCH   4   5
ENDBRANCH   3   4
ENDBRANCH   2   3
TORSDOF 20
ENDMDL
MODEL       94
REMARK 921   NORMALIZED FREE ENERGY PREDICTED BY IDOCK:   -3.80 KCAL/MOL
REMARK 922        TOTAL FREE ENERGY PREDICTED BY IDOCK:  -11.11 KCAL/MOL
REMARK 923 INTER-LIGAND FREE ENERGY PREDICTED BY IDOCK:   -8.31 KCAL/MOL
REMARK 924 INTRA-LIGAND FREE ENERGY PREDICTED BY IDOCK:   -2.80 KCAL/MOL
REMARK 927      BINDING AFFINITY PREDICTED BY RF-SCORE:    0.00 PKD
ROOT
HETATM    1  C   UNL     1     -13.318   9.933  71.449  1.00  0.00    -0.447 C  
HETATM    2  C   UNL     1     -13.965   8.748  72.144  1.00  0.00    -0.522 C  
ENDROOT
BRANCH   2   3
HETATM    3  C   UNL     1     -13.592   7.437  71.458  1.00  0.00    -0.454 C  
BRANCH   3   4
HETATM    4  C   UNL     1     -12.094   7.371  71.175  1.00  0.00    -0.357 C  
BRANCH   4   5
HETATM    5  C   UNL     1     -11.336   6.863  72.398  1.00  0.00    -0.308 C  
BRANCH   5   6
HETATM    6  C   UNL     1     -10.300   7.884  72.857  1.00  0.00    -0.413 C  
BRANCH   6   7
HETATM    7  C   UNL     1      -9.917   8.814  71.712  1.00  0.00    -0.396 C  
BRANCH   7   8
HETATM    8  C   UNL     1      -8.437   8.676  71.381  1.00  0.00    -0.240 C  
BRANCH   8   9
HETATM    9  C   UNL     1      -8.025   9.697  70.329  1.00  0.00    -0.198 C  
BRANCH   9  10
HETATM   10  C   UNL     1      -7.374   9.006  69.139  1.00  0.00    -0.072 C  
BRANCH  10  11
HETATM   11  C   UNL     1      -7.596   7.501  69.209  1.00  0.00    -0.100 C  
BRANCH  11  12
HETATM   12  C   UNL     1      -8.350   7.016  67.979  1.00  0.00    -0.119 C  
BRANCH  12  13
HETATM   13  C   UNL     1      -9.848   7.007  68.242  1.00  0.00    -0.150 C  
BRANCH  13  14
HETATM   14  C   UNL     1     -10.562   7.970  67.303  1.00  0.00    -0.360 C  
BRANCH  14  15
HETATM   15  C   UNL     1     -10.798   9.308  67.988  1.00  0.00    -0.166 C  
BRANCH  15  16
HETATM   16  C   UNL     1     -10.432  10.457  67.058  1.00  0.00    -0.309 C  
BRANCH  16  17
HETATM   17  C   UNL     1      -9.958   9.928  65.709  1.00  0.00    -0.347 C  
BRANCH  17  18
HETATM   18  C   UNL     1      -9.520  11.075  64.806  1.00  0.00    -0.267 C  
BRANCH  18  19
HETATM   19  C   UNL     1     -10.664  12.060  64.587  1.00  0.00    -0.355 C  
BRANCH  19  20
HETATM   20  C   UNL     1     -10.186  13.495  64.785  1.00  0.00    -0.355 C  
BRANCH  20  21
HETATM   21  C   UNL     1     -11.344  14.409  65.165  1.00  0.00    -0.359 C  
BRANCH  21  22
HETATM   22  C   UNL     1     -10.966  15.876  65.005  1.00  0.00    -0.412 C  
HETATM   23  O   UNL     1     -11.567  16.402  63.829  1.00  0.00    -1.605 OA 
HETATM   24  H   UNL     1     -11.331  17.316  63.729  1.00  0.00     0.000 HD 
ENDBRANCH  21  22
ENDBRANCH  20  21
ENDBRANCH  19  20
ENDBRANCH  18  19
ENDBRANCH  17  18
ENDBRANCH  16  17
ENDBRANCH  15  16
ENDBRANCH  14  15
ENDBRANCH  13  14
ENDBRANCH  12  13
ENDBRANCH  11  12
ENDBRANCH  10  11
ENDBRANCH   9  10
ENDBRANCH   8   9
ENDBRANCH   7   8
ENDBRANCH   6   7
ENDBRANCH   5   6
ENDBRANCH   4   5
ENDBRANCH   3   4
ENDBRANCH   2   3
TORSDOF 20
ENDMDL
MODEL       95
REMARK 921   NORMALIZED FREE ENERGY PREDICTED BY IDOCK:   -3.80 KCAL/MOL
REMARK 922        TOTAL FREE ENERGY PREDICTED BY IDOCK:  -11.10 KCAL/MOL
REMARK 923 INTER-LIGAND FREE ENERGY PREDICTED BY IDOCK:   -8.13 KCAL/MOL
REMARK 924 INTRA-LIGAND FREE ENERGY PREDICTED BY IDOCK:   -2.97 KCAL/MOL
REMARK 927      BINDING AFFINITY PREDICTED BY RF-SCORE:    0.00 PKD
ROOT
HETATM    1  C   UNL     1     -10.576  11.505  63.663  1.00  0.00    -0.491 C  
HETATM    2  C   UNL     1     -11.888  12.253  63.504  1.00  0.00    -0.601 C  
ENDROOT
BRANCH   2   3
HETATM    3  C   UNL     1     -12.503  12.580  64.862  1.00  0.00    -0.524 C  
BRANCH   3   4
HETATM    4  C   UNL     1     -12.605  14.088  65.071  1.00  0.00    -0.416 C  
BRANCH   4   5
HETATM    5  C   UNL     1     -11.694  14.539  66.209  1.00  0.00    -0.364 C  
BRANCH   5   6
HETATM    6  C   UNL     1     -10.280  14.800  65.701  1.00  0.00    -0.382 C  
BRANCH   6   7
HETATM    7  C   UNL     1      -9.253  14.112  66.592  1.00  0.00    -0.272 C  
BRANCH   7   8
HETATM    8  C   UNL     1      -9.913  13.571  67.853  1.00  0.00    -0.245 C  
BRANCH   8   9
HETATM    9  C   UNL     1      -9.696  12.069  67.971  1.00  0.00    -0.198 C  
BRANCH   9  10
HETATM   10  C   UNL     1     -11.027  11.347  68.128  1.00  0.00    -0.284 C  
BRANCH  10  11
HETATM   11  C   UNL     1     -10.946   9.944  67.542  1.00  0.00    -0.239 C  
BRANCH  11  12
HETATM   12  C   UNL     1      -9.494   9.532  67.344  1.00  0.00    -0.164 C  
BRANCH  12  13
HETATM   13  C   UNL     1      -9.389   8.028  67.146  1.00  0.00    -0.186 C  
BRANCH  13  14
HETATM   14  C   UNL     1     -10.773   7.412  66.983  1.00  0.00    -0.389 C  
BRANCH  14  15
HETATM   15  C   UNL     1     -10.838   6.056  67.671  1.00  0.00    -0.386 C  
BRANCH  15  16
HETATM   16  C   UNL     1      -9.883   6.011  68.857  1.00  0.00    -0.173 C  
BRANCH  16  17
HETATM   17  C   UNL     1     -10.647   6.152  70.169  1.00  0.00    -0.321 C  
BRANCH  17  18
HETATM   18  C   UNL     1     -10.197   7.398  70.922  1.00  0.00    -0.195 C  
BRANCH  18  19
HETATM   19  C   UNL     1     -11.365   8.030  71.671  1.00  0.00    -0.306 C  
BRANCH  19  20
HETATM   20  C   UNL     1     -11.405   9.536  71.437  1.00  0.00    -0.462 C  
BRANCH  20  21
HETATM   21  C   UNL     1     -12.787  10.101  71.742  1.00  0.00    -0.554 C  
BRANCH  21  22
HETATM   22  C   UNL     1     -12.862  11.586  71.415  1.00  0.00    -0.384 C  
HETATM   23  O   UNL     1     -13.492  12.283  72.482  1.00  0.00    -0.594 OA 
HETATM   24  H   UNL     1     -13.539  13.209  72.278  1.00  0.00     0.000 HD 
ENDBRANCH  21  22
ENDBRANCH  20  21
ENDBRANCH  19  20
ENDBRANCH  18  19
ENDBRANCH  17  18
ENDBRANCH  16  17
ENDBRANCH  15  16
ENDBRANCH  14  15
ENDBRANCH  13  14
ENDBRANCH  12  13
ENDBRANCH  11  12
ENDBRANCH  10  11
ENDBRANCH   9  10
ENDBRANCH   8   9
ENDBRANCH   7   8
ENDBRANCH   6   7
ENDBRANCH   5   6
ENDBRANCH   4   5
ENDBRANCH   3   4
ENDBRANCH   2   3
TORSDOF 20
ENDMDL
MODEL       96
REMARK 921   NORMALIZED FREE ENERGY PREDICTED BY IDOCK:   -3.79 KCAL/MOL
REMARK 922        TOTAL FREE ENERGY PREDICTED BY IDOCK:  -11.09 KCAL/MOL
REMARK 923 INTER-LIGAND FREE ENERGY PREDICTED BY IDOCK:   -7.87 KCAL/MOL
REMARK 924 INTRA-LIGAND FREE ENERGY PREDICTED BY IDOCK:   -3.23 KCAL/MOL
REMARK 927      BINDING AFFINITY PREDICTED BY RF-SCORE:    0.00 PKD
ROOT
HETATM    1  C   UNL     1     -11.574  12.250  68.794  1.00  0.00    -0.380 C  
HETATM    2  C   UNL     1     -11.690  12.477  67.296  1.00  0.00    -0.431 C  
ENDROOT
BRANCH   2   3
HETATM    3  C   UNL     1     -12.361  13.814  66.994  1.00  0.00    -0.289 C  
BRANCH   3   4
HETATM    4  C   UNL     1     -12.451  14.057  65.490  1.00  0.00    -0.533 C  
BRANCH   4   5
HETATM    5  C   UNL     1     -12.784  12.763  64.753  1.00  0.00    -0.469 C  
BRANCH   5   6
HETATM    6  C   UNL     1     -11.942  12.627  63.488  1.00  0.00    -0.630 C  
BRANCH   6   7
HETATM    7  C   UNL     1     -10.464  12.499  63.837  1.00  0.00    -0.464 C  
BRANCH   7   8
HETATM    8  C   UNL     1      -9.817  11.381  63.031  1.00  0.00    -0.373 C  
BRANCH   8   9
HETATM    9  C   UNL     1      -9.701  10.114  63.869  1.00  0.00    -0.236 C  
BRANCH   9  10
HETATM   10  C   UNL     1      -9.943  10.422  65.340  1.00  0.00    -0.362 C  
BRANCH  10  11
HETATM   11  C   UNL     1      -9.739   9.174  66.187  1.00  0.00    -0.357 C  
BRANCH  11  12
HETATM   12  C   UNL     1      -8.827   9.475  67.369  1.00  0.00    -0.134 C  
BRANCH  12  13
HETATM   13  C   UNL     1      -7.780  10.507  66.983  1.00  0.00    -0.110 C  
BRANCH  13  14
HETATM   14  C   UNL     1      -7.679  11.591  68.048  1.00  0.00    -0.119 C  
BRANCH  14  15
HETATM   15  C   UNL     1      -8.024  12.951  67.461  1.00  0.00    -0.178 C  
BRANCH  15  16
HETATM   16  C   UNL     1      -8.318  13.954  68.568  1.00  0.00    -0.132 C  
BRANCH  16  17
HETATM   17  C   UNL     1      -8.792  15.280  67.983  1.00  0.00    -0.169 C  
BRANCH  17  18
HETATM   18  C   UNL     1      -8.845  15.206  66.461  1.00  0.00    -0.312 C  
BRANCH  18  19
HETATM   19  C   UNL     1      -9.665  16.358  65.891  1.00  0.00    -0.327 C  
BRANCH  19  20
HETATM   20  C   UNL     1      -9.202  17.690  66.472  1.00  0.00    -0.286 C  
BRANCH  20  21
HETATM   21  C   UNL     1     -10.389  18.530  66.928  1.00  0.00    -0.431 C  
BRANCH  21  22
HETATM   22  C   UNL     1     -10.520  19.799  66.095  1.00  0.00    -0.509 C  
HETATM   23  O   UNL     1      -9.510  20.727  66.471  1.00  0.00    -0.636 OA 
HETATM   24  H   UNL     1      -9.592  21.518  65.951  1.00  0.00     0.000 HD 
ENDBRANCH  21  22
ENDBRANCH  20  21
ENDBRANCH  19  20
ENDBRANCH  18  19
ENDBRANCH  17  18
ENDBRANCH  16  17
ENDBRANCH  15  16
ENDBRANCH  14  15
ENDBRANCH  13  14
ENDBRANCH  12  13
ENDBRANCH  11  12
ENDBRANCH  10  11
ENDBRANCH   9  10
ENDBRANCH   8   9
ENDBRANCH   7   8
ENDBRANCH   6   7
ENDBRANCH   5   6
ENDBRANCH   4   5
ENDBRANCH   3   4
ENDBRANCH   2   3
TORSDOF 20
ENDMDL
MODEL       97
REMARK 921   NORMALIZED FREE ENERGY PREDICTED BY IDOCK:   -3.79 KCAL/MOL
REMARK 922        TOTAL FREE ENERGY PREDICTED BY IDOCK:  -11.09 KCAL/MOL
REMARK 923 INTER-LIGAND FREE ENERGY PREDICTED BY IDOCK:   -8.45 KCAL/MOL
REMARK 924 INTRA-LIGAND FREE ENERGY PREDICTED BY IDOCK:   -2.64 KCAL/MOL
REMARK 927      BINDING AFFINITY PREDICTED BY RF-SCORE:    0.00 PKD
ROOT
HETATM    1  C   UNL     1      -9.892   9.620  65.907  1.00  0.00    -0.358 C  
HETATM    2  C   UNL     1     -10.340   8.682  67.014  1.00  0.00    -0.368 C  
ENDROOT
BRANCH   2   3
HETATM    3  C   UNL     1      -9.945   7.240  66.707  1.00  0.00    -0.287 C  
BRANCH   3   4
HETATM    4  C   UNL     1     -11.036   6.266  67.142  1.00  0.00    -0.389 C  
BRANCH   4   5
HETATM    5  C   UNL     1     -11.124   6.198  68.663  1.00  0.00    -0.378 C  
BRANCH   5   6
HETATM    6  C   UNL     1     -10.143   5.170  69.218  1.00  0.00    -0.283 C  
BRANCH   6   7
HETATM    7  C   UNL     1      -8.959   5.860  69.884  1.00  0.00    -0.144 C  
BRANCH   7   8
HETATM    8  C   UNL     1      -9.102   5.824  71.400  1.00  0.00    -0.150 C  
BRANCH   8   9
HETATM    9  C   UNL     1     -10.043   4.704  71.824  1.00  0.00    -0.261 C  
BRANCH   9  10
HETATM   10  C   UNL     1     -11.028   5.201  72.872  1.00  0.00    -0.345 C  
BRANCH  10  11
HETATM   11  C   UNL     1     -11.194   6.711  72.776  1.00  0.00    -0.263 C  
BRANCH  11  12
HETATM   12  C   UNL     1     -12.477   7.061  72.035  1.00  0.00    -0.279 C  
BRANCH  12  13
HETATM   13  C   UNL     1     -12.403   8.475  71.481  1.00  0.00    -0.354 C  
BRANCH  13  14
HETATM   14  C   UNL     1     -10.996   9.038  71.634  1.00  0.00    -0.435 C  
BRANCH  14  15
HETATM   15  C   UNL     1     -10.539   9.692  70.338  1.00  0.00    -0.354 C  
BRANCH  15  16
HETATM   16  C   UNL     1     -11.544  10.743  69.885  1.00  0.00    -0.410 C  
BRANCH  16  17
HETATM   17  C   UNL     1     -10.864  11.805  69.030  1.00  0.00    -0.239 C  
BRANCH  17  18
HETATM   18  C   UNL     1     -11.895  12.754  68.431  1.00  0.00    -0.353 C  
BRANCH  18  19
HETATM   19  C   UNL     1     -11.365  13.393  67.152  1.00  0.00    -0.344 C  
BRANCH  19  20
HETATM   20  C   UNL     1     -11.511  12.438  65.972  1.00  0.00    -0.431 C  
BRANCH  20  21
HETATM   21  C   UNL     1     -12.604  12.907  65.020  1.00  0.00    -0.538 C  
BRANCH  21  22
HETATM   22  C   UNL     1     -12.019  13.382  63.697  1.00  0.00    -0.446 C  
HETATM   23  O   UNL     1     -12.384  14.737  63.468  1.00  0.00    -1.037 OA 
HETATM   24  H   UNL     1     -12.019  15.033  62.642  1.00  0.00     0.000 HD 
ENDBRANCH  21  22
ENDBRANCH  20  21
ENDBRANCH  19  20
ENDBRANCH  18  19
ENDBRANCH  17  18
ENDBRANCH  16  17
ENDBRANCH  15  16
ENDBRANCH  14  15
ENDBRANCH  13  14
ENDBRANCH  12  13
ENDBRANCH  11  12
ENDBRANCH  10  11
ENDBRANCH   9  10
ENDBRANCH   8   9
ENDBRANCH   7   8
ENDBRANCH   6   7
ENDBRANCH   5   6
ENDBRANCH   4   5
ENDBRANCH   3   4
ENDBRANCH   2   3
TORSDOF 20
ENDMDL
MODEL       98
REMARK 921   NORMALIZED FREE ENERGY PREDICTED BY IDOCK:   -3.79 KCAL/MOL
REMARK 922        TOTAL FREE ENERGY PREDICTED BY IDOCK:  -11.09 KCAL/MOL
REMARK 923 INTER-LIGAND FREE ENERGY PREDICTED BY IDOCK:   -8.29 KCAL/MOL
REMARK 924 INTRA-LIGAND FREE ENERGY PREDICTED BY IDOCK:   -2.80 KCAL/MOL
REMARK 927      BINDING AFFINITY PREDICTED BY RF-SCORE:    0.00 PKD
ROOT
HETATM    1  C   UNL     1      -8.786   9.809  68.398  1.00  0.00    -0.120 C  
HETATM    2  C   UNL     1      -9.402   8.807  69.359  1.00  0.00    -0.157 C  
ENDROOT
BRANCH   2   3
HETATM    3  C   UNL     1      -9.291   9.289  70.802  1.00  0.00    -0.322 C  
BRANCH   3   4
HETATM    4  C   UNL     1      -9.233   8.113  71.773  1.00  0.00    -0.232 C  
BRANCH   4   5
HETATM    5  C   UNL     1     -10.345   8.215  72.812  1.00  0.00    -0.384 C  
BRANCH   5   6
HETATM    6  C   UNL     1     -11.147   6.919  72.877  1.00  0.00    -0.297 C  
BRANCH   6   7
HETATM    7  C   UNL     1     -11.376   6.357  71.480  1.00  0.00    -0.346 C  
BRANCH   7   8
HETATM    8  C   UNL     1     -12.570   7.033  70.819  1.00  0.00    -0.195 C  
BRANCH   8   9
HETATM    9  C   UNL     1     -13.746   7.108  71.783  1.00  0.00    -0.361 C  
BRANCH   9  10
HETATM   10  C   UNL     1     -14.203   8.549  71.958  1.00  0.00    -0.535 C  
BRANCH  10  11
HETATM   11  C   UNL     1     -13.322   9.491  71.149  1.00  0.00    -0.314 C  
BRANCH  11  12
HETATM   12  C   UNL     1     -13.131  10.808  71.887  1.00  0.00    -0.557 C  
BRANCH  12  13
HETATM   13  C   UNL     1     -12.397  11.809  71.008  1.00  0.00    -0.386 C  
BRANCH  13  14
HETATM   14  C   UNL     1     -12.254  11.273  69.590  1.00  0.00    -0.340 C  
BRANCH  14  15
HETATM   15  C   UNL     1     -11.552  12.291  68.703  1.00  0.00    -0.372 C  
BRANCH  15  16
HETATM   16  C   UNL     1     -11.624  13.681  69.322  1.00  0.00    -0.363 C  
BRANCH  16  17
HETATM   17  C   UNL     1     -10.644  14.626  68.637  1.00  0.00    -0.252 C  
BRANCH  17  18
HETATM   18  C   UNL     1     -11.303  15.314  67.447  1.00  0.00    -0.285 C  
BRANCH  18  19
HETATM   19  C   UNL     1     -10.287  15.572  66.339  1.00  0.00    -0.303 C  
BRANCH  19  20
HETATM   20  C   UNL     1     -10.698  14.860  65.055  1.00  0.00    -0.451 C  
BRANCH  20  21
HETATM   21  C   UNL     1     -10.949  13.378  65.308  1.00  0.00    -0.306 C  
BRANCH  21  22
HETATM   22  C   UNL     1     -11.788  12.762  64.195  1.00  0.00    -0.413 C  
HETATM   23  O   UNL     1     -12.381  13.791  63.414  1.00  0.00    -1.001 OA 
HETATM   24  H   UNL     1     -12.904  13.406  62.720  1.00  0.00     0.000 HD 
ENDBRANCH  21  22
ENDBRANCH  20  21
ENDBRANCH  19  20
ENDBRANCH  18  19
ENDBRANCH  17  18
ENDBRANCH  16  17
ENDBRANCH  15  16
ENDBRANCH  14  15
ENDBRANCH  13  14
ENDBRANCH  12  13
ENDBRANCH  11  12
ENDBRANCH  10  11
ENDBRANCH   9  10
ENDBRANCH   8   9
ENDBRANCH   7   8
ENDBRANCH   6   7
ENDBRANCH   5   6
ENDBRANCH   4   5
ENDBRANCH   3   4
ENDBRANCH   2   3
TORSDOF 20
ENDMDL
MODEL       99
REMARK 921   NORMALIZED FREE ENERGY PREDICTED BY IDOCK:   -3.78 KCAL/MOL
REMARK 922        TOTAL FREE ENERGY PREDICTED BY IDOCK:  -11.08 KCAL/MOL
REMARK 923 INTER-LIGAND FREE ENERGY PREDICTED BY IDOCK:   -9.13 KCAL/MOL
REMARK 924 INTRA-LIGAND FREE ENERGY PREDICTED BY IDOCK:   -1.95 KCAL/MOL
REMARK 927      BINDING AFFINITY PREDICTED BY RF-SCORE:    0.00 PKD
ROOT
HETATM    1  C   UNL     1     -10.480  19.752  67.851  1.00  0.00    -0.531 C  
HETATM    2  C   UNL     1      -9.617  18.597  68.330  1.00  0.00    -0.382 C  
ENDROOT
BRANCH   2   3
HETATM    3  C   UNL     1      -9.328  17.619  67.194  1.00  0.00    -0.245 C  
BRANCH   3   4
HETATM    4  C   UNL     1     -10.389  17.717  66.101  1.00  0.00    -0.334 C  
BRANCH   4   5
HETATM    5  C   UNL     1     -10.598  16.363  65.430  1.00  0.00    -0.338 C  
BRANCH   5   6
HETATM    6  C   UNL     1      -9.713  15.297  66.069  1.00  0.00    -0.367 C  
BRANCH   6   7
HETATM    7  C   UNL     1     -10.530  14.063  66.428  1.00  0.00    -0.284 C  
BRANCH   7   8
HETATM    8  C   UNL     1     -12.015  14.318  66.202  1.00  0.00    -0.422 C  
BRANCH   8   9
HETATM    9  C   UNL     1     -12.628  13.205  65.363  1.00  0.00    -0.512 C  
BRANCH   9  10
HETATM   10  C   UNL     1     -12.025  13.195  63.966  1.00  0.00    -0.524 C  
BRANCH  10  11
HETATM   11  C   UNL     1     -11.660  11.776  63.553  1.00  0.00    -0.487 C  
BRANCH  11  12
HETATM   12  C   UNL     1     -10.151  11.632  63.413  1.00  0.00    -0.468 C  
BRANCH  12  13
HETATM   13  C   UNL     1      -9.660  10.409  64.172  1.00  0.00    -0.381 C  
BRANCH  13  14
HETATM   14  C   UNL     1      -9.848  10.597  65.671  1.00  0.00    -0.307 C  
BRANCH  14  15
HETATM   15  C   UNL     1     -10.052   9.255  66.357  1.00  0.00    -0.337 C  
BRANCH  15  16
HETATM   16  C   UNL     1     -10.603   9.450  67.763  1.00  0.00    -0.317 C  
BRANCH  16  17
HETATM   17  C   UNL     1      -9.473   9.475  68.786  1.00  0.00    -0.147 C  
BRANCH  17  18
HETATM   18  C   UNL     1      -9.756   8.502  69.924  1.00  0.00    -0.179 C  
BRANCH  18  19
HETATM   19  C   UNL     1      -9.874   9.241  71.252  1.00  0.00    -0.318 C  
BRANCH  19  20
HETATM   20  C   UNL     1     -11.216   8.949  71.915  1.00  0.00    -0.447 C  
BRANCH  20  21
HETATM   21  C   UNL     1     -12.317   9.824  71.329  1.00  0.00    -0.465 C  
BRANCH  21  22
HETATM   22  C   UNL     1     -13.639   9.610  72.055  1.00  0.00    -0.385 C  
HETATM   23  O   UNL     1     -13.437   8.771  73.185  1.00  0.00    -0.953 OA 
HETATM   24  H   UNL     1     -14.261   8.638  73.637  1.00  0.00     0.000 HD 
ENDBRANCH  21  22
ENDBRANCH  20  21
ENDBRANCH  19  20
ENDBRANCH  18  19
ENDBRANCH  17  18
ENDBRANCH  16  17
ENDBRANCH  15  16
ENDBRANCH  14  15
ENDBRANCH  13  14
ENDBRANCH  12  13
ENDBRANCH  11  12
ENDBRANCH  10  11
ENDBRANCH   9  10
ENDBRANCH   8   9
ENDBRANCH   7   8
ENDBRANCH   6   7
ENDBRANCH   5   6
ENDBRANCH   4   5
ENDBRANCH   3   4
ENDBRANCH   2   3
TORSDOF 20
ENDMDL
MODEL      100
REMARK 921   NORMALIZED FREE ENERGY PREDICTED BY IDOCK:   -3.77 KCAL/MOL
REMARK 922        TOTAL FREE ENERGY PREDICTED BY IDOCK:  -11.05 KCAL/MOL
REMARK 923 INTER-LIGAND FREE ENERGY PREDICTED BY IDOCK:   -8.31 KCAL/MOL
REMARK 924 INTRA-LIGAND FREE ENERGY PREDICTED BY IDOCK:   -2.75 KCAL/MOL
REMARK 927      BINDING AFFINITY PREDICTED BY RF-SCORE:    0.00 PKD
ROOT
HETATM    1  C   UNL     1      -9.561   9.956  69.998  1.00  0.00    -0.260 C  
HETATM    2  C   UNL     1     -10.864   9.767  69.240  1.00  0.00    -0.240 C  
ENDROOT
BRANCH   2   3
HETATM    3  C   UNL     1     -11.972  10.636  69.826  1.00  0.00    -0.363 C  
BRANCH   3   4
HETATM    4  C   UNL     1     -12.291  10.228  71.261  1.00  0.00    -0.506 C  
BRANCH   4   5
HETATM    5  C   UNL     1     -13.262  11.215  71.901  1.00  0.00    -0.488 C  
BRANCH   5   6
HETATM    6  C   UNL     1     -12.953  12.643  71.462  1.00  0.00    -0.380 C  
BRANCH   6   7
HETATM    7  C   UNL     1     -13.668  13.648  72.357  1.00  0.00    -0.697 C  
BRANCH   7   8
HETATM    8  C   UNL     1     -12.921  14.975  72.375  1.00  0.00    -0.444 C  
BRANCH   8   9
HETATM    9  C   UNL     1     -12.871  15.581  70.979  1.00  0.00    -0.543 C  
BRANCH   9  10
HETATM   10  C   UNL     1     -11.471  15.458  70.393  1.00  0.00    -0.355 C  
BRANCH  10  11
HETATM   11  C   UNL     1     -11.510  14.699  69.074  1.00  0.00    -0.317 C  
BRANCH  11  12
HETATM   12  C   UNL     1     -10.333  13.739  68.976  1.00  0.00    -0.081 C  
BRANCH  12  13
HETATM   13  C   UNL     1      -9.157  14.407  68.280  1.00  0.00    -0.193 C  
BRANCH  13  14
HETATM   14  C   UNL     1      -8.720  13.594  67.068  1.00  0.00    -0.204 C  
BRANCH  14  15
HETATM   15  C   UNL     1      -9.594  12.359  66.911  1.00  0.00    -0.219 C  
BRANCH  15  16
HETATM   16  C   UNL     1     -10.329  12.388  65.578  1.00  0.00    -0.298 C  
BRANCH  16  17
HETATM   17  C   UNL     1     -11.833  12.505  65.795  1.00  0.00    -0.494 C  
BRANCH  17  18
HETATM   18  C   UNL     1     -12.272  13.964  65.747  1.00  0.00    -0.488 C  
BRANCH  18  19
HETATM   19  C   UNL     1     -12.251  14.489  64.316  1.00  0.00    -0.441 C  
BRANCH  19  20
HETATM   20  C   UNL     1     -11.517  15.823  64.241  1.00  0.00    -0.203 C  
BRANCH  20  21
HETATM   21  C   UNL     1     -10.684  16.060  65.495  1.00  0.00    -0.374 C  
BRANCH  21  22
HETATM   22  C   UNL     1     -10.635  17.539  65.855  1.00  0.00    -0.203 C  
HETATM   23  O   UNL     1      -9.288  17.994  65.838  1.00  0.00    -0.520 OA 
HETATM   24  H   UNL     1      -9.258  18.916  66.063  1.00  0.00     0.000 HD 
ENDBRANCH  21  22
ENDBRANCH  20  21
ENDBRANCH  19  20
ENDBRANCH  18  19
ENDBRANCH  17  18
ENDBRANCH  16  17
ENDBRANCH  15  16
ENDBRANCH  14  15
ENDBRANCH  13  14
ENDBRANCH  12  13
ENDBRANCH  11  12
ENDBRANCH  10  11
ENDBRANCH   9  10
ENDBRANCH   8   9
ENDBRANCH   7   8
ENDBRANCH   6   7
ENDBRANCH   5   6
ENDBRANCH   4   5
ENDBRANCH   3   4
ENDBRANCH   2   3
TORSDOF 20
ENDMDL
MODEL      101
REMARK 921   NORMALIZED FREE ENERGY PREDICTED BY IDOCK:   -3.76 KCAL/MOL
REMARK 922        TOTAL FREE ENERGY PREDICTED BY IDOCK:  -11.02 KCAL/MOL
REMARK 923 INTER-LIGAND FREE ENERGY PREDICTED BY IDOCK:   -8.55 KCAL/MOL
REMARK 924 INTRA-LIGAND FREE ENERGY PREDICTED BY IDOCK:   -2.47 KCAL/MOL
REMARK 927      BINDING AFFINITY PREDICTED BY RF-SCORE:    0.00 PKD
ROOT
HETATM    1  C   UNL     1      -6.845  18.527  66.079  1.00  0.00    -0.303 C  
HETATM    2  C   UNL     1      -7.223  19.998  66.116  1.00  0.00    -0.310 C  
ENDROOT
BRANCH   2   3
HETATM    3  C   UNL     1      -8.471  20.223  66.964  1.00  0.00    -0.388 C  
BRANCH   3   4
HETATM    4  C   UNL     1      -9.738  19.933  66.165  1.00  0.00    -0.527 C  
BRANCH   4   5
HETATM    5  C   UNL     1     -10.721  19.109  66.992  1.00  0.00    -0.542 C  
BRANCH   5   6
HETATM    6  C   UNL     1     -10.238  18.973  68.432  1.00  0.00    -0.450 C  
BRANCH   6   7
HETATM    7  C   UNL     1     -10.249  17.512  68.867  1.00  0.00    -0.353 C  
BRANCH   7   8
HETATM    8  C   UNL     1     -10.601  16.606  67.694  1.00  0.00    -0.321 C  
BRANCH   8   9
HETATM    9  C   UNL     1      -9.416  15.725  67.322  1.00  0.00    -0.217 C  
BRANCH   9  10
HETATM   10  C   UNL     1      -9.376  15.490  65.819  1.00  0.00    -0.292 C  
BRANCH  10  11
HETATM   11  C   UNL     1     -10.747  15.735  65.203  1.00  0.00    -0.455 C  
BRANCH  11  12
HETATM   12  C   UNL     1     -11.322  14.438  64.651  1.00  0.00    -0.373 C  
BRANCH  12  13
HETATM   13  C   UNL     1     -12.310  13.833  65.636  1.00  0.00    -0.517 C  
BRANCH  13  14
HETATM   14  C   UNL     1     -12.019  12.352  65.845  1.00  0.00    -0.434 C  
BRANCH  14  15
HETATM   15  C   UNL     1     -10.715  12.168  66.608  1.00  0.00    -0.281 C  
BRANCH  15  16
HETATM   16  C   UNL     1     -10.870  12.628  68.052  1.00  0.00    -0.249 C  
BRANCH  16  17
HETATM   17  C   UNL     1     -12.002  11.874  68.739  1.00  0.00    -0.307 C  
BRANCH  17  18
HETATM   18  C   UNL     1     -11.478  10.606  69.403  1.00  0.00    -0.356 C  
BRANCH  18  19
HETATM   19  C   UNL     1     -11.719  10.643  70.908  1.00  0.00    -0.387 C  
BRANCH  19  20
HETATM   20  C   UNL     1     -12.608   9.482  71.340  1.00  0.00    -0.447 C  
BRANCH  20  21
HETATM   21  C   UNL     1     -11.824   8.472  72.169  1.00  0.00    -0.448 C  
BRANCH  21  22
HETATM   22  C   UNL     1     -12.070   7.049  71.684  1.00  0.00    -0.347 C  
HETATM   23  O   UNL     1     -11.047   6.191  72.173  1.00  0.00    -0.247 OA 
HETATM   24  H   UNL     1     -11.200   5.303  71.871  1.00  0.00     0.000 HD 
ENDBRANCH  21  22
ENDBRANCH  20  21
ENDBRANCH  19  20
ENDBRANCH  18  19
ENDBRANCH  17  18
ENDBRANCH  16  17
ENDBRANCH  15  16
ENDBRANCH  14  15
ENDBRANCH  13  14
ENDBRANCH  12  13
ENDBRANCH  11  12
ENDBRANCH  10  11
ENDBRANCH   9  10
ENDBRANCH   8   9
ENDBRANCH   7   8
ENDBRANCH   6   7
ENDBRANCH   5   6
ENDBRANCH   4   5
ENDBRANCH   3   4
ENDBRANCH   2   3
TORSDOF 20
ENDMDL
MODEL      102
REMARK 921   NORMALIZED FREE ENERGY PREDICTED BY IDOCK:   -3.76 KCAL/MOL
REMARK 922        TOTAL FREE ENERGY PREDICTED BY IDOCK:  -11.02 KCAL/MOL
REMARK 923 INTER-LIGAND FREE ENERGY PREDICTED BY IDOCK:   -8.97 KCAL/MOL
REMARK 924 INTRA-LIGAND FREE ENERGY PREDICTED BY IDOCK:   -2.05 KCAL/MOL
REMARK 927      BINDING AFFINITY PREDICTED BY RF-SCORE:    0.00 PKD
ROOT
HETATM    1  C   UNL     1      -6.967  20.393  67.465  1.00  0.00    -0.344 C  
HETATM    2  C   UNL     1      -7.319  19.663  68.749  1.00  0.00    -0.371 C  
ENDROOT
BRANCH   2   3
HETATM    3  C   UNL     1      -8.487  18.705  68.534  1.00  0.00    -0.367 C  
BRANCH   3   4
HETATM    4  C   UNL     1      -9.821  19.446  68.577  1.00  0.00    -0.509 C  
BRANCH   4   5
HETATM    5  C   UNL     1     -10.669  19.101  67.357  1.00  0.00    -0.578 C  
BRANCH   5   6
HETATM    6  C   UNL     1      -9.839  18.369  66.307  1.00  0.00    -0.338 C  
BRANCH   6   7
HETATM    7  C   UNL     1     -10.519  17.069  65.895  1.00  0.00    -0.282 C  
BRANCH   7   8
HETATM    8  C   UNL     1     -10.646  16.128  67.086  1.00  0.00    -0.294 C  
BRANCH   8   9
HETATM    9  C   UNL     1     -10.646  14.677  66.625  1.00  0.00    -0.289 C  
BRANCH   9  10
HETATM   10  C   UNL     1     -12.059  14.111  66.640  1.00  0.00    -0.480 C  
BRANCH  10  11
HETATM   11  C   UNL     1     -12.598  13.982  65.223  1.00  0.00    -0.495 C  
BRANCH  11  12
HETATM   12  C   UNL     1     -12.542  12.533  64.760  1.00  0.00    -0.493 C  
BRANCH  12  13
HETATM   13  C   UNL     1     -11.574  12.382  63.598  1.00  0.00    -0.580 C  
BRANCH  13  14
HETATM   14  C   UNL     1     -10.207  11.928  64.094  1.00  0.00    -0.364 C  
BRANCH  14  15
HETATM   15  C   UNL     1     -10.342  10.694  64.973  1.00  0.00    -0.341 C  
BRANCH  15  16
HETATM   16  C   UNL     1      -9.793  10.967  66.367  1.00  0.00    -0.249 C  
BRANCH  16  17
HETATM   17  C   UNL     1     -10.873  10.752  67.422  1.00  0.00    -0.345 C  
BRANCH  17  18
HETATM   18  C   UNL     1     -10.617  11.632  68.640  1.00  0.00    -0.236 C  
BRANCH  18  19
HETATM   19  C   UNL     1     -11.592  11.299  69.764  1.00  0.00    -0.408 C  
BRANCH  19  20
HETATM   20  C   UNL     1     -11.507   9.822  70.132  1.00  0.00    -0.272 C  
BRANCH  20  21
HETATM   21  C   UNL     1     -11.613   9.627  71.640  1.00  0.00    -0.406 C  
BRANCH  21  22
HETATM   22  C   UNL     1     -10.760   8.456  72.108  1.00  0.00    -0.337 C  
HETATM   23  O   UNL     1     -11.424   7.767  73.160  1.00  0.00    -0.588 OA 
HETATM   24  H   UNL     1     -10.891   7.037  73.452  1.00  0.00     0.000 HD 
ENDBRANCH  21  22
ENDBRANCH  20  21
ENDBRANCH  19  20
ENDBRANCH  18  19
ENDBRANCH  17  18
ENDBRANCH  16  17
ENDBRANCH  15  16
ENDBRANCH  14  15
ENDBRANCH  13  14
ENDBRANCH  12  13
ENDBRANCH  11  12
ENDBRANCH  10  11
ENDBRANCH   9  10
ENDBRANCH   8   9
ENDBRANCH   7   8
ENDBRANCH   6   7
ENDBRANCH   5   6
ENDBRANCH   4   5
ENDBRANCH   3   4
ENDBRANCH   2   3
TORSDOF 20
ENDMDL
MODEL      103
REMARK 921   NORMALIZED FREE ENERGY PREDICTED BY IDOCK:   -3.75 KCAL/MOL
REMARK 922        TOTAL FREE ENERGY PREDICTED BY IDOCK:  -11.01 KCAL/MOL
REMARK 923 INTER-LIGAND FREE ENERGY PREDICTED BY IDOCK:   -8.49 KCAL/MOL
REMARK 924 INTRA-LIGAND FREE ENERGY PREDICTED BY IDOCK:   -2.52 KCAL/MOL
REMARK 927      BINDING AFFINITY PREDICTED BY RF-SCORE:    0.00 PKD
ROOT
HETATM    1  C   UNL     1     -14.286   7.475  71.518  1.00  0.00    -0.580 C  
HETATM    2  C   UNL     1     -14.293   8.802  72.257  1.00  0.00    -0.468 C  
ENDROOT
BRANCH   2   3
HETATM    3  C   UNL     1     -12.974   9.544  72.067  1.00  0.00    -0.514 C  
BRANCH   3   4
HETATM    4  C   UNL     1     -12.112   8.871  71.002  1.00  0.00    -0.278 C  
BRANCH   4   5
HETATM    5  C   UNL     1     -10.636   9.187  71.223  1.00  0.00    -0.399 C  
BRANCH   5   6
HETATM    6  C   UNL     1      -9.853   7.920  71.553  1.00  0.00    -0.206 C  
BRANCH   6   7
HETATM    7  C   UNL     1     -10.745   6.691  71.436  1.00  0.00    -0.264 C  
BRANCH   7   8
HETATM    8  C   UNL     1     -10.250   5.771  70.328  1.00  0.00    -0.295 C  
BRANCH   8   9
HETATM    9  C   UNL     1     -10.936   6.103  69.009  1.00  0.00    -0.436 C  
BRANCH   9  10
HETATM   10  C   UNL     1     -10.003   6.898  68.106  1.00  0.00    -0.170 C  
BRANCH  10  11
HETATM   11  C   UNL     1     -10.785   7.927  67.303  1.00  0.00    -0.299 C  
BRANCH  11  12
HETATM   12  C   UNL     1      -9.902   9.118  66.957  1.00  0.00    -0.267 C  
BRANCH  12  13
HETATM   13  C   UNL     1     -10.530  10.409  67.458  1.00  0.00    -0.292 C  
BRANCH  13  14
HETATM   14  C   UNL     1      -9.454  11.387  67.910  1.00  0.00    -0.174 C  
BRANCH  14  15
HETATM   15  C   UNL     1     -10.084  12.622  68.536  1.00  0.00    -0.183 C  
BRANCH  15  16
HETATM   16  C   UNL     1     -11.601  12.573  68.408  1.00  0.00    -0.368 C  
BRANCH  16  17
HETATM   17  C   UNL     1     -12.239  12.156  69.728  1.00  0.00    -0.212 C  
BRANCH  17  18
HETATM   18  C   UNL     1     -12.061  13.246  70.779  1.00  0.00    -0.311 C  
BRANCH  18  19
HETATM   19  C   UNL     1     -12.903  14.471  70.438  1.00  0.00    -0.315 C  
BRANCH  19  20
HETATM   20  C   UNL     1     -12.506  15.658  71.309  1.00  0.00    -0.503 C  
BRANCH  20  21
HETATM   21  C   UNL     1     -11.731  15.199  72.538  1.00  0.00    -0.475 C  
BRANCH  21  22
HETATM   22  C   UNL     1     -12.291  15.822  73.810  1.00  0.00    -0.597 C  
HETATM   23  O   UNL     1     -13.671  16.113  73.636  1.00  0.00    -0.884 OA 
HETATM   24  H   UNL     1     -14.020  16.502  74.429  1.00  0.00     0.000 HD 
ENDBRANCH  21  22
ENDBRANCH  20  21
ENDBRANCH  19  20
ENDBRANCH  18  19
ENDBRANCH  17  18
ENDBRANCH  16  17
ENDBRANCH  15  16
ENDBRANCH  14  15
ENDBRANCH  13  14
ENDBRANCH  12  13
ENDBRANCH  11  12
ENDBRANCH  10  11
ENDBRANCH   9  10
ENDBRANCH   8   9
ENDBRANCH   7   8
ENDBRANCH   6   7
ENDBRANCH   5   6
ENDBRANCH   4   5
ENDBRANCH   3   4
ENDBRANCH   2   3
TORSDOF 20
ENDMDL
MODEL      104
REMARK 921   NORMALIZED FREE ENERGY PREDICTED BY IDOCK:   -3.75 KCAL/MOL
REMARK 922        TOTAL FREE ENERGY PREDICTED BY IDOCK:  -11.00 KCAL/MOL
REMARK 923 INTER-LIGAND FREE ENERGY PREDICTED BY IDOCK:   -8.09 KCAL/MOL
REMARK 924 INTRA-LIGAND FREE ENERGY PREDICTED BY IDOCK:   -2.91 KCAL/MOL
REMARK 927      BINDING AFFINITY PREDICTED BY RF-SCORE:    0.00 PKD
ROOT
HETATM    1  C   UNL     1      -9.895  13.266  67.806  1.00  0.00    -0.224 C  
HETATM    2  C   UNL     1      -9.741  14.018  66.495  1.00  0.00    -0.305 C  
ENDROOT
BRANCH   2   3
HETATM    3  C   UNL     1     -10.980  14.854  66.192  1.00  0.00    -0.334 C  
BRANCH   3   4
HETATM    4  C   UNL     1     -12.197  13.966  65.949  1.00  0.00    -0.497 C  
BRANCH   4   5
HETATM    5  C   UNL     1     -12.375  13.687  64.460  1.00  0.00    -0.402 C  
BRANCH   5   6
HETATM    6  C   UNL     1     -12.108  12.219  64.147  1.00  0.00    -0.525 C  
BRANCH   6   7
HETATM    7  C   UNL     1     -10.799  12.060  63.384  1.00  0.00    -0.471 C  
BRANCH   7   8
HETATM    8  C   UNL     1     -10.076  10.792  63.818  1.00  0.00    -0.391 C  
BRANCH   8   9
HETATM    9  C   UNL     1     -10.180  10.603  65.326  1.00  0.00    -0.351 C  
BRANCH   9  10
HETATM   10  C   UNL     1      -9.308   9.442  65.781  1.00  0.00    -0.301 C  
BRANCH  10  11
HETATM   11  C   UNL     1     -10.104   8.491  66.665  1.00  0.00    -0.364 C  
BRANCH  11  12
HETATM   12  C   UNL     1     -10.759   9.250  67.810  1.00  0.00    -0.270 C  
BRANCH  12  13
HETATM   13  C   UNL     1      -9.850   9.264  69.029  1.00  0.00    -0.168 C  
BRANCH  13  14
HETATM   14  C   UNL     1     -10.299  10.329  70.020  1.00  0.00    -0.255 C  
BRANCH  14  15
HETATM   15  C   UNL     1     -11.740  10.736  69.750  1.00  0.00    -0.399 C  
BRANCH  15  16
HETATM   16  C   UNL     1     -12.433  11.144  71.044  1.00  0.00    -0.506 C  
BRANCH  16  17
HETATM   17  C   UNL     1     -13.446  10.087  71.468  1.00  0.00    -0.375 C  
BRANCH  17  18
HETATM   18  C   UNL     1     -12.756   8.948  72.209  1.00  0.00    -0.464 C  
BRANCH  18  19
HETATM   19  C   UNL     1     -12.921   7.633  71.456  1.00  0.00    -0.378 C  
BRANCH  19  20
HETATM   20  C   UNL     1     -11.587   6.902  71.348  1.00  0.00    -0.340 C  
BRANCH  20  21
HETATM   21  C   UNL     1     -10.680   7.241  72.525  1.00  0.00    -0.301 C  
BRANCH  21  22
HETATM   22  C   UNL     1     -10.756   6.172  73.607  1.00  0.00    -0.214 C  
HETATM   23  O   UNL     1     -11.156   4.935  73.034  1.00  0.00    -0.262 OA 
HETATM   24  H   UNL     1     -11.204   4.268  73.709  1.00  0.00     0.000 HD 
ENDBRANCH  21  22
ENDBRANCH  20  21
ENDBRANCH  19  20
ENDBRANCH  18  19
ENDBRANCH  17  18
ENDBRANCH  16  17
ENDBRANCH  15  16
ENDBRANCH  14  15
ENDBRANCH  13  14
ENDBRANCH  12  13
ENDBRANCH  11  12
ENDBRANCH  10  11
ENDBRANCH   9  10
ENDBRANCH   8   9
ENDBRANCH   7   8
ENDBRANCH   6   7
ENDBRANCH   5   6
ENDBRANCH   4   5
ENDBRANCH   3   4
ENDBRANCH   2   3
TORSDOF 20
ENDMDL
MODEL      105
REMARK 921   NORMALIZED FREE ENERGY PREDICTED BY IDOCK:   -3.75 KCAL/MOL
REMARK 922        TOTAL FREE ENERGY PREDICTED BY IDOCK:  -11.00 KCAL/MOL
REMARK 923 INTER-LIGAND FREE ENERGY PREDICTED BY IDOCK:   -8.86 KCAL/MOL
REMARK 924 INTRA-LIGAND FREE ENERGY PREDICTED BY IDOCK:   -2.14 KCAL/MOL
REMARK 927      BINDING AFFINITY PREDICTED BY RF-SCORE:    0.00 PKD
ROOT
HETATM    1  C   UNL     1     -12.211  12.529  63.380  1.00  0.00    -0.613 C  
HETATM    2  C   UNL     1     -12.471  12.766  64.858  1.00  0.00    -0.563 C  
ENDROOT
BRANCH   2   3
HETATM    3  C   UNL     1     -11.321  12.237  65.710  1.00  0.00    -0.400 C  
BRANCH   3   4
HETATM    4  C   UNL     1     -11.616  12.409  67.198  1.00  0.00    -0.435 C  
BRANCH   4   5
HETATM    5  C   UNL     1     -12.132  13.815  67.488  1.00  0.00    -0.366 C  
BRANCH   5   6
HETATM    6  C   UNL     1     -11.150  14.583  68.367  1.00  0.00    -0.271 C  
BRANCH   6   7
HETATM    7  C   UNL     1     -11.851  15.733  69.079  1.00  0.00    -0.367 C  
BRANCH   7   8
HETATM    8  C   UNL     1     -11.991  15.437  70.566  1.00  0.00    -0.394 C  
BRANCH   8   9
HETATM    9  C   UNL     1     -13.456  15.459  70.981  1.00  0.00    -0.510 C  
BRANCH   9  10
HETATM   10  C   UNL     1     -13.846  14.140  71.634  1.00  0.00    -0.442 C  
BRANCH  10  11
HETATM   11  C   UNL     1     -12.870  13.040  71.241  1.00  0.00    -0.370 C  
BRANCH  11  12
HETATM   12  C   UNL     1     -13.238  11.731  71.925  1.00  0.00    -0.468 C  
BRANCH  12  13
HETATM   13  C   UNL     1     -12.784  10.546  71.087  1.00  0.00    -0.518 C  
BRANCH  13  14
HETATM   14  C   UNL     1     -11.957   9.582  71.926  1.00  0.00    -0.381 C  
BRANCH  14  15
HETATM   15  C   UNL     1     -10.642   9.263  71.231  1.00  0.00    -0.417 C  
BRANCH  15  16
HETATM   16  C   UNL     1     -10.459  10.142  70.001  1.00  0.00    -0.325 C  
BRANCH  16  17
HETATM   17  C   UNL     1      -9.021  10.073  69.499  1.00  0.00    -0.220 C  
BRANCH  17  18
HETATM   18  C   UNL     1      -8.984   9.696  68.023  1.00  0.00    -0.122 C  
BRANCH  18  19
HETATM   19  C   UNL     1      -8.314   8.341  67.826  1.00  0.00    -0.128 C  
BRANCH  19  20
HETATM   20  C   UNL     1      -9.055   7.519  66.777  1.00  0.00    -0.176 C  
BRANCH  20  21
HETATM   21  C   UNL     1     -10.522   7.347  67.154  1.00  0.00    -0.403 C  
BRANCH  21  22
HETATM   22  C   UNL     1     -10.883   5.876  67.309  1.00  0.00    -0.260 C  
HETATM   23  O   UNL     1     -10.965   5.263  66.029  1.00  0.00    -0.713 OA 
HETATM   24  H   UNL     1     -11.191   4.345  66.126  1.00  0.00     0.000 HD 
ENDBRANCH  21  22
ENDBRANCH  20  21
ENDBRANCH  19  20
ENDBRANCH  18  19
ENDBRANCH  17  18
ENDBRANCH  16  17
ENDBRANCH  15  16
ENDBRANCH  14  15
ENDBRANCH  13  14
ENDBRANCH  12  13
ENDBRANCH  11  12
ENDBRANCH  10  11
ENDBRANCH   9  10
ENDBRANCH   8   9
ENDBRANCH   7   8
ENDBRANCH   6   7
ENDBRANCH   5   6
ENDBRANCH   4   5
ENDBRANCH   3   4
ENDBRANCH   2   3
TORSDOF 20
ENDMDL
MODEL      106
REMARK 921   NORMALIZED FREE ENERGY PREDICTED BY IDOCK:   -3.75 KCAL/MOL
REMARK 922        TOTAL FREE ENERGY PREDICTED BY IDOCK:  -11.00 KCAL/MOL
REMARK 923 INTER-LIGAND FREE ENERGY PREDICTED BY IDOCK:   -8.03 KCAL/MOL
REMARK 924 INTRA-LIGAND FREE ENERGY PREDICTED BY IDOCK:   -2.97 KCAL/MOL
REMARK 927      BINDING AFFINITY PREDICTED BY RF-SCORE:    0.00 PKD
ROOT
HETATM    1  C   UNL     1     -10.937  10.488  68.839  1.00  0.00    -0.291 C  
HETATM    2  C   UNL     1     -10.386   9.682  70.004  1.00  0.00    -0.298 C  
ENDROOT
BRANCH   2   3
HETATM    3  C   UNL     1     -11.332   9.728  71.200  1.00  0.00    -0.459 C  
BRANCH   3   4
HETATM    4  C   UNL     1     -12.693  10.293  70.804  1.00  0.00    -0.434 C  
BRANCH   4   5
HETATM    5  C   UNL     1     -13.121  11.396  71.767  1.00  0.00    -0.523 C  
BRANCH   5   6
HETATM    6  C   UNL     1     -12.836  12.773  71.177  1.00  0.00    -0.315 C  
BRANCH   6   7
HETATM    7  C   UNL     1     -13.609  13.851  71.927  1.00  0.00    -0.516 C  
BRANCH   7   8
HETATM    8  C   UNL     1     -13.108  15.236  71.542  1.00  0.00    -0.517 C  
BRANCH   8   9
HETATM    9  C   UNL     1     -11.597  15.227  71.355  1.00  0.00    -0.446 C  
BRANCH   9  10
HETATM   10  C   UNL     1     -11.199  16.101  70.174  1.00  0.00    -0.374 C  
BRANCH  10  11
HETATM   11  C   UNL     1     -11.915  15.648  68.910  1.00  0.00    -0.298 C  
BRANCH  11  12
HETATM   12  C   UNL     1     -11.297  14.362  68.379  1.00  0.00    -0.312 C  
BRANCH  12  13
HETATM   13  C   UNL     1     -12.257  13.662  67.430  1.00  0.00    -0.283 C  
BRANCH  13  14
HETATM   14  C   UNL     1     -11.501  13.048  66.259  1.00  0.00    -0.379 C  
BRANCH  14  15
HETATM   15  C   UNL     1     -10.340  13.941  65.846  1.00  0.00    -0.318 C  
BRANCH  15  16
HETATM   16  C   UNL     1     -10.817  15.034  64.898  1.00  0.00    -0.430 C  
BRANCH  16  17
HETATM   17  C   UNL     1     -10.582  16.412  65.505  1.00  0.00    -0.346 C  
BRANCH  17  18
HETATM   18  C   UNL     1      -9.163  16.525  66.049  1.00  0.00    -0.295 C  
BRANCH  18  19
HETATM   19  C   UNL     1      -9.091  17.559  67.168  1.00  0.00    -0.247 C  
BRANCH  19  20
HETATM   20  C   UNL     1      -8.116  17.113  68.252  1.00  0.00    -0.239 C  
BRANCH  20  21
HETATM   21  C   UNL     1      -7.917  15.603  68.222  1.00  0.00    -0.129 C  
BRANCH  21  22
HETATM   22  C   UNL     1      -6.580  15.234  67.592  1.00  0.00    -0.171 C  
HETATM   23  O   UNL     1      -6.562  13.847  67.279  1.00  0.00    -0.406 OA 
HETATM   24  H   UNL     1      -5.728  13.617  66.887  1.00  0.00     0.000 HD 
ENDBRANCH  21  22
ENDBRANCH  20  21
ENDBRANCH  19  20
ENDBRANCH  18  19
ENDBRANCH  17  18
ENDBRANCH  16  17
ENDBRANCH  15  16
ENDBRANCH  14  15
ENDBRANCH  13  14
ENDBRANCH  12  13
ENDBRANCH  11  12
ENDBRANCH  10  11
ENDBRANCH   9  10
ENDBRANCH   8   9
ENDBRANCH   7   8
ENDBRANCH   6   7
ENDBRANCH   5   6
ENDBRANCH   4   5
ENDBRANCH   3   4
ENDBRANCH   2   3
TORSDOF 20
ENDMDL
MODEL      107
REMARK 921   NORMALIZED FREE ENERGY PREDICTED BY IDOCK:   -3.75 KCAL/MOL
REMARK 922        TOTAL FREE ENERGY PREDICTED BY IDOCK:  -11.00 KCAL/MOL
REMARK 923 INTER-LIGAND FREE ENERGY PREDICTED BY IDOCK:   -7.91 KCAL/MOL
REMARK 924 INTRA-LIGAND FREE ENERGY PREDICTED BY IDOCK:   -3.09 KCAL/MOL
REMARK 927      BINDING AFFINITY PREDICTED BY RF-SCORE:    0.00 PKD
ROOT
HETATM    1  C   UNL     1     -12.389  14.087  66.217  1.00  0.00    -0.482 C  
HETATM    2  C   UNL     1     -12.607  12.964  65.217  1.00  0.00    -0.502 C  
ENDROOT
BRANCH   2   3
HETATM    3  C   UNL     1     -11.827  13.215  63.930  1.00  0.00    -0.533 C  
BRANCH   3   4
HETATM    4  C   UNL     1     -10.978  12.003  63.557  1.00  0.00    -0.514 C  
BRANCH   4   5
HETATM    5  C   UNL     1     -10.029  11.637  64.694  1.00  0.00    -0.291 C  
BRANCH   5   6
HETATM    6  C   UNL     1      -9.821  10.128  64.762  1.00  0.00    -0.382 C  
BRANCH   6   7
HETATM    7  C   UNL     1      -9.593   9.681  66.201  1.00  0.00    -0.295 C  
BRANCH   7   8
HETATM    8  C   UNL     1     -10.623  10.311  67.128  1.00  0.00    -0.320 C  
BRANCH   8   9
HETATM    9  C   UNL     1      -9.945  11.216  68.148  1.00  0.00    -0.189 C  
BRANCH   9  10
HETATM   10  C   UNL     1     -10.982  11.952  68.984  1.00  0.00    -0.267 C  
BRANCH  10  11
HETATM   11  C   UNL     1     -12.152  11.034  69.312  1.00  0.00    -0.363 C  
BRANCH  11  12
HETATM   12  C   UNL     1     -12.160  10.688  70.794  1.00  0.00    -0.474 C  
BRANCH  12  13
HETATM   13  C   UNL     1     -13.306   9.741  71.114  1.00  0.00    -0.360 C  
BRANCH  13  14
HETATM   14  C   UNL     1     -12.874   8.707  72.145  1.00  0.00    -0.442 C  
BRANCH  14  15
HETATM   15  C   UNL     1     -13.232   7.304  71.677  1.00  0.00    -0.421 C  
BRANCH  15  16
HETATM   16  C   UNL     1     -11.973   6.508  71.361  1.00  0.00    -0.371 C  
BRANCH  16  17
HETATM   17  C   UNL     1     -11.629   6.611  69.880  1.00  0.00    -0.393 C  
BRANCH  17  18
HETATM   18  C   UNL     1     -10.476   7.584  69.662  1.00  0.00    -0.235 C  
BRANCH  18  19
HETATM   19  C   UNL     1      -9.621   7.701  70.919  1.00  0.00    -0.167 C  
BRANCH  19  20
HETATM   20  C   UNL     1      -8.992   9.087  71.017  1.00  0.00    -0.304 C  
BRANCH  20  21
HETATM   21  C   UNL     1      -7.881   9.257  69.987  1.00  0.00    -0.117 C  
BRANCH  21  22
HETATM   22  C   UNL     1      -6.542   9.533  70.659  1.00  0.00    -0.103 C  
HETATM   23  O   UNL     1      -6.409  10.925  70.913  1.00  0.00    -0.379 OA 
HETATM   24  H   UNL     1      -5.574  11.097  71.331  1.00  0.00     0.000 HD 
ENDBRANCH  21  22
ENDBRANCH  20  21
ENDBRANCH  19  20
ENDBRANCH  18  19
ENDBRANCH  17  18
ENDBRANCH  16  17
ENDBRANCH  15  16
ENDBRANCH  14  15
ENDBRANCH  13  14
ENDBRANCH  12  13
ENDBRANCH  11  12
ENDBRANCH  10  11
ENDBRANCH   9  10
ENDBRANCH   8   9
ENDBRANCH   7   8
ENDBRANCH   6   7
ENDBRANCH   5   6
ENDBRANCH   4   5
ENDBRANCH   3   4
ENDBRANCH   2   3
TORSDOF 20
ENDMDL
MODEL      108
REMARK 921   NORMALIZED FREE ENERGY PREDICTED BY IDOCK:   -3.74 KCAL/MOL
REMARK 922        TOTAL FREE ENERGY PREDICTED BY IDOCK:  -10.99 KCAL/MOL
REMARK 923 INTER-LIGAND FREE ENERGY PREDICTED BY IDOCK:   -7.53 KCAL/MOL
REMARK 924 INTRA-LIGAND FREE ENERGY PREDICTED BY IDOCK:   -3.46 KCAL/MOL
REMARK 927      BINDING AFFINITY PREDICTED BY RF-SCORE:    0.00 PKD
ROOT
HETATM    1  C   UNL     1     -12.289  12.104  63.484  1.00  0.00    -0.682 C  
HETATM    2  C   UNL     1     -12.212  13.532  63.996  1.00  0.00    -0.458 C  
ENDROOT
BRANCH   2   3
HETATM    3  C   UNL     1     -12.631  13.615  65.461  1.00  0.00    -0.541 C  
BRANCH   3   4
HETATM    4  C   UNL     1     -11.772  14.619  66.223  1.00  0.00    -0.325 C  
BRANCH   4   5
HETATM    5  C   UNL     1     -10.699  15.212  65.314  1.00  0.00    -0.422 C  
BRANCH   5   6
HETATM    6  C   UNL     1     -10.492  16.693  65.613  1.00  0.00    -0.313 C  
BRANCH   6   7
HETATM    7  C   UNL     1     -10.583  16.958  67.110  1.00  0.00    -0.249 C  
BRANCH   7   8
HETATM    8  C   UNL     1      -9.926  18.286  67.461  1.00  0.00    -0.345 C  
BRANCH   8   9
HETATM    9  C   UNL     1      -8.596  18.057  68.167  1.00  0.00    -0.277 C  
BRANCH   9  10
HETATM   10  C   UNL     1      -7.452  18.055  67.164  1.00  0.00    -0.221 C  
BRANCH  10  11
HETATM   11  C   UNL     1      -7.018  16.630  66.851  1.00  0.00    -0.262 C  
BRANCH  11  12
HETATM   12  C   UNL     1      -7.281  15.719  68.041  1.00  0.00    -0.141 C  
BRANCH  12  13
HETATM   13  C   UNL     1      -7.974  14.442  67.592  1.00  0.00    -0.191 C  
BRANCH  13  14
HETATM   14  C   UNL     1      -7.906  13.383  68.684  1.00  0.00    -0.073 C  
BRANCH  14  15
HETATM   15  C   UNL     1      -8.243  12.011  68.119  1.00  0.00    -0.163 C  
BRANCH  15  16
HETATM   16  C   UNL     1      -9.520  12.071  67.292  1.00  0.00    -0.181 C  
BRANCH  16  17
HETATM   17  C   UNL     1     -10.488  10.972  67.715  1.00  0.00    -0.232 C  
BRANCH  17  18
HETATM   18  C   UNL     1     -11.780  11.573  68.256  1.00  0.00    -0.371 C  
BRANCH  18  19
HETATM   19  C   UNL     1     -11.610  12.008  69.708  1.00  0.00    -0.348 C  
BRANCH  19  20
HETATM   20  C   UNL     1     -12.380  13.296  69.980  1.00  0.00    -0.269 C  
BRANCH  20  21
HETATM   21  C   UNL     1     -11.491  14.517  69.777  1.00  0.00    -0.327 C  
BRANCH  21  22
HETATM   22  C   UNL     1     -12.148  15.776  70.327  1.00  0.00    -0.347 C  
HETATM   23  O   UNL     1     -13.528  15.533  70.567  1.00  0.00    -0.794 OA 
HETATM   24  H   UNL     1     -13.937  16.319  70.910  1.00  0.00     0.000 HD 
ENDBRANCH  21  22
ENDBRANCH  20  21
ENDBRANCH  19  20
ENDBRANCH  18  19
ENDBRANCH  17  18
ENDBRANCH  16  17
ENDBRANCH  15  16
ENDBRANCH  14  15
ENDBRANCH  13  14
ENDBRANCH  12  13
ENDBRANCH  11  12
ENDBRANCH  10  11
ENDBRANCH   9  10
ENDBRANCH   8   9
ENDBRANCH   7   8
ENDBRANCH   6   7
ENDBRANCH   5   6
ENDBRANCH   4   5
ENDBRANCH   3   4
ENDBRANCH   2   3
TORSDOF 20
ENDMDL
MODEL      109
REMARK 921   NORMALIZED FREE ENERGY PREDICTED BY IDOCK:   -3.74 KCAL/MOL
REMARK 922        TOTAL FREE ENERGY PREDICTED BY IDOCK:  -10.99 KCAL/MOL
REMARK 923 INTER-LIGAND FREE ENERGY PREDICTED BY IDOCK:   -8.81 KCAL/MOL
REMARK 924 INTRA-LIGAND FREE ENERGY PREDICTED BY IDOCK:   -2.18 KCAL/MOL
REMARK 927      BINDING AFFINITY PREDICTED BY RF-SCORE:    0.00 PKD
ROOT
HETATM    1  C   UNL     1      -8.730  19.679  66.159  1.00  0.00    -0.361 C  
HETATM    2  C   UNL     1     -10.216  19.376  66.091  1.00  0.00    -0.570 C  
ENDROOT
BRANCH   2   3
HETATM    3  C   UNL     1     -10.821  19.270  67.487  1.00  0.00    -0.524 C  
BRANCH   3   4
HETATM    4  C   UNL     1     -10.260  18.066  68.240  1.00  0.00    -0.402 C  
BRANCH   4   5
HETATM    5  C   UNL     1     -10.824  16.766  67.675  1.00  0.00    -0.252 C  
BRANCH   5   6
HETATM    6  C   UNL     1      -9.708  15.762  67.407  1.00  0.00    -0.223 C  
BRANCH   6   7
HETATM    7  C   UNL     1      -9.553  15.517  65.911  1.00  0.00    -0.383 C  
BRANCH   7   8
HETATM    8  C   UNL     1     -10.891  15.673  65.200  1.00  0.00    -0.448 C  
BRANCH   8   9
HETATM    9  C   UNL     1     -11.398  14.324  64.710  1.00  0.00    -0.382 C  
BRANCH   9  10
HETATM   10  C   UNL     1     -12.275  13.666  65.766  1.00  0.00    -0.503 C  
BRANCH  10  11
HETATM   11  C   UNL     1     -11.637  12.377  66.263  1.00  0.00    -0.449 C  
BRANCH  11  12
HETATM   12  C   UNL     1     -11.642  12.332  67.785  1.00  0.00    -0.416 C  
BRANCH  12  13
HETATM   13  C   UNL     1     -11.478  10.902  68.275  1.00  0.00    -0.376 C  
BRANCH  13  14
HETATM   14  C   UNL     1     -11.287  10.873  69.786  1.00  0.00    -0.374 C  
BRANCH  14  15
HETATM   15  C   UNL     1     -12.615  10.635  70.488  1.00  0.00    -0.433 C  
BRANCH  15  16
HETATM   16  C   UNL     1     -12.434   9.698  71.675  1.00  0.00    -0.494 C  
BRANCH  16  17
HETATM   17  C   UNL     1     -13.639   8.777  71.822  1.00  0.00    -0.453 C  
BRANCH  17  18
HETATM   18  C   UNL     1     -13.236   7.324  71.596  1.00  0.00    -0.421 C  
BRANCH  18  19
HETATM   19  C   UNL     1     -11.728   7.205  71.398  1.00  0.00    -0.330 C  
BRANCH  19  20
HETATM   20  C   UNL     1     -11.412   6.378  70.156  1.00  0.00    -0.484 C  
BRANCH  20  21
HETATM   21  C   UNL     1     -10.687   7.218  69.111  1.00  0.00    -0.201 C  
BRANCH  21  22
HETATM   22  C   UNL     1      -9.663   6.388  68.348  1.00  0.00    -0.131 C  
HETATM   23  O   UNL     1     -10.322   5.576  67.385  1.00  0.00    -0.197 OA 
HETATM   24  H   UNL     1      -9.683   5.058  66.910  1.00  0.00     0.000 HD 
ENDBRANCH  21  22
ENDBRANCH  20  21
ENDBRANCH  19  20
ENDBRANCH  18  19
ENDBRANCH  17  18
ENDBRANCH  16  17
ENDBRANCH  15  16
ENDBRANCH  14  15
ENDBRANCH  13  14
ENDBRANCH  12  13
ENDBRANCH  11  12
ENDBRANCH  10  11
ENDBRANCH   9  10
ENDBRANCH   8   9
ENDBRANCH   7   8
ENDBRANCH   6   7
ENDBRANCH   5   6
ENDBRANCH   4   5
ENDBRANCH   3   4
ENDBRANCH   2   3
TORSDOF 20
ENDMDL
MODEL      110
REMARK 921   NORMALIZED FREE ENERGY PREDICTED BY IDOCK:   -3.74 KCAL/MOL
REMARK 922        TOTAL FREE ENERGY PREDICTED BY IDOCK:  -10.98 KCAL/MOL
REMARK 923 INTER-LIGAND FREE ENERGY PREDICTED BY IDOCK:   -7.87 KCAL/MOL
REMARK 924 INTRA-LIGAND FREE ENERGY PREDICTED BY IDOCK:   -3.11 KCAL/MOL
REMARK 927      BINDING AFFINITY PREDICTED BY RF-SCORE:    0.00 PKD
ROOT
HETATM    1  C   UNL     1     -12.378  12.156  63.627  1.00  0.00    -0.673 C  
HETATM    2  C   UNL     1     -11.624  13.173  64.466  1.00  0.00    -0.406 C  
ENDROOT
BRANCH   2   3
HETATM    3  C   UNL     1     -12.552  13.860  65.463  1.00  0.00    -0.560 C  
BRANCH   3   4
HETATM    4  C   UNL     1     -12.100  13.612  66.899  1.00  0.00    -0.431 C  
BRANCH   4   5
HETATM    5  C   UNL     1     -11.994  12.116  67.180  1.00  0.00    -0.149 C  
BRANCH   5   6
HETATM    6  C   UNL     1     -11.353  11.864  68.541  1.00  0.00    -0.329 C  
BRANCH   6   7
HETATM    7  C   UNL     1     -10.836  10.434  68.636  1.00  0.00    -0.270 C  
BRANCH   7   8
HETATM    8  C   UNL     1      -9.313  10.415  68.660  1.00  0.00    -0.167 C  
BRANCH   8   9
HETATM    9  C   UNL     1      -8.756  10.258  67.252  1.00  0.00    -0.125 C  
BRANCH   9  10
HETATM   10  C   UNL     1      -7.989  11.506  66.839  1.00  0.00    -0.164 C  
BRANCH  10  11
HETATM   11  C   UNL     1      -7.320  12.146  68.047  1.00  0.00    -0.105 C  
BRANCH  11  12
HETATM   12  C   UNL     1      -7.738  13.604  68.178  1.00  0.00    -0.138 C  
BRANCH  12  13
HETATM   13  C   UNL     1      -8.669  13.995  67.041  1.00  0.00    -0.220 C  
BRANCH  13  14
HETATM   14  C   UNL     1      -9.017  15.476  67.119  1.00  0.00    -0.232 C  
BRANCH  14  15
HETATM   15  C   UNL     1      -9.327  15.877  68.553  1.00  0.00    -0.206 C  
BRANCH  15  16
HETATM   16  C   UNL     1     -10.586  16.731  68.610  1.00  0.00    -0.353 C  
BRANCH  16  17
HETATM   17  C   UNL     1     -11.629  16.093  69.521  1.00  0.00    -0.254 C  
BRANCH  17  18
HETATM   18  C   UNL     1     -10.995  15.009  70.385  1.00  0.00    -0.222 C  
BRANCH  18  19
HETATM   19  C   UNL     1     -12.048  14.315  71.243  1.00  0.00    -0.391 C  
BRANCH  19  20
HETATM   20  C   UNL     1     -13.359  15.095  71.224  1.00  0.00    -0.551 C  
BRANCH  20  21
HETATM   21  C   UNL     1     -13.711  15.604  72.616  1.00  0.00    -0.666 C  
BRANCH  21  22
HETATM   22  C   UNL     1     -12.471  16.077  73.363  1.00  0.00    -0.558 C  
HETATM   23  O   UNL     1     -12.147  15.152  74.392  1.00  0.00    -0.700 OA 
HETATM   24  H   UNL     1     -11.373  15.447  74.858  1.00  0.00     0.000 HD 
ENDBRANCH  21  22
ENDBRANCH  20  21
ENDBRANCH  19  20
ENDBRANCH  18  19
ENDBRANCH  17  18
ENDBRANCH  16  17
ENDBRANCH  15  16
ENDBRANCH  14  15
ENDBRANCH  13  14
ENDBRANCH  12  13
ENDBRANCH  11  12
ENDBRANCH  10  11
ENDBRANCH   9  10
ENDBRANCH   8   9
ENDBRANCH   7   8
ENDBRANCH   6   7
ENDBRANCH   5   6
ENDBRANCH   4   5
ENDBRANCH   3   4
ENDBRANCH   2   3
TORSDOF 20
ENDMDL
MODEL      111
REMARK 921   NORMALIZED FREE ENERGY PREDICTED BY IDOCK:   -3.73 KCAL/MOL
REMARK 922        TOTAL FREE ENERGY PREDICTED BY IDOCK:  -10.97 KCAL/MOL
REMARK 923 INTER-LIGAND FREE ENERGY PREDICTED BY IDOCK:   -7.91 KCAL/MOL
REMARK 924 INTRA-LIGAND FREE ENERGY PREDICTED BY IDOCK:   -3.06 KCAL/MOL
REMARK 927      BINDING AFFINITY PREDICTED BY RF-SCORE:    0.00 PKD
ROOT
HETATM    1  C   UNL     1     -10.344   5.329  69.947  1.00  0.00    -0.374 C  
HETATM    2  C   UNL     1     -11.019   6.092  68.820  1.00  0.00    -0.421 C  
ENDROOT
BRANCH   2   3
HETATM    3  C   UNL     1      -9.989   6.767  67.919  1.00  0.00    -0.164 C  
BRANCH   3   4
HETATM    4  C   UNL     1     -10.500   8.112  67.410  1.00  0.00    -0.356 C  
BRANCH   4   5
HETATM    5  C   UNL     1     -10.311   9.196  68.467  1.00  0.00    -0.236 C  
BRANCH   5   6
HETATM    6  C   UNL     1      -8.832   9.405  68.772  1.00  0.00    -0.132 C  
BRANCH   6   7
HETATM    7  C   UNL     1      -8.550   9.174  70.252  1.00  0.00    -0.218 C  
BRANCH   7   8
HETATM    8  C   UNL     1      -9.847   9.171  71.050  1.00  0.00    -0.366 C  
BRANCH   8   9
HETATM    9  C   UNL     1      -9.768   8.171  72.196  1.00  0.00    -0.311 C  
BRANCH   9  10
HETATM   10  C   UNL     1     -11.162   7.831  72.705  1.00  0.00    -0.456 C  
BRANCH  10  11
HETATM   11  C   UNL     1     -12.207   8.126  71.639  1.00  0.00    -0.343 C  
BRANCH  11  12
HETATM   12  C   UNL     1     -13.180   9.190  72.126  1.00  0.00    -0.524 C  
BRANCH  12  13
HETATM   13  C   UNL     1     -13.440  10.214  71.032  1.00  0.00    -0.220 C  
BRANCH  13  14
HETATM   14  C   UNL     1     -12.695  11.510  71.324  1.00  0.00    -0.469 C  
BRANCH  14  15
HETATM   15  C   UNL     1     -11.955  11.991  70.084  1.00  0.00    -0.401 C  
BRANCH  15  16
HETATM   16  C   UNL     1     -12.152  13.489  69.890  1.00  0.00    -0.408 C  
BRANCH  16  17
HETATM   17  C   UNL     1     -11.822  13.894  68.458  1.00  0.00    -0.401 C  
BRANCH  17  18
HETATM   18  C   UNL     1     -11.049  12.787  67.751  1.00  0.00    -0.289 C  
BRANCH  18  19
HETATM   19  C   UNL     1      -9.957  13.371  66.861  1.00  0.00    -0.252 C  
BRANCH  19  20
HETATM   20  C   UNL     1     -10.552  13.926  65.571  1.00  0.00    -0.318 C  
BRANCH  20  21
HETATM   21  C   UNL     1     -10.138  15.377  65.359  1.00  0.00    -0.394 C  
BRANCH  21  22
HETATM   22  C   UNL     1      -8.922  15.734  66.202  1.00  0.00    -0.337 C  
HETATM   23  O   UNL     1      -8.505  17.061  65.908  1.00  0.00    -0.519 OA 
HETATM   24  H   UNL     1      -7.746  17.284  66.434  1.00  0.00     0.000 HD 
ENDBRANCH  21  22
ENDBRANCH  20  21
ENDBRANCH  19  20
ENDBRANCH  18  19
ENDBRANCH  17  18
ENDBRANCH  16  17
ENDBRANCH  15  16
ENDBRANCH  14  15
ENDBRANCH  13  14
ENDBRANCH  12  13
ENDBRANCH  11  12
ENDBRANCH  10  11
ENDBRANCH   9  10
ENDBRANCH   8   9
ENDBRANCH   7   8
ENDBRANCH   6   7
ENDBRANCH   5   6
ENDBRANCH   4   5
ENDBRANCH   3   4
ENDBRANCH   2   3
TORSDOF 20
ENDMDL
MODEL      112
REMARK 921   NORMALIZED FREE ENERGY PREDICTED BY IDOCK:   -3.73 KCAL/MOL
REMARK 922        TOTAL FREE ENERGY PREDICTED BY IDOCK:  -10.96 KCAL/MOL
REMARK 923 INTER-LIGAND FREE ENERGY PREDICTED BY IDOCK:   -8.22 KCAL/MOL
REMARK 924 INTRA-LIGAND FREE ENERGY PREDICTED BY IDOCK:   -2.74 KCAL/MOL
REMARK 927      BINDING AFFINITY PREDICTED BY RF-SCORE:    0.00 PKD
ROOT
HETATM    1  C   UNL     1     -10.003   8.669  71.947  1.00  0.00    -0.392 C  
HETATM    2  C   UNL     1     -11.284   8.099  72.532  1.00  0.00    -0.459 C  
ENDROOT
BRANCH   2   3
HETATM    3  C   UNL     1     -11.570   6.707  71.976  1.00  0.00    -0.341 C  
BRANCH   3   4
HETATM    4  C   UNL     1     -11.840   6.760  70.475  1.00  0.00    -0.418 C  
BRANCH   4   5
HETATM    5  C   UNL     1     -10.964   5.756  69.732  1.00  0.00    -0.397 C  
BRANCH   5   6
HETATM    6  C   UNL     1      -9.957   6.471  68.838  1.00  0.00    -0.165 C  
BRANCH   6   7
HETATM    7  C   UNL     1     -10.582   6.817  67.492  1.00  0.00    -0.348 C  
BRANCH   7   8
HETATM    8  C   UNL     1     -10.435   8.304  67.199  1.00  0.00    -0.386 C  
BRANCH   8   9
HETATM    9  C   UNL     1      -9.534   8.968  68.231  1.00  0.00    -0.156 C  
BRANCH   9  10
HETATM   10  C   UNL     1      -9.591  10.483  68.096  1.00  0.00    -0.163 C  
BRANCH  10  11
HETATM   11  C   UNL     1     -10.762  11.047  68.888  1.00  0.00    -0.249 C  
BRANCH  11  12
HETATM   12  C   UNL     1     -11.901  11.433  67.955  1.00  0.00    -0.273 C  
BRANCH  12  13
HETATM   13  C   UNL     1     -11.357  11.887  66.610  1.00  0.00    -0.400 C  
BRANCH  13  14
HETATM   14  C   UNL     1     -12.208  13.014  66.040  1.00  0.00    -0.463 C  
BRANCH  14  15
HETATM   15  C   UNL     1     -11.487  14.347  66.172  1.00  0.00    -0.357 C  
BRANCH  15  16
HETATM   16  C   UNL     1     -11.785  14.986  67.522  1.00  0.00    -0.270 C  
BRANCH  16  17
HETATM   17  C   UNL     1     -10.530  15.031  68.385  1.00  0.00    -0.238 C  
BRANCH  17  18
HETATM   18  C   UNL     1     -10.859  14.676  69.830  1.00  0.00    -0.144 C  
BRANCH  18  19
HETATM   19  C   UNL     1     -12.365  14.535  70.024  1.00  0.00    -0.376 C  
BRANCH  19  20
HETATM   20  C   UNL     1     -12.677  13.443  71.042  1.00  0.00    -0.387 C  
BRANCH  20  21
HETATM   21  C   UNL     1     -13.077  14.044  72.384  1.00  0.00    -0.536 C  
BRANCH  21  22
HETATM   22  C   UNL     1     -14.028  15.220  72.201  1.00  0.00    -0.549 C  
HETATM   23  O   UNL     1     -13.988  16.054  73.352  1.00  0.00    -0.751 OA 
HETATM   24  H   UNL     1     -14.581  16.787  73.238  1.00  0.00     0.000 HD 
ENDBRANCH  21  22
ENDBRANCH  20  21
ENDBRANCH  19  20
ENDBRANCH  18  19
ENDBRANCH  17  18
ENDBRANCH  16  17
ENDBRANCH  15  16
ENDBRANCH  14  15
ENDBRANCH  13  14
ENDBRANCH  12  13
ENDBRANCH  11  12
ENDBRANCH  10  11
ENDBRANCH   9  10
ENDBRANCH   8   9
ENDBRANCH   7   8
ENDBRANCH   6   7
ENDBRANCH   5   6
ENDBRANCH   4   5
ENDBRANCH   3   4
ENDBRANCH   2   3
TORSDOF 20
ENDMDL
MODEL      113
REMARK 921   NORMALIZED FREE ENERGY PREDICTED BY IDOCK:   -3.73 KCAL/MOL
REMARK 922        TOTAL FREE ENERGY PREDICTED BY IDOCK:  -10.96 KCAL/MOL
REMARK 923 INTER-LIGAND FREE ENERGY PREDICTED BY IDOCK:   -8.13 KCAL/MOL
REMARK 924 INTRA-LIGAND FREE ENERGY PREDICTED BY IDOCK:   -2.83 KCAL/MOL
REMARK 927      BINDING AFFINITY PREDICTED BY RF-SCORE:    0.00 PKD
ROOT
HETATM    1  C   UNL     1     -10.127  10.108  69.885  1.00  0.00    -0.268 C  
HETATM    2  C   UNL     1     -11.630  10.165  70.094  1.00  0.00    -0.350 C  
ENDROOT
BRANCH   2   3
HETATM    3  C   UNL     1     -11.990   9.958  71.562  1.00  0.00    -0.473 C  
BRANCH   3   4
HETATM    4  C   UNL     1     -13.275   9.148  71.705  1.00  0.00    -0.438 C  
BRANCH   4   5
HETATM    5  C   UNL     1     -12.976   7.652  71.679  1.00  0.00    -0.385 C  
BRANCH   5   6
HETATM    6  C   UNL     1     -11.596   7.364  72.259  1.00  0.00    -0.333 C  
BRANCH   6   7
HETATM    7  C   UNL     1     -10.855   6.343  71.405  1.00  0.00    -0.301 C  
BRANCH   7   8
HETATM    8  C   UNL     1     -11.496   6.230  70.028  1.00  0.00    -0.460 C  
BRANCH   8   9
HETATM    9  C   UNL     1     -10.429   6.161  68.943  1.00  0.00    -0.293 C  
BRANCH   9  10
HETATM   10  C   UNL     1     -10.878   6.920  67.703  1.00  0.00    -0.333 C  
BRANCH  10  11
HETATM   11  C   UNL     1      -9.694   7.612  67.042  1.00  0.00    -0.255 C  
BRANCH  11  12
HETATM   12  C   UNL     1     -10.145   8.881  66.333  1.00  0.00    -0.333 C  
BRANCH  12  13
HETATM   13  C   UNL     1      -9.081   9.962  66.449  1.00  0.00    -0.179 C  
BRANCH  13  14
HETATM   14  C   UNL     1      -9.339  11.076  65.443  1.00  0.00    -0.244 C  
BRANCH  14  15
HETATM   15  C   UNL     1      -9.918  10.510  64.155  1.00  0.00    -0.385 C  
BRANCH  15  16
HETATM   16  C   UNL     1     -11.008  11.424  63.611  1.00  0.00    -0.443 C  
BRANCH  16  17
HETATM   17  C   UNL     1     -10.680  12.884  63.898  1.00  0.00    -0.390 C  
BRANCH  17  18
HETATM   18  C   UNL     1     -11.852  13.572  64.588  1.00  0.00    -0.428 C  
BRANCH  18  19
HETATM   19  C   UNL     1     -11.375  14.770  65.402  1.00  0.00    -0.356 C  
BRANCH  19  20
HETATM   20  C   UNL     1     -10.860  14.325  66.767  1.00  0.00    -0.298 C  
BRANCH  20  21
HETATM   21  C   UNL     1     -11.856  13.397  67.451  1.00  0.00    -0.418 C  
BRANCH  21  22
HETATM   22  C   UNL     1     -12.037  13.765  68.918  1.00  0.00    -0.313 C  
HETATM   23  O   UNL     1     -10.790  13.673  69.594  1.00  0.00    -0.451 OA 
HETATM   24  H   UNL     1     -10.902  13.902  70.509  1.00  0.00     0.000 HD 
ENDBRANCH  21  22
ENDBRANCH  20  21
ENDBRANCH  19  20
ENDBRANCH  18  19
ENDBRANCH  17  18
ENDBRANCH  16  17
ENDBRANCH  15  16
ENDBRANCH  14  15
ENDBRANCH  13  14
ENDBRANCH  12  13
ENDBRANCH  11  12
ENDBRANCH  10  11
ENDBRANCH   9  10
ENDBRANCH   8   9
ENDBRANCH   7   8
ENDBRANCH   6   7
ENDBRANCH   5   6
ENDBRANCH   4   5
ENDBRANCH   3   4
ENDBRANCH   2   3
TORSDOF 20
ENDMDL
MODEL      114
REMARK 921   NORMALIZED FREE ENERGY PREDICTED BY IDOCK:   -3.73 KCAL/MOL
REMARK 922        TOTAL FREE ENERGY PREDICTED BY IDOCK:  -10.95 KCAL/MOL
REMARK 923 INTER-LIGAND FREE ENERGY PREDICTED BY IDOCK:   -8.10 KCAL/MOL
REMARK 924 INTRA-LIGAND FREE ENERGY PREDICTED BY IDOCK:   -2.85 KCAL/MOL
REMARK 927      BINDING AFFINITY PREDICTED BY RF-SCORE:    0.00 PKD
ROOT
HETATM    1  C   UNL     1     -11.356   6.249  69.567  1.00  0.00    -0.475 C  
HETATM    2  C   UNL     1     -11.404   6.506  71.064  1.00  0.00    -0.378 C  
ENDROOT
BRANCH   2   3
HETATM    3  C   UNL     1     -12.420   7.592  71.403  1.00  0.00    -0.359 C  
BRANCH   3   4
HETATM    4  C   UNL     1     -11.728   8.854  71.911  1.00  0.00    -0.439 C  
BRANCH   4   5
HETATM    5  C   UNL     1     -11.842   9.981  70.889  1.00  0.00    -0.459 C  
BRANCH   5   6
HETATM    6  C   UNL     1     -10.533  10.156  70.126  1.00  0.00    -0.311 C  
BRANCH   6   7
HETATM    7  C   UNL     1     -10.753   9.969  68.630  1.00  0.00    -0.256 C  
BRANCH   7   8
HETATM    8  C   UNL     1      -9.844  10.897  67.834  1.00  0.00    -0.189 C  
BRANCH   8   9
HETATM    9  C   UNL     1     -10.018  10.665  66.339  1.00  0.00    -0.273 C  
BRANCH   9  10
HETATM   10  C   UNL     1     -10.380  11.966  65.635  1.00  0.00    -0.285 C  
BRANCH  10  11
HETATM   11  C   UNL     1     -11.727  12.480  66.123  1.00  0.00    -0.466 C  
BRANCH  11  12
HETATM   12  C   UNL     1     -11.903  13.947  65.755  1.00  0.00    -0.393 C  
BRANCH  12  13
HETATM   13  C   UNL     1     -10.591  14.531  65.254  1.00  0.00    -0.400 C  
BRANCH  13  14
HETATM   14  C   UNL     1     -10.536  16.030  65.519  1.00  0.00    -0.426 C  
BRANCH  14  15
HETATM   15  C   UNL     1      -9.837  16.312  66.840  1.00  0.00    -0.253 C  
BRANCH  15  16
HETATM   16  C   UNL     1     -10.748  17.103  67.770  1.00  0.00    -0.329 C  
BRANCH  16  17
HETATM   17  C   UNL     1     -11.281  16.213  68.886  1.00  0.00    -0.351 C  
BRANCH  17  18
HETATM   18  C   UNL     1     -10.375  15.004  69.088  1.00  0.00    -0.249 C  
BRANCH  18  19
HETATM   19  C   UNL     1     -11.166  13.819  69.632  1.00  0.00    -0.175 C  
BRANCH  19  20
HETATM   20  C   UNL     1     -12.476  14.286  70.258  1.00  0.00    -0.422 C  
BRANCH  20  21
HETATM   21  C   UNL     1     -13.076  13.200  71.142  1.00  0.00    -0.202 C  
BRANCH  21  22
HETATM   22  C   UNL     1     -13.848  13.801  72.309  1.00  0.00    -0.580 C  
HETATM   23  O   UNL     1     -13.926  15.213  72.158  1.00  0.00    -0.438 OA 
HETATM   24  H   UNL     1     -14.407  15.588  72.886  1.00  0.00     0.000 HD 
ENDBRANCH  21  22
ENDBRANCH  20  21
ENDBRANCH  19  20
ENDBRANCH  18  19
ENDBRANCH  17  18
ENDBRANCH  16  17
ENDBRANCH  15  16
ENDBRANCH  14  15
ENDBRANCH  13  14
ENDBRANCH  12  13
ENDBRANCH  11  12
ENDBRANCH  10  11
ENDBRANCH   9  10
ENDBRANCH   8   9
ENDBRANCH   7   8
ENDBRANCH   6   7
ENDBRANCH   5   6
ENDBRANCH   4   5
ENDBRANCH   3   4
ENDBRANCH   2   3
TORSDOF 20
ENDMDL
MODEL      115
REMARK 921   NORMALIZED FREE ENERGY PREDICTED BY IDOCK:   -3.71 KCAL/MOL
REMARK 922        TOTAL FREE ENERGY PREDICTED BY IDOCK:  -10.93 KCAL/MOL
REMARK 923 INTER-LIGAND FREE ENERGY PREDICTED BY IDOCK:   -7.68 KCAL/MOL
REMARK 924 INTRA-LIGAND FREE ENERGY PREDICTED BY IDOCK:   -3.24 KCAL/MOL
REMARK 927      BINDING AFFINITY PREDICTED BY RF-SCORE:    0.00 PKD
ROOT
HETATM    1  C   UNL     1      -7.019   9.698  68.297  1.00  0.00    -0.073 C  
HETATM    2  C   UNL     1      -7.830   8.781  69.196  1.00  0.00    -0.098 C  
ENDROOT
BRANCH   2   3
HETATM    3  C   UNL     1      -8.023   9.396  70.579  1.00  0.00    -0.199 C  
BRANCH   3   4
HETATM    4  C   UNL     1      -9.037   8.602  71.398  1.00  0.00    -0.295 C  
BRANCH   4   5
HETATM    5  C   UNL     1      -9.758   7.581  70.523  1.00  0.00    -0.179 C  
BRANCH   5   6
HETATM    6  C   UNL     1     -11.237   7.501  70.887  1.00  0.00    -0.286 C  
BRANCH   6   7
HETATM    7  C   UNL     1     -11.578   8.513  71.974  1.00  0.00    -0.432 C  
BRANCH   7   8
HETATM    8  C   UNL     1     -12.737   9.400  71.536  1.00  0.00    -0.444 C  
BRANCH   8   9
HETATM    9  C   UNL     1     -12.240  10.796  71.185  1.00  0.00    -0.457 C  
BRANCH   9  10
HETATM   10  C   UNL     1     -12.309  11.025  69.681  1.00  0.00    -0.303 C  
BRANCH  10  11
HETATM   11  C   UNL     1     -10.943  10.806  69.045  1.00  0.00    -0.289 C  
BRANCH  11  12
HETATM   12  C   UNL     1     -11.056   9.876  67.845  1.00  0.00    -0.216 C  
BRANCH  12  13
HETATM   13  C   UNL     1     -10.393  10.497  66.626  1.00  0.00    -0.295 C  
BRANCH  13  14
HETATM   14  C   UNL     1     -10.410  12.017  66.723  1.00  0.00    -0.233 C  
BRANCH  14  15
HETATM   15  C   UNL     1     -11.654  12.581  66.055  1.00  0.00    -0.456 C  
BRANCH  15  16
HETATM   16  C   UNL     1     -12.286  13.662  66.923  1.00  0.00    -0.398 C  
BRANCH  16  17
HETATM   17  C   UNL     1     -11.298  14.153  67.974  1.00  0.00    -0.324 C  
BRANCH  17  18
HETATM   18  C   UNL     1     -11.652  15.565  68.427  1.00  0.00    -0.368 C  
BRANCH  18  19
HETATM   19  C   UNL     1     -10.848  16.601  67.649  1.00  0.00    -0.258 C  
BRANCH  19  20
HETATM   20  C   UNL     1      -9.631  15.959  66.993  1.00  0.00    -0.232 C  
BRANCH  20  21
HETATM   21  C   UNL     1      -9.800  15.886  65.480  1.00  0.00    -0.265 C  
BRANCH  21  22
HETATM   22  C   UNL     1     -10.926  16.795  65.005  1.00  0.00    -0.108 C  
HETATM   23  O   UNL     1     -11.488  16.280  63.806  1.00  0.00    -1.475 OA 
HETATM   24  H   UNL     1     -12.190  16.847  63.509  1.00  0.00     0.000 HD 
ENDBRANCH  21  22
ENDBRANCH  20  21
ENDBRANCH  19  20
ENDBRANCH  18  19
ENDBRANCH  17  18
ENDBRANCH  16  17
ENDBRANCH  15  16
ENDBRANCH  14  15
ENDBRANCH  13  14
ENDBRANCH  12  13
ENDBRANCH  11  12
ENDBRANCH  10  11
ENDBRANCH   9  10
ENDBRANCH   8   9
ENDBRANCH   7   8
ENDBRANCH   6   7
ENDBRANCH   5   6
ENDBRANCH   4   5
ENDBRANCH   3   4
ENDBRANCH   2   3
TORSDOF 20
ENDMDL
MODEL      116
REMARK 921   NORMALIZED FREE ENERGY PREDICTED BY IDOCK:   -3.71 KCAL/MOL
REMARK 922        TOTAL FREE ENERGY PREDICTED BY IDOCK:  -10.93 KCAL/MOL
REMARK 923 INTER-LIGAND FREE ENERGY PREDICTED BY IDOCK:   -8.43 KCAL/MOL
REMARK 924 INTRA-LIGAND FREE ENERGY PREDICTED BY IDOCK:   -2.49 KCAL/MOL
REMARK 927      BINDING AFFINITY PREDICTED BY RF-SCORE:    0.00 PKD
ROOT
HETATM    1  C   UNL     1      -9.909  13.056  67.129  1.00  0.00    -0.230 C  
HETATM    2  C   UNL     1     -11.349  12.575  67.205  1.00  0.00    -0.381 C  
ENDROOT
BRANCH   2   3
HETATM    3  C   UNL     1     -11.451  11.267  67.982  1.00  0.00    -0.369 C  
BRANCH   3   4
HETATM    4  C   UNL     1     -10.262  11.090  68.922  1.00  0.00    -0.218 C  
BRANCH   4   5
HETATM    5  C   UNL     1     -10.124   9.632  69.351  1.00  0.00    -0.213 C  
BRANCH   5   6
HETATM    6  C   UNL     1      -9.298   9.518  70.628  1.00  0.00    -0.263 C  
BRANCH   6   7
HETATM    7  C   UNL     1      -9.963   8.567  71.615  1.00  0.00    -0.329 C  
BRANCH   7   8
HETATM    8  C   UNL     1     -10.581   7.382  70.885  1.00  0.00    -0.234 C  
BRANCH   8   9
HETATM    9  C   UNL     1     -12.033   7.191  71.303  1.00  0.00    -0.374 C  
BRANCH   9  10
HETATM   10  C   UNL     1     -12.456   8.281  72.278  1.00  0.00    -0.384 C  
BRANCH  10  11
HETATM   11  C   UNL     1     -13.576   9.124  71.685  1.00  0.00    -0.451 C  
BRANCH  11  12
HETATM   12  C   UNL     1     -13.016  10.394  71.062  1.00  0.00    -0.490 C  
BRANCH  12  13
HETATM   13  C   UNL     1     -13.091  11.549  72.050  1.00  0.00    -0.430 C  
BRANCH  13  14
HETATM   14  C   UNL     1     -12.690  12.855  71.378  1.00  0.00    -0.366 C  
BRANCH  14  15
HETATM   15  C   UNL     1     -13.501  14.014  71.937  1.00  0.00    -0.506 C  
BRANCH  15  16
HETATM   16  C   UNL     1     -13.128  15.315  71.239  1.00  0.00    -0.540 C  
BRANCH  16  17
HETATM   17  C   UNL     1     -12.015  15.082  70.224  1.00  0.00    -0.362 C  
BRANCH  17  18
HETATM   18  C   UNL     1     -10.920  16.131  70.377  1.00  0.00    -0.320 C  
BRANCH  18  19
HETATM   19  C   UNL     1      -9.751  15.833  69.445  1.00  0.00    -0.286 C  
BRANCH  19  20
HETATM   20  C   UNL     1      -9.344  17.084  68.673  1.00  0.00    -0.270 C  
BRANCH  20  21
HETATM   21  C   UNL     1     -10.550  17.723  67.993  1.00  0.00    -0.372 C  
BRANCH  21  22
HETATM   22  C   UNL     1     -10.373  19.230  67.857  1.00  0.00    -0.417 C  
HETATM   23  O   UNL     1     -10.351  19.830  69.145  1.00  0.00    -0.628 OA 
HETATM   24  H   UNL     1     -10.241  20.770  69.060  1.00  0.00     0.000 HD 
ENDBRANCH  21  22
ENDBRANCH  20  21
ENDBRANCH  19  20
ENDBRANCH  18  19
ENDBRANCH  17  18
ENDBRANCH  16  17
ENDBRANCH  15  16
ENDBRANCH  14  15
ENDBRANCH  13  14
ENDBRANCH  12  13
ENDBRANCH  11  12
ENDBRANCH  10  11
ENDBRANCH   9  10
ENDBRANCH   8   9
ENDBRANCH   7   8
ENDBRANCH   6   7
ENDBRANCH   5   6
ENDBRANCH   4   5
ENDBRANCH   3   4
ENDBRANCH   2   3
TORSDOF 20
ENDMDL
MODEL      117
REMARK 921   NORMALIZED FREE ENERGY PREDICTED BY IDOCK:   -3.71 KCAL/MOL
REMARK 922        TOTAL FREE ENERGY PREDICTED BY IDOCK:  -10.92 KCAL/MOL
REMARK 923 INTER-LIGAND FREE ENERGY PREDICTED BY IDOCK:   -8.43 KCAL/MOL
REMARK 924 INTRA-LIGAND FREE ENERGY PREDICTED BY IDOCK:   -2.49 KCAL/MOL
REMARK 927      BINDING AFFINITY PREDICTED BY RF-SCORE:    0.00 PKD
ROOT
HETATM    1  C   UNL     1     -10.434  15.355  65.516  1.00  0.00    -0.402 C  
HETATM    2  C   UNL     1     -11.656  14.627  66.051  1.00  0.00    -0.328 C  
ENDROOT
BRANCH   2   3
HETATM    3  C   UNL     1     -12.551  14.146  64.913  1.00  0.00    -0.362 C  
BRANCH   3   4
HETATM    4  C   UNL     1     -12.517  12.625  64.791  1.00  0.00    -0.555 C  
BRANCH   4   5
HETATM    5  C   UNL     1     -11.686  12.198  63.585  1.00  0.00    -0.588 C  
BRANCH   5   6
HETATM    6  C   UNL     1     -10.505  11.336  64.018  1.00  0.00    -0.440 C  
BRANCH   6   7
HETATM    7  C   UNL     1     -10.542  11.088  65.521  1.00  0.00    -0.267 C  
BRANCH   7   8
HETATM    8  C   UNL     1     -10.227   9.630  65.832  1.00  0.00    -0.219 C  
BRANCH   8   9
HETATM    9  C   UNL     1      -8.810   9.491  66.372  1.00  0.00    -0.164 C  
BRANCH   9  10
HETATM   10  C   UNL     1      -8.780   9.763  67.870  1.00  0.00    -0.125 C  
BRANCH  10  11
HETATM   11  C   UNL     1      -9.174   8.514  68.647  1.00  0.00    -0.142 C  
BRANCH  11  12
HETATM   12  C   UNL     1     -10.603   8.633  69.159  1.00  0.00    -0.193 C  
BRANCH  12  13
HETATM   13  C   UNL     1     -10.622   9.267  70.541  1.00  0.00    -0.309 C  
BRANCH  13  14
HETATM   14  C   UNL     1     -11.561  10.466  70.567  1.00  0.00    -0.433 C  
BRANCH  14  15
HETATM   15  C   UNL     1     -11.992  10.837  69.156  1.00  0.00    -0.302 C  
BRANCH  15  16
HETATM   16  C   UNL     1     -11.455  12.211  68.777  1.00  0.00    -0.359 C  
BRANCH  16  17
HETATM   17  C   UNL     1     -12.124  13.299  69.609  1.00  0.00    -0.331 C  
BRANCH  17  18
HETATM   18  C   UNL     1     -11.129  14.404  69.947  1.00  0.00    -0.166 C  
BRANCH  18  19
HETATM   19  C   UNL     1     -11.843  15.739  70.130  1.00  0.00    -0.369 C  
BRANCH  19  20
HETATM   20  C   UNL     1     -11.673  16.251  71.557  1.00  0.00    -0.467 C  
BRANCH  20  21
HETATM   21  C   UNL     1     -11.709  15.102  72.557  1.00  0.00    -0.475 C  
BRANCH  21  22
HETATM   22  C   UNL     1     -13.084  14.970  73.199  1.00  0.00    -0.511 C  
HETATM   23  O   UNL     1     -13.495  16.228  73.719  1.00  0.00    -0.924 OA 
HETATM   24  H   UNL     1     -14.352  16.146  74.120  1.00  0.00     0.000 HD 
ENDBRANCH  21  22
ENDBRANCH  20  21
ENDBRANCH  19  20
ENDBRANCH  18  19
ENDBRANCH  17  18
ENDBRANCH  16  17
ENDBRANCH  15  16
ENDBRANCH  14  15
ENDBRANCH  13  14
ENDBRANCH  12  13
ENDBRANCH  11  12
ENDBRANCH  10  11
ENDBRANCH   9  10
ENDBRANCH   8   9
ENDBRANCH   7   8
ENDBRANCH   6   7
ENDBRANCH   5   6
ENDBRANCH   4   5
ENDBRANCH   3   4
ENDBRANCH   2   3
TORSDOF 20
ENDMDL
MODEL      118
REMARK 921   NORMALIZED FREE ENERGY PREDICTED BY IDOCK:   -3.71 KCAL/MOL
REMARK 922        TOTAL FREE ENERGY PREDICTED BY IDOCK:  -10.92 KCAL/MOL
REMARK 923 INTER-LIGAND FREE ENERGY PREDICTED BY IDOCK:   -8.34 KCAL/MOL
REMARK 924 INTRA-LIGAND FREE ENERGY PREDICTED BY IDOCK:   -2.58 KCAL/MOL
REMARK 927      BINDING AFFINITY PREDICTED BY RF-SCORE:    0.00 PKD
ROOT
HETATM    1  C   UNL     1     -10.475   5.254  74.380  1.00  0.00    -0.277 C  
HETATM    2  C   UNL     1      -8.985   5.522  74.257  1.00  0.00    -0.121 C  
ENDROOT
BRANCH   2   3
HETATM    3  C   UNL     1      -8.684   6.419  73.060  1.00  0.00    -0.124 C  
BRANCH   3   4
HETATM    4  C   UNL     1      -9.064   7.868  73.350  1.00  0.00    -0.347 C  
BRANCH   4   5
HETATM    5  C   UNL     1      -9.068   8.693  72.067  1.00  0.00    -0.311 C  
BRANCH   5   6
HETATM    6  C   UNL     1      -8.484   7.894  70.906  1.00  0.00    -0.126 C  
BRANCH   6   7
HETATM    7  C   UNL     1      -9.438   7.895  69.718  1.00  0.00    -0.163 C  
BRANCH   7   8
HETATM    8  C   UNL     1      -9.937   6.486  69.430  1.00  0.00    -0.178 C  
BRANCH   8   9
HETATM    9  C   UNL     1     -11.442   6.395  69.642  1.00  0.00    -0.446 C  
BRANCH   9  10
HETATM   10  C   UNL     1     -11.766   6.253  71.123  1.00  0.00    -0.292 C  
BRANCH  10  11
HETATM   11  C   UNL     1     -12.959   7.121  71.495  1.00  0.00    -0.431 C  
BRANCH  11  12
HETATM   12  C   UNL     1     -12.529   8.252  72.419  1.00  0.00    -0.355 C  
BRANCH  12  13
HETATM   13  C   UNL     1     -13.431   9.462  72.235  1.00  0.00    -0.539 C  
BRANCH  13  14
HETATM   14  C   UNL     1     -13.278  10.036  70.832  1.00  0.00    -0.336 C  
BRANCH  14  15
HETATM   15  C   UNL     1     -11.898  10.652  70.654  1.00  0.00    -0.463 C  
BRANCH  15  16
HETATM   16  C   UNL     1     -12.013  12.113  70.241  1.00  0.00    -0.389 C  
BRANCH  16  17
HETATM   17  C   UNL     1     -11.892  12.256  68.729  1.00  0.00    -0.356 C  
BRANCH  17  18
HETATM   18  C   UNL     1     -12.011  13.718  68.316  1.00  0.00    -0.392 C  
BRANCH  18  19
HETATM   19  C   UNL     1     -11.126  14.015  67.110  1.00  0.00    -0.313 C  
BRANCH  19  20
HETATM   20  C   UNL     1     -11.929  13.927  65.816  1.00  0.00    -0.419 C  
BRANCH  20  21
HETATM   21  C   UNL     1     -11.225  13.041  64.796  1.00  0.00    -0.344 C  
BRANCH  21  22
HETATM   22  C   UNL     1     -12.100  12.805  63.571  1.00  0.00    -0.559 C  
HETATM   23  O   UNL     1     -12.646  14.040  63.126  1.00  0.00    -1.062 OA 
HETATM   24  H   UNL     1     -13.192  13.893  62.362  1.00  0.00     0.000 HD 
ENDBRANCH  21  22
ENDBRANCH  20  21
ENDBRANCH  19  20
ENDBRANCH  18  19
ENDBRANCH  17  18
ENDBRANCH  16  17
ENDBRANCH  15  16
ENDBRANCH  14  15
ENDBRANCH  13  14
ENDBRANCH  12  13
ENDBRANCH  11  12
ENDBRANCH  10  11
ENDBRANCH   9  10
ENDBRANCH   8   9
ENDBRANCH   7   8
ENDBRANCH   6   7
ENDBRANCH   5   6
ENDBRANCH   4   5
ENDBRANCH   3   4
ENDBRANCH   2   3
TORSDOF 20
ENDMDL
MODEL      119
REMARK 921   NORMALIZED FREE ENERGY PREDICTED BY IDOCK:   -3.71 KCAL/MOL
REMARK 922        TOTAL FREE ENERGY PREDICTED BY IDOCK:  -10.91 KCAL/MOL
REMARK 923 INTER-LIGAND FREE ENERGY PREDICTED BY IDOCK:   -8.42 KCAL/MOL
REMARK 924 INTRA-LIGAND FREE ENERGY PREDICTED BY IDOCK:   -2.49 KCAL/MOL
REMARK 927      BINDING AFFINITY PREDICTED BY RF-SCORE:    0.00 PKD
ROOT
HETATM    1  C   UNL     1     -10.188   6.693  67.495  1.00  0.00    -0.229 C  
HETATM    2  C   UNL     1      -9.597   7.865  68.260  1.00  0.00    -0.164 C  
ENDROOT
BRANCH   2   3
HETATM    3  C   UNL     1     -10.418   8.178  69.507  1.00  0.00    -0.227 C  
BRANCH   3   4
HETATM    4  C   UNL     1     -10.457   9.679  69.778  1.00  0.00    -0.263 C  
BRANCH   4   5
HETATM    5  C   UNL     1     -11.061  10.427  68.593  1.00  0.00    -0.313 C  
BRANCH   5   6
HETATM    6  C   UNL     1     -10.342  11.752  68.364  1.00  0.00    -0.223 C  
BRANCH   6   7
HETATM    7  C   UNL     1      -8.976  11.520  67.731  1.00  0.00    -0.160 C  
BRANCH   7   8
HETATM    8  C   UNL     1      -9.013  11.841  66.242  1.00  0.00    -0.176 C  
BRANCH   8   9
HETATM    9  C   UNL     1      -9.133  10.563  65.421  1.00  0.00    -0.215 C  
BRANCH   9  10
HETATM   10  C   UNL     1     -10.091  10.765  64.255  1.00  0.00    -0.427 C  
BRANCH  10  11
HETATM   11  C   UNL     1     -11.307  11.568  64.696  1.00  0.00    -0.226 C  
BRANCH  11  12
HETATM   12  C   UNL     1     -11.654  12.624  63.657  1.00  0.00    -0.575 C  
BRANCH  12  13
HETATM   13  C   UNL     1     -12.218  13.867  64.328  1.00  0.00    -0.447 C  
BRANCH  13  14
HETATM   14  C   UNL     1     -12.305  13.668  65.835  1.00  0.00    -0.516 C  
BRANCH  14  15
HETATM   15  C   UNL     1     -11.409  14.663  66.558  1.00  0.00    -0.353 C  
BRANCH  15  16
HETATM   16  C   UNL     1     -11.905  14.896  67.979  1.00  0.00    -0.296 C  
BRANCH  16  17
HETATM   17  C   UNL     1     -11.184  16.081  68.612  1.00  0.00    -0.366 C  
BRANCH  17  18
HETATM   18  C   UNL     1     -10.906  15.814  70.087  1.00  0.00    -0.360 C  
BRANCH  18  19
HETATM   19  C   UNL     1     -12.182  15.404  70.814  1.00  0.00    -0.430 C  
BRANCH  19  20
HETATM   20  C   UNL     1     -12.166  15.904  72.255  1.00  0.00    -0.585 C  
BRANCH  20  21
HETATM   21  C   UNL     1     -13.041  15.031  73.146  1.00  0.00    -0.619 C  
BRANCH  21  22
HETATM   22  C   UNL     1     -14.009  14.193  72.320  1.00  0.00    -0.548 C  
HETATM   23  O   UNL     1     -13.828  12.815  72.619  1.00  0.00    -0.699 OA 
HETATM   24  H   UNL     1     -14.432  12.293  72.104  1.00  0.00     0.000 HD 
ENDBRANCH  21  22
ENDBRANCH  20  21
ENDBRANCH  19  20
ENDBRANCH  18  19
ENDBRANCH  17  18
ENDBRANCH  16  17
ENDBRANCH  15  16
ENDBRANCH  14  15
ENDBRANCH  13  14
ENDBRANCH  12  13
ENDBRANCH  11  12
ENDBRANCH  10  11
ENDBRANCH   9  10
ENDBRANCH   8   9
ENDBRANCH   7   8
ENDBRANCH   6   7
ENDBRANCH   5   6
ENDBRANCH   4   5
ENDBRANCH   3   4
ENDBRANCH   2   3
TORSDOF 20
ENDMDL
MODEL      120
REMARK 921   NORMALIZED FREE ENERGY PREDICTED BY IDOCK:   -3.70 KCAL/MOL
REMARK 922        TOTAL FREE ENERGY PREDICTED BY IDOCK:  -10.90 KCAL/MOL
REMARK 923 INTER-LIGAND FREE ENERGY PREDICTED BY IDOCK:   -8.54 KCAL/MOL
REMARK 924 INTRA-LIGAND FREE ENERGY PREDICTED BY IDOCK:   -2.36 KCAL/MOL
REMARK 927      BINDING AFFINITY PREDICTED BY RF-SCORE:    0.00 PKD
ROOT
HETATM    1  C   UNL     1      -9.110  10.224  68.987  1.00  0.00    -0.187 C  
HETATM    2  C   UNL     1     -10.493   9.687  68.659  1.00  0.00    -0.235 C  
ENDROOT
BRANCH   2   3
HETATM    3  C   UNL     1     -11.567  10.406  69.469  1.00  0.00    -0.288 C  
BRANCH   3   4
HETATM    4  C   UNL     1     -11.670   9.830  70.879  1.00  0.00    -0.429 C  
BRANCH   4   5
HETATM    5  C   UNL     1     -12.762  10.540  71.674  1.00  0.00    -0.550 C  
BRANCH   5   6
HETATM    6  C   UNL     1     -12.851  12.011  71.280  1.00  0.00    -0.364 C  
BRANCH   6   7
HETATM    7  C   UNL     1     -13.626  12.802  72.326  1.00  0.00    -0.563 C  
BRANCH   7   8
HETATM    8  C   UNL     1     -13.073  14.216  72.447  1.00  0.00    -0.525 C  
BRANCH   8   9
HETATM    9  C   UNL     1     -13.743  15.142  71.442  1.00  0.00    -0.577 C  
BRANCH   9  10
HETATM   10  C   UNL     1     -12.804  15.441  70.282  1.00  0.00    -0.277 C  
BRANCH  10  11
HETATM   11  C   UNL     1     -11.372  15.584  70.778  1.00  0.00    -0.384 C  
BRANCH  11  12
HETATM   12  C   UNL     1     -10.613  16.596  69.932  1.00  0.00    -0.168 C  
BRANCH  12  13
HETATM   13  C   UNL     1     -11.127  16.586  68.501  1.00  0.00    -0.335 C  
BRANCH  13  14
HETATM   14  C   UNL     1      -9.969  16.485  67.516  1.00  0.00    -0.255 C  
BRANCH  14  15
HETATM   15  C   UNL     1      -8.985  15.413  67.958  1.00  0.00    -0.171 C  
BRANCH  15  16
HETATM   16  C   UNL     1      -9.139  14.160  67.105  1.00  0.00    -0.240 C  
BRANCH  16  17
HETATM   17  C   UNL     1     -10.298  13.307  67.607  1.00  0.00    -0.230 C  
BRANCH  17  18
HETATM   18  C   UNL     1     -10.922  12.522  66.460  1.00  0.00    -0.303 C  
BRANCH  18  19
HETATM   19  C   UNL     1      -9.848  11.993  65.516  1.00  0.00    -0.251 C  
BRANCH  19  20
HETATM   20  C   UNL     1     -10.181  12.342  64.069  1.00  0.00    -0.399 C  
BRANCH  20  21
HETATM   21  C   UNL     1     -11.318  11.473  63.545  1.00  0.00    -0.375 C  
BRANCH  21  22
HETATM   22  C   UNL     1     -12.590  12.288  63.348  1.00  0.00    -0.427 C  
HETATM   23  O   UNL     1     -12.258  13.655  63.144  1.00  0.00    -1.003 OA 
HETATM   24  H   UNL     1     -13.051  14.164  63.021  1.00  0.00     0.000 HD 
ENDBRANCH  21  22
ENDBRANCH  20  21
ENDBRANCH  19  20
ENDBRANCH  18  19
ENDBRANCH  17  18
ENDBRANCH  16  17
ENDBRANCH  15  16
ENDBRANCH  14  15
ENDBRANCH  13  14
ENDBRANCH  12  13
ENDBRANCH  11  12
ENDBRANCH  10  11
ENDBRANCH   9  10
ENDBRANCH   8   9
ENDBRANCH   7   8
ENDBRANCH   6   7
ENDBRANCH   5   6
ENDBRANCH   4   5
ENDBRANCH   3   4
ENDBRANCH   2   3
TORSDOF 20
ENDMDL
MODEL      121
REMARK 921   NORMALIZED FREE ENERGY PREDICTED BY IDOCK:   -3.70 KCAL/MOL
REMARK 922        TOTAL FREE ENERGY PREDICTED BY IDOCK:  -10.90 KCAL/MOL
REMARK 923 INTER-LIGAND FREE ENERGY PREDICTED BY IDOCK:   -8.37 KCAL/MOL
REMARK 924 INTRA-LIGAND FREE ENERGY PREDICTED BY IDOCK:   -2.53 KCAL/MOL
REMARK 927      BINDING AFFINITY PREDICTED BY RF-SCORE:    0.00 PKD
ROOT
HETATM    1  C   UNL     1     -12.182  14.446  64.350  1.00  0.00    -0.481 C  
HETATM    2  C   UNL     1     -12.075  13.181  63.517  1.00  0.00    -0.585 C  
ENDROOT
BRANCH   2   3
HETATM    3  C   UNL     1     -11.460  12.041  64.324  1.00  0.00    -0.435 C  
BRANCH   3   4
HETATM    4  C   UNL     1     -11.738  12.211  65.815  1.00  0.00    -0.391 C  
BRANCH   4   5
HETATM    5  C   UNL     1     -10.948  11.192  66.631  1.00  0.00    -0.289 C  
BRANCH   5   6
HETATM    6  C   UNL     1     -10.023  10.378  65.733  1.00  0.00    -0.334 C  
BRANCH   6   7
HETATM    7  C   UNL     1      -9.670   9.048  66.389  1.00  0.00    -0.337 C  
BRANCH   7   8
HETATM    8  C   UNL     1     -10.646   8.730  67.514  1.00  0.00    -0.298 C  
BRANCH   8   9
HETATM    9  C   UNL     1     -10.185   7.505  68.293  1.00  0.00    -0.218 C  
BRANCH   9  10
HETATM   10  C   UNL     1     -10.465   7.680  69.779  1.00  0.00    -0.232 C  
BRANCH  10  11
HETATM   11  C   UNL     1     -11.628   6.797  70.210  1.00  0.00    -0.417 C  
BRANCH  11  12
HETATM   12  C   UNL     1     -12.350   7.411  71.401  1.00  0.00    -0.394 C  
BRANCH  12  13
HETATM   13  C   UNL     1     -11.813   8.804  71.689  1.00  0.00    -0.399 C  
BRANCH  13  14
HETATM   14  C   UNL     1     -12.928   9.838  71.599  1.00  0.00    -0.517 C  
BRANCH  14  15
HETATM   15  C   UNL     1     -12.951  10.479  70.220  1.00  0.00    -0.115 C  
BRANCH  15  16
HETATM   16  C   UNL     1     -11.911  11.588  70.127  1.00  0.00    -0.452 C  
BRANCH  16  17
HETATM   17  C   UNL     1     -12.327  12.788  70.969  1.00  0.00    -0.316 C  
BRANCH  17  18
HETATM   18  C   UNL     1     -12.534  14.016  70.090  1.00  0.00    -0.380 C  
BRANCH  18  19
HETATM   19  C   UNL     1     -11.299  14.288  69.239  1.00  0.00    -0.322 C  
BRANCH  19  20
HETATM   20  C   UNL     1     -11.538  15.466  68.302  1.00  0.00    -0.361 C  
BRANCH  20  21
HETATM   21  C   UNL     1     -10.459  15.539  67.228  1.00  0.00    -0.279 C  
BRANCH  21  22
HETATM   22  C   UNL     1     -10.224  16.974  66.776  1.00  0.00    -0.298 C  
HETATM   23  O   UNL     1      -9.400  16.985  65.618  1.00  0.00    -0.523 OA 
HETATM   24  H   UNL     1      -9.254  17.880  65.336  1.00  0.00     0.000 HD 
ENDBRANCH  21  22
ENDBRANCH  20  21
ENDBRANCH  19  20
ENDBRANCH  18  19
ENDBRANCH  17  18
ENDBRANCH  16  17
ENDBRANCH  15  16
ENDBRANCH  14  15
ENDBRANCH  13  14
ENDBRANCH  12  13
ENDBRANCH  11  12
ENDBRANCH  10  11
ENDBRANCH   9  10
ENDBRANCH   8   9
ENDBRANCH   7   8
ENDBRANCH   6   7
ENDBRANCH   5   6
ENDBRANCH   4   5
ENDBRANCH   3   4
ENDBRANCH   2   3
TORSDOF 20
ENDMDL
MODEL      122
REMARK 921   NORMALIZED FREE ENERGY PREDICTED BY IDOCK:   -3.70 KCAL/MOL
REMARK 922        TOTAL FREE ENERGY PREDICTED BY IDOCK:  -10.89 KCAL/MOL
REMARK 923 INTER-LIGAND FREE ENERGY PREDICTED BY IDOCK:   -7.74 KCAL/MOL
REMARK 924 INTRA-LIGAND FREE ENERGY PREDICTED BY IDOCK:   -3.15 KCAL/MOL
REMARK 927      BINDING AFFINITY PREDICTED BY RF-SCORE:    0.00 PKD
ROOT
HETATM    1  C   UNL     1      -7.624   8.496  68.942  1.00  0.00    -0.096 C  
HETATM    2  C   UNL     1      -8.634   9.448  68.325  1.00  0.00    -0.120 C  
ENDROOT
BRANCH   2   3
HETATM    3  C   UNL     1      -7.973  10.762  67.918  1.00  0.00    -0.110 C  
BRANCH   3   4
HETATM    4  C   UNL     1      -8.611  11.330  66.653  1.00  0.00    -0.167 C  
BRANCH   4   5
HETATM    5  C   UNL     1      -9.481  10.280  65.969  1.00  0.00    -0.234 C  
BRANCH   5   6
HETATM    6  C   UNL     1     -10.759  10.907  65.422  1.00  0.00    -0.189 C  
BRANCH   6   7
HETATM    7  C   UNL     1     -10.639  11.153  63.923  1.00  0.00    -0.431 C  
BRANCH   7   8
HETATM    8  C   UNL     1     -11.484  12.350  63.507  1.00  0.00    -0.561 C  
BRANCH   8   9
HETATM    9  C   UNL     1     -12.424  12.760  64.632  1.00  0.00    -0.525 C  
BRANCH   9  10
HETATM   10  C   UNL     1     -12.185  14.211  65.027  1.00  0.00    -0.450 C  
BRANCH  10  11
HETATM   11  C   UNL     1     -10.723  14.584  64.827  1.00  0.00    -0.414 C  
BRANCH  11  12
HETATM   12  C   UNL     1     -10.031  14.772  66.170  1.00  0.00    -0.324 C  
BRANCH  12  13
HETATM   13  C   UNL     1     -11.046  14.734  67.301  1.00  0.00    -0.334 C  
BRANCH  13  14
HETATM   14  C   UNL     1     -10.681  13.655  68.313  1.00  0.00    -0.266 C  
BRANCH  14  15
HETATM   15  C   UNL     1     -11.898  12.807  68.652  1.00  0.00    -0.341 C  
BRANCH  15  16
HETATM   16  C   UNL     1     -11.476  11.401  69.056  1.00  0.00    -0.366 C  
BRANCH  16  17
HETATM   17  C   UNL     1     -12.400  10.851  70.136  1.00  0.00    -0.399 C  
BRANCH  17  18
HETATM   18  C   UNL     1     -11.596  10.160  71.231  1.00  0.00    -0.387 C  
BRANCH  18  19
HETATM   19  C   UNL     1     -12.392   9.014  71.847  1.00  0.00    -0.455 C  
BRANCH  19  20
HETATM   20  C   UNL     1     -11.457   7.943  72.398  1.00  0.00    -0.433 C  
BRANCH  20  21
HETATM   21  C   UNL     1     -10.625   7.317  71.285  1.00  0.00    -0.236 C  
BRANCH  21  22
HETATM   22  C   UNL     1     -11.496   6.513  70.329  1.00  0.00    -0.411 C  
HETATM   23  O   UNL     1     -11.341   7.007  69.006  1.00  0.00    -0.490 OA 
HETATM   24  H   UNL     1     -11.885   6.505  68.409  1.00  0.00     0.000 HD 
ENDBRANCH  21  22
ENDBRANCH  20  21
ENDBRANCH  19  20
ENDBRANCH  18  19
ENDBRANCH  17  18
ENDBRANCH  16  17
ENDBRANCH  15  16
ENDBRANCH  14  15
ENDBRANCH  13  14
ENDBRANCH  12  13
ENDBRANCH  11  12
ENDBRANCH  10  11
ENDBRANCH   9  10
ENDBRANCH   8   9
ENDBRANCH   7   8
ENDBRANCH   6   7
ENDBRANCH   5   6
ENDBRANCH   4   5
ENDBRANCH   3   4
ENDBRANCH   2   3
TORSDOF 20
ENDMDL
MODEL      123
REMARK 921   NORMALIZED FREE ENERGY PREDICTED BY IDOCK:   -3.70 KCAL/MOL
REMARK 922        TOTAL FREE ENERGY PREDICTED BY IDOCK:  -10.89 KCAL/MOL
REMARK 923 INTER-LIGAND FREE ENERGY PREDICTED BY IDOCK:   -8.35 KCAL/MOL
REMARK 924 INTRA-LIGAND FREE ENERGY PREDICTED BY IDOCK:   -2.53 KCAL/MOL
REMARK 927      BINDING AFFINITY PREDICTED BY RF-SCORE:    0.00 PKD
ROOT
HETATM    1  C   UNL     1     -10.433  14.215  67.183  1.00  0.00    -0.270 C  
HETATM    2  C   UNL     1     -11.841  14.197  66.612  1.00  0.00    -0.447 C  
ENDROOT
BRANCH   2   3
HETATM    3  C   UNL     1     -11.823  13.916  65.113  1.00  0.00    -0.370 C  
BRANCH   3   4
HETATM    4  C   UNL     1     -12.716  12.729  64.765  1.00  0.00    -0.469 C  
BRANCH   4   5
HETATM    5  C   UNL     1     -12.192  12.001  63.531  1.00  0.00    -0.653 C  
BRANCH   5   6
HETATM    6  C   UNL     1     -10.667  11.999  63.509  1.00  0.00    -0.513 C  
BRANCH   6   7
HETATM    7  C   UNL     1     -10.122  10.726  64.145  1.00  0.00    -0.418 C  
BRANCH   7   8
HETATM    8  C   UNL     1      -9.439  11.038  65.470  1.00  0.00    -0.250 C  
BRANCH   8   9
HETATM    9  C   UNL     1     -10.301  10.580  66.639  1.00  0.00    -0.295 C  
BRANCH   9  10
HETATM   10  C   UNL     1      -9.455   9.859  67.678  1.00  0.00    -0.167 C  
BRANCH  10  11
HETATM   11  C   UNL     1     -10.164   8.605  68.168  1.00  0.00    -0.250 C  
BRANCH  11  12
HETATM   12  C   UNL     1     -10.599   7.744  66.991  1.00  0.00    -0.396 C  
BRANCH  12  13
HETATM   13  C   UNL     1     -10.935   6.335  67.456  1.00  0.00    -0.444 C  
BRANCH  13  14
HETATM   14  C   UNL     1      -9.663   5.551  67.751  1.00  0.00    -0.150 C  
BRANCH  14  15
HETATM   15  C   UNL     1      -9.658   5.064  69.192  1.00  0.00    -0.220 C  
BRANCH  15  16
HETATM   16  C   UNL     1     -10.890   5.567  69.932  1.00  0.00    -0.298 C  
BRANCH  16  17
HETATM   17  C   UNL     1     -10.641   5.594  71.435  1.00  0.00    -0.317 C  
BRANCH  17  18
HETATM   18  C   UNL     1     -11.640   6.513  72.129  1.00  0.00    -0.349 C  
BRANCH  18  19
HETATM   19  C   UNL     1     -10.929   7.697  72.776  1.00  0.00    -0.432 C  
BRANCH  19  20
HETATM   20  C   UNL     1     -11.070   8.948  71.915  1.00  0.00    -0.442 C  
BRANCH  20  21
HETATM   21  C   UNL     1     -12.448   9.013  71.268  1.00  0.00    -0.346 C  
BRANCH  21  22
HETATM   22  C   UNL     1     -12.845  10.450  70.956  1.00  0.00    -0.401 C  
HETATM   23  O   UNL     1     -12.383  10.807  69.660  1.00  0.00    -0.457 OA 
HETATM   24  H   UNL     1     -12.630  11.703  69.466  1.00  0.00     0.000 HD 
ENDBRANCH  21  22
ENDBRANCH  20  21
ENDBRANCH  19  20
ENDBRANCH  18  19
ENDBRANCH  17  18
ENDBRANCH  16  17
ENDBRANCH  15  16
ENDBRANCH  14  15
ENDBRANCH  13  14
ENDBRANCH  12  13
ENDBRANCH  11  12
ENDBRANCH  10  11
ENDBRANCH   9  10
ENDBRANCH   8   9
ENDBRANCH   7   8
ENDBRANCH   6   7
ENDBRANCH   5   6
ENDBRANCH   4   5
ENDBRANCH   3   4
ENDBRANCH   2   3
TORSDOF 20
ENDMDL
MODEL      124
REMARK 921   NORMALIZED FREE ENERGY PREDICTED BY IDOCK:   -3.70 KCAL/MOL
REMARK 922        TOTAL FREE ENERGY PREDICTED BY IDOCK:  -10.88 KCAL/MOL
REMARK 923 INTER-LIGAND FREE ENERGY PREDICTED BY IDOCK:   -7.55 KCAL/MOL
REMARK 924 INTRA-LIGAND FREE ENERGY PREDICTED BY IDOCK:   -3.33 KCAL/MOL
REMARK 927      BINDING AFFINITY PREDICTED BY RF-SCORE:    0.00 PKD
ROOT
HETATM    1  C   UNL     1     -12.522  12.343  64.444  1.00  0.00    -0.520 C  
HETATM    2  C   UNL     1     -11.277  12.901  63.777  1.00  0.00    -0.452 C  
ENDROOT
BRANCH   2   3
HETATM    3  C   UNL     1     -10.142  11.881  63.792  1.00  0.00    -0.423 C  
BRANCH   3   4
HETATM    4  C   UNL     1     -10.120  11.102  65.104  1.00  0.00    -0.335 C  
BRANCH   4   5
HETATM    5  C   UNL     1      -8.809  10.337  65.257  1.00  0.00    -0.200 C  
BRANCH   5   6
HETATM    6  C   UNL     1      -7.990  10.891  66.418  1.00  0.00    -0.157 C  
BRANCH   6   7
HETATM    7  C   UNL     1      -8.766  11.976  67.154  1.00  0.00    -0.183 C  
BRANCH   7   8
HETATM    8  C   UNL     1      -7.813  12.989  67.775  1.00  0.00    -0.157 C  
BRANCH   8   9
HETATM    9  C   UNL     1      -8.311  14.409  67.539  1.00  0.00    -0.198 C  
BRANCH   9  10
HETATM   10  C   UNL     1      -9.306  14.442  66.388  1.00  0.00    -0.284 C  
BRANCH  10  11
HETATM   11  C   UNL     1     -10.508  15.306  66.746  1.00  0.00    -0.293 C  
BRANCH  11  12
HETATM   12  C   UNL     1     -11.661  14.440  67.234  1.00  0.00    -0.401 C  
BRANCH  12  13
HETATM   13  C   UNL     1     -11.817  14.562  68.741  1.00  0.00    -0.350 C  
BRANCH  13  14
HETATM   14  C   UNL     1     -11.526  13.229  69.419  1.00  0.00    -0.323 C  
BRANCH  14  15
HETATM   15  C   UNL     1     -11.854  12.073  68.486  1.00  0.00    -0.369 C  
BRANCH  15  16
HETATM   16  C   UNL     1     -11.738  10.743  69.220  1.00  0.00    -0.374 C  
BRANCH  16  17
HETATM   17  C   UNL     1     -12.723  10.682  70.381  1.00  0.00    -0.340 C  
BRANCH  17  18
HETATM   18  C   UNL     1     -12.145   9.869  71.534  1.00  0.00    -0.496 C  
BRANCH  18  19
HETATM   19  C   UNL     1     -10.724   9.415  71.218  1.00  0.00    -0.421 C  
BRANCH  19  20
HETATM   20  C   UNL     1     -10.585   7.908  71.404  1.00  0.00    -0.246 C  
BRANCH  20  21
HETATM   21  C   UNL     1      -9.823   7.282  70.241  1.00  0.00    -0.179 C  
BRANCH  21  22
HETATM   22  C   UNL     1     -10.738   7.040  69.048  1.00  0.00    -0.210 C  
HETATM   23  O   UNL     1     -12.020   6.624  69.500  1.00  0.00    -0.642 OA 
HETATM   24  H   UNL     1     -12.590   6.473  68.756  1.00  0.00     0.000 HD 
ENDBRANCH  21  22
ENDBRANCH  20  21
ENDBRANCH  19  20
ENDBRANCH  18  19
ENDBRANCH  17  18
ENDBRANCH  16  17
ENDBRANCH  15  16
ENDBRANCH  14  15
ENDBRANCH  13  14
ENDBRANCH  12  13
ENDBRANCH  11  12
ENDBRANCH  10  11
ENDBRANCH   9  10
ENDBRANCH   8   9
ENDBRANCH   7   8
ENDBRANCH   6   7
ENDBRANCH   5   6
ENDBRANCH   4   5
ENDBRANCH   3   4
ENDBRANCH   2   3
TORSDOF 20
ENDMDL
MODEL      125
REMARK 921   NORMALIZED FREE ENERGY PREDICTED BY IDOCK:   -3.69 KCAL/MOL
REMARK 922        TOTAL FREE ENERGY PREDICTED BY IDOCK:  -10.87 KCAL/MOL
REMARK 923 INTER-LIGAND FREE ENERGY PREDICTED BY IDOCK:   -8.07 KCAL/MOL
REMARK 924 INTRA-LIGAND FREE ENERGY PREDICTED BY IDOCK:   -2.80 KCAL/MOL
REMARK 927      BINDING AFFINITY PREDICTED BY RF-SCORE:    0.00 PKD
ROOT
HETATM    1  C   UNL     1     -13.126   7.491  71.420  1.00  0.00    -0.373 C  
HETATM    2  C   UNL     1     -12.091   8.567  71.703  1.00  0.00    -0.373 C  
ENDROOT
BRANCH   2   3
HETATM    3  C   UNL     1     -10.915   8.465  70.736  1.00  0.00    -0.276 C  
BRANCH   3   4
HETATM    4  C   UNL     1     -10.376   9.848  70.378  1.00  0.00    -0.322 C  
BRANCH   4   5
HETATM    5  C   UNL     1     -11.504  10.763  69.912  1.00  0.00    -0.398 C  
BRANCH   5   6
HETATM    6  C   UNL     1     -11.544  10.842  68.390  1.00  0.00    -0.346 C  
BRANCH   6   7
HETATM    7  C   UNL     1     -10.147  10.681  67.805  1.00  0.00    -0.203 C  
BRANCH   7   8
HETATM    8  C   UNL     1     -10.221  10.194  66.364  1.00  0.00    -0.288 C  
BRANCH   8   9
HETATM    9  C   UNL     1      -9.307  11.021  65.470  1.00  0.00    -0.242 C  
BRANCH   9  10
HETATM   10  C   UNL     1      -9.890  11.137  64.069  1.00  0.00    -0.349 C  
BRANCH  10  11
HETATM   11  C   UNL     1     -11.372  11.481  64.135  1.00  0.00    -0.349 C  
BRANCH  11  12
HETATM   12  C   UNL     1     -11.662  12.744  63.338  1.00  0.00    -0.556 C  
BRANCH  12  13
HETATM   13  C   UNL     1     -12.264  13.814  64.236  1.00  0.00    -0.444 C  
BRANCH  13  14
HETATM   14  C   UNL     1     -12.406  13.298  65.662  1.00  0.00    -0.521 C  
BRANCH  14  15
HETATM   15  C   UNL     1     -11.967  14.360  66.660  1.00  0.00    -0.414 C  
BRANCH  15  16
HETATM   16  C   UNL     1     -10.456  14.327  66.847  1.00  0.00    -0.272 C  
BRANCH  16  17
HETATM   17  C   UNL     1     -10.057  15.049  68.128  1.00  0.00    -0.220 C  
BRANCH  17  18
HETATM   18  C   UNL     1     -11.175  15.974  68.594  1.00  0.00    -0.366 C  
BRANCH  18  19
HETATM   19  C   UNL     1     -10.638  17.373  68.881  1.00  0.00    -0.243 C  
BRANCH  19  20
HETATM   20  C   UNL     1     -10.397  18.135  67.583  1.00  0.00    -0.411 C  
BRANCH  20  21
HETATM   21  C   UNL     1      -9.035  18.818  67.595  1.00  0.00    -0.299 C  
BRANCH  21  22
HETATM   22  C   UNL     1      -8.122  18.250  66.516  1.00  0.00    -0.269 C  
HETATM   23  O   UNL     1      -8.838  17.311  65.725  1.00  0.00    -0.530 OA 
HETATM   24  H   UNL     1      -8.269  16.956  65.052  1.00  0.00     0.000 HD 
ENDBRANCH  21  22
ENDBRANCH  20  21
ENDBRANCH  19  20
ENDBRANCH  18  19
ENDBRANCH  17  18
ENDBRANCH  16  17
ENDBRANCH  15  16
ENDBRANCH  14  15
ENDBRANCH  13  14
ENDBRANCH  12  13
ENDBRANCH  11  12
ENDBRANCH  10  11
ENDBRANCH   9  10
ENDBRANCH   8   9
ENDBRANCH   7   8
ENDBRANCH   6   7
ENDBRANCH   5   6
ENDBRANCH   4   5
ENDBRANCH   3   4
ENDBRANCH   2   3
TORSDOF 20
ENDMDL
MODEL      126
REMARK 921   NORMALIZED FREE ENERGY PREDICTED BY IDOCK:   -3.69 KCAL/MOL
REMARK 922        TOTAL FREE ENERGY PREDICTED BY IDOCK:  -10.86 KCAL/MOL
REMARK 923 INTER-LIGAND FREE ENERGY PREDICTED BY IDOCK:   -8.05 KCAL/MOL
REMARK 924 INTRA-LIGAND FREE ENERGY PREDICTED BY IDOCK:   -2.81 KCAL/MOL
REMARK 927      BINDING AFFINITY PREDICTED BY RF-SCORE:    0.00 PKD
ROOT
HETATM    1  C   UNL     1      -9.105   9.201  70.053  1.00  0.00    -0.207 C  
HETATM    2  C   UNL     1     -10.533   9.593  69.713  1.00  0.00    -0.263 C  
ENDROOT
BRANCH   2   3
HETATM    3  C   UNL     1     -11.263  10.130  70.940  1.00  0.00    -0.383 C  
BRANCH   3   4
HETATM    4  C   UNL     1     -12.662   9.531  71.054  1.00  0.00    -0.314 C  
BRANCH   4   5
HETATM    5  C   UNL     1     -12.671   8.362  72.034  1.00  0.00    -0.399 C  
BRANCH   5   6
HETATM    6  C   UNL     1     -11.367   8.305  72.824  1.00  0.00    -0.332 C  
BRANCH   6   7
HETATM    7  C   UNL     1     -10.920   6.862  73.021  1.00  0.00    -0.308 C  
BRANCH   7   8
HETATM    8  C   UNL     1     -11.606   5.946  72.016  1.00  0.00    -0.289 C  
BRANCH   8   9
HETATM    9  C   UNL     1     -10.657   5.592  70.878  1.00  0.00    -0.328 C  
BRANCH   9  10
HETATM   10  C   UNL     1     -11.232   6.044  69.543  1.00  0.00    -0.416 C  
BRANCH  10  11
HETATM   11  C   UNL     1     -10.163   6.002  68.460  1.00  0.00    -0.227 C  
BRANCH  11  12
HETATM   12  C   UNL     1     -10.620   6.770  67.228  1.00  0.00    -0.390 C  
BRANCH  12  13
HETATM   13  C   UNL     1      -9.484   6.894  66.225  1.00  0.00    -0.122 C  
BRANCH  13  14
HETATM   14  C   UNL     1      -8.579   8.065  66.584  1.00  0.00    -0.141 C  
BRANCH  14  15
HETATM   15  C   UNL     1      -8.764   9.205  65.593  1.00  0.00    -0.203 C  
BRANCH  15  16
HETATM   16  C   UNL     1      -9.204  10.474  66.313  1.00  0.00    -0.192 C  
BRANCH  16  17
HETATM   17  C   UNL     1     -10.719  10.629  66.253  1.00  0.00    -0.172 C  
BRANCH  17  18
HETATM   18  C   UNL     1     -11.100  12.073  65.951  1.00  0.00    -0.369 C  
BRANCH  18  19
HETATM   19  C   UNL     1     -11.678  12.199  64.546  1.00  0.00    -0.410 C  
BRANCH  19  20
HETATM   20  C   UNL     1     -11.731  13.660  64.113  1.00  0.00    -0.424 C  
BRANCH  20  21
HETATM   21  C   UNL     1     -10.825  14.522  64.984  1.00  0.00    -0.425 C  
BRANCH  21  22
HETATM   22  C   UNL     1     -11.060  16.005  64.728  1.00  0.00    -0.365 C  
HETATM   23  O   UNL     1     -11.997  16.169  63.672  1.00  0.00    -1.375 OA 
HETATM   24  H   UNL     1     -12.143  17.094  63.513  1.00  0.00     0.000 HD 
ENDBRANCH  21  22
ENDBRANCH  20  21
ENDBRANCH  19  20
ENDBRANCH  18  19
ENDBRANCH  17  18
ENDBRANCH  16  17
ENDBRANCH  15  16
ENDBRANCH  14  15
ENDBRANCH  13  14
ENDBRANCH  12  13
ENDBRANCH  11  12
ENDBRANCH  10  11
ENDBRANCH   9  10
ENDBRANCH   8   9
ENDBRANCH   7   8
ENDBRANCH   6   7
ENDBRANCH   5   6
ENDBRANCH   4   5
ENDBRANCH   3   4
ENDBRANCH   2   3
TORSDOF 20
ENDMDL
MODEL      127
REMARK 921   NORMALIZED FREE ENERGY PREDICTED BY IDOCK:   -3.68 KCAL/MOL
REMARK 922        TOTAL FREE ENERGY PREDICTED BY IDOCK:  -10.86 KCAL/MOL
REMARK 923 INTER-LIGAND FREE ENERGY PREDICTED BY IDOCK:   -7.80 KCAL/MOL
REMARK 924 INTRA-LIGAND FREE ENERGY PREDICTED BY IDOCK:   -3.06 KCAL/MOL
REMARK 927      BINDING AFFINITY PREDICTED BY RF-SCORE:    0.00 PKD
ROOT
HETATM    1  C   UNL     1      -8.350   9.117  63.364  1.00  0.00    -0.192 C  
HETATM    2  C   UNL     1      -8.756  10.514  63.801  1.00  0.00    -0.185 C  
ENDROOT
BRANCH   2   3
HETATM    3  C   UNL     1     -10.274  10.646  63.881  1.00  0.00    -0.306 C  
BRANCH   3   4
HETATM    4  C   UNL     1     -10.727  12.045  63.473  1.00  0.00    -0.513 C  
BRANCH   4   5
HETATM    5  C   UNL     1     -11.896  12.508  64.337  1.00  0.00    -0.455 C  
BRANCH   5   6
HETATM    6  C   UNL     1     -11.689  12.104  65.793  1.00  0.00    -0.391 C  
BRANCH   6   7
HETATM    7  C   UNL     1     -12.137  13.218  66.730  1.00  0.00    -0.403 C  
BRANCH   7   8
HETATM    8  C   UNL     1     -11.144  13.391  67.871  1.00  0.00    -0.289 C  
BRANCH   8   9
HETATM    9  C   UNL     1      -9.715  13.384  67.344  1.00  0.00    -0.221 C  
BRANCH   9  10
HETATM   10  C   UNL     1      -8.842  12.455  68.177  1.00  0.00    -0.191 C  
BRANCH  10  11
HETATM   11  C   UNL     1      -8.267  11.343  67.311  1.00  0.00    -0.150 C  
BRANCH  11  12
HETATM   12  C   UNL     1      -8.952  10.019  67.620  1.00  0.00    -0.135 C  
BRANCH  12  13
HETATM   13  C   UNL     1      -8.047   8.854  67.253  1.00  0.00    -0.104 C  
BRANCH  13  14
HETATM   14  C   UNL     1      -8.866   7.689  66.712  1.00  0.00    -0.150 C  
BRANCH  14  15
HETATM   15  C   UNL     1     -10.354   7.964  66.870  1.00  0.00    -0.400 C  
BRANCH  15  16
HETATM   16  C   UNL     1     -11.100   6.685  67.227  1.00  0.00    -0.418 C  
BRANCH  16  17
HETATM   17  C   UNL     1     -10.413   5.965  68.381  1.00  0.00    -0.294 C  
BRANCH  17  18
HETATM   18  C   UNL     1     -11.135   6.244  69.694  1.00  0.00    -0.479 C  
BRANCH  18  19
HETATM   19  C   UNL     1     -10.439   7.355  70.471  1.00  0.00    -0.227 C  
BRANCH  19  20
HETATM   20  C   UNL     1     -11.402   8.503  70.753  1.00  0.00    -0.296 C  
BRANCH  20  21
HETATM   21  C   UNL     1     -12.035   8.360  72.132  1.00  0.00    -0.438 C  
BRANCH  21  22
HETATM   22  C   UNL     1     -13.542   8.572  72.073  1.00  0.00    -0.392 C  
HETATM   23  O   UNL     1     -14.058   8.730  73.388  1.00  0.00    -1.167 OA 
HETATM   24  H   UNL     1     -14.998   8.862  73.352  1.00  0.00     0.000 HD 
ENDBRANCH  21  22
ENDBRANCH  20  21
ENDBRANCH  19  20
ENDBRANCH  18  19
ENDBRANCH  17  18
ENDBRANCH  16  17
ENDBRANCH  15  16
ENDBRANCH  14  15
ENDBRANCH  13  14
ENDBRANCH  12  13
ENDBRANCH  11  12
ENDBRANCH  10  11
ENDBRANCH   9  10
ENDBRANCH   8   9
ENDBRANCH   7   8
ENDBRANCH   6   7
ENDBRANCH   5   6
ENDBRANCH   4   5
ENDBRANCH   3   4
ENDBRANCH   2   3
TORSDOF 20
ENDMDL
MODEL      128
REMARK 921   NORMALIZED FREE ENERGY PREDICTED BY IDOCK:   -3.68 KCAL/MOL
REMARK 922        TOTAL FREE ENERGY PREDICTED BY IDOCK:  -10.85 KCAL/MOL
REMARK 923 INTER-LIGAND FREE ENERGY PREDICTED BY IDOCK:   -7.66 KCAL/MOL
REMARK 924 INTRA-LIGAND FREE ENERGY PREDICTED BY IDOCK:   -3.19 KCAL/MOL
REMARK 927      BINDING AFFINITY PREDICTED BY RF-SCORE:    0.00 PKD
ROOT
HETATM    1  C   UNL     1      -7.817   5.916  69.615  1.00  0.00    -0.097 C  
HETATM    2  C   UNL     1      -8.903   5.372  70.527  1.00  0.00    -0.148 C  
ENDROOT
BRANCH   2   3
HETATM    3  C   UNL     1     -10.182   5.081  69.747  1.00  0.00    -0.336 C  
BRANCH   3   4
HETATM    4  C   UNL     1     -10.053   5.530  68.294  1.00  0.00    -0.226 C  
BRANCH   4   5
HETATM    5  C   UNL     1     -10.988   6.700  68.005  1.00  0.00    -0.332 C  
BRANCH   5   6
HETATM    6  C   UNL     1     -10.200   7.931  67.570  1.00  0.00    -0.308 C  
BRANCH   6   7
HETATM    7  C   UNL     1     -10.371   9.062  68.576  1.00  0.00    -0.233 C  
BRANCH   7   8
HETATM    8  C   UNL     1      -9.017   9.638  68.971  1.00  0.00    -0.148 C  
BRANCH   8   9
HETATM    9  C   UNL     1      -8.740   9.394  70.448  1.00  0.00    -0.278 C  
BRANCH   9  10
HETATM   10  C   UNL     1     -10.043   9.283  71.226  1.00  0.00    -0.361 C  
BRANCH  10  11
HETATM   11  C   UNL     1      -9.851   8.429  72.471  1.00  0.00    -0.359 C  
BRANCH  11  12
HETATM   12  C   UNL     1     -11.053   7.519  72.684  1.00  0.00    -0.398 C  
BRANCH  12  13
HETATM   13  C   UNL     1     -11.977   7.566  71.478  1.00  0.00    -0.336 C  
BRANCH  13  14
HETATM   14  C   UNL     1     -13.429   7.405  71.908  1.00  0.00    -0.301 C  
BRANCH  14  15
HETATM   15  C   UNL     1     -14.280   8.536  71.350  1.00  0.00    -0.378 C  
BRANCH  15  16
HETATM   16  C   UNL     1     -13.408   9.726  70.972  1.00  0.00    -0.301 C  
BRANCH  16  17
HETATM   17  C   UNL     1     -13.314  10.714  72.129  1.00  0.00    -0.335 C  
BRANCH  17  18
HETATM   18  C   UNL     1     -13.005  12.115  71.615  1.00  0.00    -0.427 C  
BRANCH  18  19
HETATM   19  C   UNL     1     -13.781  13.165  72.404  1.00  0.00    -0.640 C  
BRANCH  19  20
HETATM   20  C   UNL     1     -13.863  14.473  71.625  1.00  0.00    -0.513 C  
BRANCH  20  21
HETATM   21  C   UNL     1     -12.633  14.665  70.746  1.00  0.00    -0.415 C  
BRANCH  21  22
HETATM   22  C   UNL     1     -11.807  15.860  71.205  1.00  0.00    -0.449 C  
HETATM   23  O   UNL     1     -10.924  16.262  70.166  1.00  0.00    -0.344 OA 
HETATM   24  H   UNL     1     -10.409  17.007  70.453  1.00  0.00     0.000 HD 
ENDBRANCH  21  22
ENDBRANCH  20  21
ENDBRANCH  19  20
ENDBRANCH  18  19
ENDBRANCH  17  18
ENDBRANCH  16  17
ENDBRANCH  15  16
ENDBRANCH  14  15
ENDBRANCH  13  14
ENDBRANCH  12  13
ENDBRANCH  11  12
ENDBRANCH  10  11
ENDBRANCH   9  10
ENDBRANCH   8   9
ENDBRANCH   7   8
ENDBRANCH   6   7
ENDBRANCH   5   6
ENDBRANCH   4   5
ENDBRANCH   3   4
ENDBRANCH   2   3
TORSDOF 20
ENDMDL
MODEL      129
REMARK 921   NORMALIZED FREE ENERGY PREDICTED BY IDOCK:   -3.68 KCAL/MOL
REMARK 922        TOTAL FREE ENERGY PREDICTED BY IDOCK:  -10.85 KCAL/MOL
REMARK 923 INTER-LIGAND FREE ENERGY PREDICTED BY IDOCK:   -9.12 KCAL/MOL
REMARK 924 INTRA-LIGAND FREE ENERGY PREDICTED BY IDOCK:   -1.74 KCAL/MOL
REMARK 927      BINDING AFFINITY PREDICTED BY RF-SCORE:    0.00 PKD
ROOT
HETATM    1  C   UNL     1      -9.995   5.116  67.455  1.00  0.00    -0.215 C  
HETATM    2  C   UNL     1     -11.023   6.191  67.763  1.00  0.00    -0.400 C  
ENDROOT
BRANCH   2   3
HETATM    3  C   UNL     1     -11.315   6.259  69.259  1.00  0.00    -0.411 C  
BRANCH   3   4
HETATM    4  C   UNL     1     -10.296   5.450  70.056  1.00  0.00    -0.366 C  
BRANCH   4   5
HETATM    5  C   UNL     1     -10.450   5.710  71.551  1.00  0.00    -0.298 C  
BRANCH   5   6
HETATM    6  C   UNL     1     -11.768   6.420  71.846  1.00  0.00    -0.378 C  
BRANCH   6   7
HETATM    7  C   UNL     1     -11.520   7.727  72.589  1.00  0.00    -0.430 C  
BRANCH   7   8
HETATM    8  C   UNL     1     -10.379   8.503  71.944  1.00  0.00    -0.378 C  
BRANCH   8   9
HETATM    9  C   UNL     1     -10.914   9.704  71.176  1.00  0.00    -0.430 C  
BRANCH   9  10
HETATM   10  C   UNL     1     -12.432   9.641  71.073  1.00  0.00    -0.382 C  
BRANCH  10  11
HETATM   11  C   UNL     1     -13.074  10.654  72.011  1.00  0.00    -0.501 C  
BRANCH  11  12
HETATM   12  C   UNL     1     -12.926  12.063  71.455  1.00  0.00    -0.407 C  
BRANCH  12  13
HETATM   13  C   UNL     1     -13.615  13.068  72.364  1.00  0.00    -0.628 C  
BRANCH  13  14
HETATM   14  C   UNL     1     -13.082  14.473  72.111  1.00  0.00    -0.438 C  
BRANCH  14  15
HETATM   15  C   UNL     1     -12.217  14.498  70.860  1.00  0.00    -0.409 C  
BRANCH  15  16
HETATM   16  C   UNL     1     -11.911  15.932  70.449  1.00  0.00    -0.358 C  
BRANCH  16  17
HETATM   17  C   UNL     1     -11.353  15.978  69.031  1.00  0.00    -0.363 C  
BRANCH  17  18
HETATM   18  C   UNL     1     -10.071  15.160  68.932  1.00  0.00    -0.238 C  
BRANCH  18  19
HETATM   19  C   UNL     1     -10.023  14.384  67.620  1.00  0.00    -0.224 C  
BRANCH  19  20
HETATM   20  C   UNL     1     -11.414  14.277  67.005  1.00  0.00    -0.377 C  
BRANCH  20  21
HETATM   21  C   UNL     1     -11.803  12.821  66.783  1.00  0.00    -0.452 C  
BRANCH  21  22
HETATM   22  C   UNL     1     -11.693  12.016  68.071  1.00  0.00    -0.331 C  
HETATM   23  O   UNL     1     -11.839  10.631  67.788  1.00  0.00    -0.699 OA 
HETATM   24  H   UNL     1     -11.770  10.129  68.591  1.00  0.00     0.000 HD 
ENDBRANCH  21  22
ENDBRANCH  20  21
ENDBRANCH  19  20
ENDBRANCH  18  19
ENDBRANCH  17  18
ENDBRANCH  16  17
ENDBRANCH  15  16
ENDBRANCH  14  15
ENDBRANCH  13  14
ENDBRANCH  12  13
ENDBRANCH  11  12
ENDBRANCH  10  11
ENDBRANCH   9  10
ENDBRANCH   8   9
ENDBRANCH   7   8
ENDBRANCH   6   7
ENDBRANCH   5   6
ENDBRANCH   4   5
ENDBRANCH   3   4
ENDBRANCH   2   3
TORSDOF 20
ENDMDL
MODEL      130
REMARK 921   NORMALIZED FREE ENERGY PREDICTED BY IDOCK:   -3.68 KCAL/MOL
REMARK 922        TOTAL FREE ENERGY PREDICTED BY IDOCK:  -10.85 KCAL/MOL
REMARK 923 INTER-LIGAND FREE ENERGY PREDICTED BY IDOCK:   -7.96 KCAL/MOL
REMARK 924 INTRA-LIGAND FREE ENERGY PREDICTED BY IDOCK:   -2.89 KCAL/MOL
REMARK 927      BINDING AFFINITY PREDICTED BY RF-SCORE:    0.00 PKD
ROOT
HETATM    1  C   UNL     1     -12.694  11.872  63.426  1.00  0.00    -0.496 C  
HETATM    2  C   UNL     1     -12.781  12.774  64.645  1.00  0.00    -0.439 C  
ENDROOT
BRANCH   2   3
HETATM    3  C   UNL     1     -11.551  12.618  65.533  1.00  0.00    -0.409 C  
BRANCH   3   4
HETATM    4  C   UNL     1     -10.457  13.605  65.137  1.00  0.00    -0.388 C  
BRANCH   4   5
HETATM    5  C   UNL     1      -9.977  14.396  66.350  1.00  0.00    -0.305 C  
BRANCH   5   6
HETATM    6  C   UNL     1      -9.898  13.503  67.584  1.00  0.00    -0.228 C  
BRANCH   6   7
HETATM    7  C   UNL     1     -10.322  14.269  68.831  1.00  0.00    -0.218 C  
BRANCH   7   8
HETATM    8  C   UNL     1     -11.667  13.768  69.338  1.00  0.00    -0.379 C  
BRANCH   8   9
HETATM    9  C   UNL     1     -11.741  12.249  69.250  1.00  0.00    -0.388 C  
BRANCH   9  10
HETATM   10  C   UNL     1     -12.274  11.663  70.550  1.00  0.00    -0.451 C  
BRANCH  10  11
HETATM   11  C   UNL     1     -11.764  10.242  70.743  1.00  0.00    -0.453 C  
BRANCH  11  12
HETATM   12  C   UNL     1     -12.580   9.523  71.808  1.00  0.00    -0.490 C  
BRANCH  12  13
HETATM   13  C   UNL     1     -11.872   8.253  72.254  1.00  0.00    -0.451 C  
BRANCH  13  14
HETATM   14  C   UNL     1     -12.261   7.081  71.363  1.00  0.00    -0.407 C  
BRANCH  14  15
HETATM   15  C   UNL     1     -11.055   6.193  71.092  1.00  0.00    -0.360 C  
BRANCH  15  16
HETATM   16  C   UNL     1     -10.888   5.958  69.596  1.00  0.00    -0.444 C  
BRANCH  16  17
HETATM   17  C   UNL     1     -10.755   7.283  68.855  1.00  0.00    -0.173 C  
BRANCH  17  18
HETATM   18  C   UNL     1      -9.353   7.856  69.025  1.00  0.00    -0.151 C  
BRANCH  18  19
HETATM   19  C   UNL     1      -9.243   9.226  68.365  1.00  0.00    -0.132 C  
BRANCH  19  20
HETATM   20  C   UNL     1     -10.356   9.423  67.341  1.00  0.00    -0.325 C  
BRANCH  20  21
HETATM   21  C   UNL     1      -9.788   9.543  65.932  1.00  0.00    -0.360 C  
BRANCH  21  22
HETATM   22  C   UNL     1      -8.423  10.218  65.942  1.00  0.00    -0.150 C  
HETATM   23  O   UNL     1      -8.240  10.951  64.738  1.00  0.00    -0.366 OA 
HETATM   24  H   UNL     1      -7.388  11.372  64.744  1.00  0.00     0.000 HD 
ENDBRANCH  21  22
ENDBRANCH  20  21
ENDBRANCH  19  20
ENDBRANCH  18  19
ENDBRANCH  17  18
ENDBRANCH  16  17
ENDBRANCH  15  16
ENDBRANCH  14  15
ENDBRANCH  13  14
ENDBRANCH  12  13
ENDBRANCH  11  12
ENDBRANCH  10  11
ENDBRANCH   9  10
ENDBRANCH   8   9
ENDBRANCH   7   8
ENDBRANCH   6   7
ENDBRANCH   5   6
ENDBRANCH   4   5
ENDBRANCH   3   4
ENDBRANCH   2   3
TORSDOF 20
ENDMDL
MODEL      131
REMARK 921   NORMALIZED FREE ENERGY PREDICTED BY IDOCK:   -3.68 KCAL/MOL
REMARK 922        TOTAL FREE ENERGY PREDICTED BY IDOCK:  -10.85 KCAL/MOL
REMARK 923 INTER-LIGAND FREE ENERGY PREDICTED BY IDOCK:   -7.98 KCAL/MOL
REMARK 924 INTRA-LIGAND FREE ENERGY PREDICTED BY IDOCK:   -2.86 KCAL/MOL
REMARK 927      BINDING AFFINITY PREDICTED BY RF-SCORE:    0.00 PKD
ROOT
HETATM    1  C   UNL     1      -9.934   8.791  68.928  1.00  0.00    -0.200 C  
HETATM    2  C   UNL     1      -9.958   9.389  70.324  1.00  0.00    -0.284 C  
ENDROOT
BRANCH   2   3
HETATM    3  C   UNL     1     -11.170  10.297  70.512  1.00  0.00    -0.408 C  
BRANCH   3   4
HETATM    4  C   UNL     1     -12.164   9.692  71.499  1.00  0.00    -0.483 C  
BRANCH   4   5
HETATM    5  C   UNL     1     -13.278  10.683  71.821  1.00  0.00    -0.526 C  
BRANCH   5   6
HETATM    6  C   UNL     1     -12.807  12.118  71.604  1.00  0.00    -0.390 C  
BRANCH   6   7
HETATM    7  C   UNL     1     -13.796  13.106  72.210  1.00  0.00    -0.586 C  
BRANCH   7   8
HETATM    8  C   UNL     1     -13.061  14.283  72.838  1.00  0.00    -0.589 C  
BRANCH   8   9
HETATM    9  C   UNL     1     -13.140  15.508  71.937  1.00  0.00    -0.539 C  
BRANCH   9  10
HETATM   10  C   UNL     1     -11.758  15.882  71.420  1.00  0.00    -0.530 C  
BRANCH  10  11
HETATM   11  C   UNL     1     -11.686  15.702  69.910  1.00  0.00    -0.372 C  
BRANCH  11  12
HETATM   12  C   UNL     1     -10.303  15.223  69.495  1.00  0.00    -0.267 C  
BRANCH  12  13
HETATM   13  C   UNL     1     -10.410  14.163  68.409  1.00  0.00    -0.249 C  
BRANCH  13  14
HETATM   14  C   UNL     1     -11.806  13.556  68.390  1.00  0.00    -0.408 C  
BRANCH  14  15
HETATM   15  C   UNL     1     -11.837  12.317  67.508  1.00  0.00    -0.331 C  
BRANCH  15  16
HETATM   16  C   UNL     1     -11.845  12.707  66.036  1.00  0.00    -0.492 C  
BRANCH  16  17
HETATM   17  C   UNL     1     -11.270  11.585  65.178  1.00  0.00    -0.214 C  
BRANCH  17  18
HETATM   18  C   UNL     1      -9.795  11.835  64.887  1.00  0.00    -0.251 C  
BRANCH  18  19
HETATM   19  C   UNL     1      -8.919  10.827  65.623  1.00  0.00    -0.205 C  
BRANCH  19  20
HETATM   20  C   UNL     1      -8.235  11.479  66.819  1.00  0.00    -0.164 C  
BRANCH  20  21
HETATM   21  C   UNL     1      -7.204  10.542  67.437  1.00  0.00    -0.092 C  
BRANCH  21  22
HETATM   22  C   UNL     1      -6.861  10.958  68.861  1.00  0.00    -0.076 C  
HETATM   23  O   UNL     1      -7.824  11.891  69.334  1.00  0.00    -0.327 OA 
HETATM   24  H   UNL     1      -7.610  12.151  70.223  1.00  0.00     0.000 HD 
ENDBRANCH  21  22
ENDBRANCH  20  21
ENDBRANCH  19  20
ENDBRANCH  18  19
ENDBRANCH  17  18
ENDBRANCH  16  17
ENDBRANCH  15  16
ENDBRANCH  14  15
ENDBRANCH  13  14
ENDBRANCH  12  13
ENDBRANCH  11  12
ENDBRANCH  10  11
ENDBRANCH   9  10
ENDBRANCH   8   9
ENDBRANCH   7   8
ENDBRANCH   6   7
ENDBRANCH   5   6
ENDBRANCH   4   5
ENDBRANCH   3   4
ENDBRANCH   2   3
TORSDOF 20
ENDMDL
MODEL      132
REMARK 921   NORMALIZED FREE ENERGY PREDICTED BY IDOCK:   -3.68 KCAL/MOL
REMARK 922        TOTAL FREE ENERGY PREDICTED BY IDOCK:  -10.84 KCAL/MOL
REMARK 923 INTER-LIGAND FREE ENERGY PREDICTED BY IDOCK:   -8.65 KCAL/MOL
REMARK 924 INTRA-LIGAND FREE ENERGY PREDICTED BY IDOCK:   -2.19 KCAL/MOL
REMARK 927      BINDING AFFINITY PREDICTED BY RF-SCORE:    0.00 PKD
ROOT
HETATM    1  C   UNL     1     -10.339  19.615  66.153  1.00  0.00    -0.627 C  
HETATM    2  C   UNL     1      -9.400  19.253  67.290  1.00  0.00    -0.366 C  
ENDROOT
BRANCH   2   3
HETATM    3  C   UNL     1      -9.375  17.745  67.524  1.00  0.00    -0.245 C  
BRANCH   3   4
HETATM    4  C   UNL     1      -9.185  16.988  66.213  1.00  0.00    -0.278 C  
BRANCH   4   5
HETATM    5  C   UNL     1      -9.706  15.559  66.334  1.00  0.00    -0.306 C  
BRANCH   5   6
HETATM    6  C   UNL     1      -9.851  15.156  67.798  1.00  0.00    -0.223 C  
BRANCH   6   7
HETATM    7  C   UNL     1     -10.519  13.792  67.917  1.00  0.00    -0.247 C  
BRANCH   7   8
HETATM    8  C   UNL     1     -11.552  13.603  66.815  1.00  0.00    -0.393 C  
BRANCH   8   9
HETATM    9  C   UNL     1     -11.658  12.135  66.424  1.00  0.00    -0.429 C  
BRANCH   9  10
HETATM   10  C   UNL     1     -10.282  11.567  66.104  1.00  0.00    -0.272 C  
BRANCH  10  11
HETATM   11  C   UNL     1     -10.392  10.109  65.680  1.00  0.00    -0.210 C  
BRANCH  11  12
HETATM   12  C   UNL     1      -9.213   9.308  66.214  1.00  0.00    -0.236 C  
BRANCH  12  13
HETATM   13  C   UNL     1      -9.692   8.236  67.182  1.00  0.00    -0.255 C  
BRANCH  13  14
HETATM   14  C   UNL     1      -9.328   8.607  68.614  1.00  0.00    -0.142 C  
BRANCH  14  15
HETATM   15  C   UNL     1     -10.582   8.890  69.427  1.00  0.00    -0.226 C  
BRANCH  15  16
HETATM   16  C   UNL     1     -10.677  10.371  69.767  1.00  0.00    -0.325 C  
BRANCH  16  17
HETATM   17  C   UNL     1     -12.121  10.852  69.680  1.00  0.00    -0.400 C  
BRANCH  17  18
HETATM   18  C   UNL     1     -12.601  11.359  71.035  1.00  0.00    -0.487 C  
BRANCH  18  19
HETATM   19  C   UNL     1     -12.604  12.883  71.074  1.00  0.00    -0.376 C  
BRANCH  19  20
HETATM   20  C   UNL     1     -13.481  13.392  72.213  1.00  0.00    -0.683 C  
BRANCH  20  21
HETATM   21  C   UNL     1     -13.311  14.895  72.404  1.00  0.00    -0.502 C  
BRANCH  21  22
HETATM   22  C   UNL     1     -12.784  15.219  73.795  1.00  0.00    -0.556 C  
HETATM   23  O   UNL     1     -13.165  16.540  74.158  1.00  0.00    -0.866 OA 
HETATM   24  H   UNL     1     -12.836  16.742  75.026  1.00  0.00     0.000 HD 
ENDBRANCH  21  22
ENDBRANCH  20  21
ENDBRANCH  19  20
ENDBRANCH  18  19
ENDBRANCH  17  18
ENDBRANCH  16  17
ENDBRANCH  15  16
ENDBRANCH  14  15
ENDBRANCH  13  14
ENDBRANCH  12  13
ENDBRANCH  11  12
ENDBRANCH  10  11
ENDBRANCH   9  10
ENDBRANCH   8   9
ENDBRANCH   7   8
ENDBRANCH   6   7
ENDBRANCH   5   6
ENDBRANCH   4   5
ENDBRANCH   3   4
ENDBRANCH   2   3
TORSDOF 20
ENDMDL
MODEL      133
REMARK 921   NORMALIZED FREE ENERGY PREDICTED BY IDOCK:   -3.67 KCAL/MOL
REMARK 922        TOTAL FREE ENERGY PREDICTED BY IDOCK:  -10.83 KCAL/MOL
REMARK 923 INTER-LIGAND FREE ENERGY PREDICTED BY IDOCK:   -7.61 KCAL/MOL
REMARK 924 INTRA-LIGAND FREE ENERGY PREDICTED BY IDOCK:   -3.21 KCAL/MOL
REMARK 927      BINDING AFFINITY PREDICTED BY RF-SCORE:    0.00 PKD
ROOT
HETATM    1  C   UNL     1     -12.247  12.094  63.590  1.00  0.00    -0.663 C  
HETATM    2  C   UNL     1     -11.867  13.481  64.080  1.00  0.00    -0.483 C  
ENDROOT
BRANCH   2   3
HETATM    3  C   UNL     1     -12.580  13.816  65.387  1.00  0.00    -0.534 C  
BRANCH   3   4
HETATM    4  C   UNL     1     -11.651  14.553  66.347  1.00  0.00    -0.370 C  
BRANCH   4   5
HETATM    5  C   UNL     1     -10.459  15.143  65.599  1.00  0.00    -0.378 C  
BRANCH   5   6
HETATM    6  C   UNL     1     -10.618  16.650  65.427  1.00  0.00    -0.254 C  
BRANCH   6   7
HETATM    7  C   UNL     1     -10.531  17.358  66.774  1.00  0.00    -0.257 C  
BRANCH   7   8
HETATM    8  C   UNL     1     -10.192  18.830  66.585  1.00  0.00    -0.453 C  
BRANCH   8   9
HETATM    9  C   UNL     1      -8.805  19.136  67.134  1.00  0.00    -0.314 C  
BRANCH   9  10
HETATM   10  C   UNL     1      -7.801  19.282  65.999  1.00  0.00    -0.274 C  
BRANCH  10  11
HETATM   11  C   UNL     1      -7.002  17.999  65.825  1.00  0.00    -0.266 C  
BRANCH  11  12
HETATM   12  C   UNL     1      -6.769  17.328  67.171  1.00  0.00    -0.207 C  
BRANCH  12  13
HETATM   13  C   UNL     1      -7.119  15.850  67.098  1.00  0.00    -0.240 C  
BRANCH  13  14
HETATM   14  C   UNL     1      -7.900  15.422  68.333  1.00  0.00    -0.129 C  
BRANCH  14  15
HETATM   15  C   UNL     1      -7.743  13.928  68.572  1.00  0.00    -0.139 C  
BRANCH  15  16
HETATM   16  C   UNL     1      -8.190  13.139  67.348  1.00  0.00    -0.187 C  
BRANCH  16  17
HETATM   17  C   UNL     1      -8.814  11.812  67.761  1.00  0.00    -0.163 C  
BRANCH  17  18
HETATM   18  C   UNL     1      -9.951  11.436  66.817  1.00  0.00    -0.238 C  
BRANCH  18  19
HETATM   19  C   UNL     1     -11.211  11.082  67.600  1.00  0.00    -0.373 C  
BRANCH  19  20
HETATM   20  C   UNL     1     -11.091  11.537  69.051  1.00  0.00    -0.302 C  
BRANCH  20  21
HETATM   21  C   UNL     1     -11.383  10.389  70.009  1.00  0.00    -0.384 C  
BRANCH  21  22
HETATM   22  C   UNL     1     -12.621  10.672  70.850  1.00  0.00    -0.407 C  
HETATM   23  O   UNL     1     -13.611   9.685  70.595  1.00  0.00    -0.599 OA 
HETATM   24  H   UNL     1     -14.384   9.861  71.120  1.00  0.00     0.000 HD 
ENDBRANCH  21  22
ENDBRANCH  20  21
ENDBRANCH  19  20
ENDBRANCH  18  19
ENDBRANCH  17  18
ENDBRANCH  16  17
ENDBRANCH  15  16
ENDBRANCH  14  15
ENDBRANCH  13  14
ENDBRANCH  12  13
ENDBRANCH  11  12
ENDBRANCH  10  11
ENDBRANCH   9  10
ENDBRANCH   8   9
ENDBRANCH   7   8
ENDBRANCH   6   7
ENDBRANCH   5   6
ENDBRANCH   4   5
ENDBRANCH   3   4
ENDBRANCH   2   3
TORSDOF 20
ENDMDL
MODEL      134
REMARK 921   NORMALIZED FREE ENERGY PREDICTED BY IDOCK:   -3.66 KCAL/MOL
REMARK 922        TOTAL FREE ENERGY PREDICTED BY IDOCK:  -10.82 KCAL/MOL
REMARK 923 INTER-LIGAND FREE ENERGY PREDICTED BY IDOCK:   -8.63 KCAL/MOL
REMARK 924 INTRA-LIGAND FREE ENERGY PREDICTED BY IDOCK:   -2.18 KCAL/MOL
REMARK 927      BINDING AFFINITY PREDICTED BY RF-SCORE:    0.00 PKD
ROOT
HETATM    1  C   UNL     1      -8.628   8.765  70.249  1.00  0.00    -0.158 C  
HETATM    2  C   UNL     1      -7.764   8.758  71.498  1.00  0.00    -0.139 C  
ENDROOT
BRANCH   2   3
HETATM    3  C   UNL     1      -7.707   7.365  72.119  1.00  0.00    -0.092 C  
BRANCH   3   4
HETATM    4  C   UNL     1      -8.648   7.258  73.316  1.00  0.00    -0.168 C  
BRANCH   4   5
HETATM    5  C   UNL     1      -9.490   5.989  73.230  1.00  0.00    -0.142 C  
BRANCH   5   6
HETATM    6  C   UNL     1      -9.443   5.402  71.823  1.00  0.00    -0.177 C  
BRANCH   6   7
HETATM    7  C   UNL     1     -10.786   5.572  71.124  1.00  0.00    -0.280 C  
BRANCH   7   8
HETATM    8  C   UNL     1     -11.847   6.048  72.108  1.00  0.00    -0.304 C  
BRANCH   8   9
HETATM    9  C   UNL     1     -12.666   7.182  71.507  1.00  0.00    -0.433 C  
BRANCH   9  10
HETATM   10  C   UNL     1     -12.233   8.521  72.088  1.00  0.00    -0.446 C  
BRANCH  10  11
HETATM   11  C   UNL     1     -13.442   9.413  72.332  1.00  0.00    -0.506 C  
BRANCH  11  12
HETATM   12  C   UNL     1     -13.149  10.840  71.893  1.00  0.00    -0.557 C  
BRANCH  12  13
HETATM   13  C   UNL     1     -12.224  10.847  70.686  1.00  0.00    -0.472 C  
BRANCH  13  14
HETATM   14  C   UNL     1     -11.951  12.273  70.228  1.00  0.00    -0.373 C  
BRANCH  14  15
HETATM   15  C   UNL     1     -11.877  12.342  68.710  1.00  0.00    -0.356 C  
BRANCH  15  16
HETATM   16  C   UNL     1     -10.929  11.278  68.172  1.00  0.00    -0.284 C  
BRANCH  16  17
HETATM   17  C   UNL     1     -10.825  11.368  66.654  1.00  0.00    -0.339 C  
BRANCH  17  18
HETATM   18  C   UNL     1     -12.035  12.093  66.075  1.00  0.00    -0.236 C  
BRANCH  18  19
HETATM   19  C   UNL     1     -11.770  12.526  64.637  1.00  0.00    -0.416 C  
BRANCH  19  20
HETATM   20  C   UNL     1     -10.446  13.275  64.534  1.00  0.00    -0.434 C  
BRANCH  20  21
HETATM   21  C   UNL     1     -10.601  14.723  64.985  1.00  0.00    -0.452 C  
BRANCH  21  22
HETATM   22  C   UNL     1     -11.848  15.358  64.386  1.00  0.00    -0.256 C  
HETATM   23  O   UNL     1     -11.504  16.576  63.739  1.00  0.00    -1.615 OA 
HETATM   24  H   UNL     1     -12.282  16.973  63.365  1.00  0.00     0.000 HD 
ENDBRANCH  21  22
ENDBRANCH  20  21
ENDBRANCH  19  20
ENDBRANCH  18  19
ENDBRANCH  17  18
ENDBRANCH  16  17
ENDBRANCH  15  16
ENDBRANCH  14  15
ENDBRANCH  13  14
ENDBRANCH  12  13
ENDBRANCH  11  12
ENDBRANCH  10  11
ENDBRANCH   9  10
ENDBRANCH   8   9
ENDBRANCH   7   8
ENDBRANCH   6   7
ENDBRANCH   5   6
ENDBRANCH   4   5
ENDBRANCH   3   4
ENDBRANCH   2   3
TORSDOF 20
ENDMDL
MODEL      135
REMARK 921   NORMALIZED FREE ENERGY PREDICTED BY IDOCK:   -3.66 KCAL/MOL
REMARK 922        TOTAL FREE ENERGY PREDICTED BY IDOCK:  -10.82 KCAL/MOL
REMARK 923 INTER-LIGAND FREE ENERGY PREDICTED BY IDOCK:   -7.86 KCAL/MOL
REMARK 924 INTRA-LIGAND FREE ENERGY PREDICTED BY IDOCK:   -2.96 KCAL/MOL
REMARK 927      BINDING AFFINITY PREDICTED BY RF-SCORE:    0.00 PKD
ROOT
HETATM    1  C   UNL     1      -8.565  16.783  68.230  1.00  0.00    -0.226 C  
HETATM    2  C   UNL     1      -9.957  17.282  68.579  1.00  0.00    -0.320 C  
ENDROOT
BRANCH   2   3
HETATM    3  C   UNL     1     -11.031  16.389  67.964  1.00  0.00    -0.327 C  
BRANCH   3   4
HETATM    4  C   UNL     1     -11.767  15.594  69.039  1.00  0.00    -0.408 C  
BRANCH   4   5
HETATM    5  C   UNL     1     -11.246  14.162  69.104  1.00  0.00    -0.307 C  
BRANCH   5   6
HETATM    6  C   UNL     1     -10.766  13.696  67.734  1.00  0.00    -0.255 C  
BRANCH   6   7
HETATM    7  C   UNL     1     -11.823  12.831  67.059  1.00  0.00    -0.428 C  
BRANCH   7   8
HETATM    8  C   UNL     1     -12.606  13.642  66.035  1.00  0.00    -0.441 C  
BRANCH   8   9
HETATM    9  C   UNL     1     -11.684  14.147  64.932  1.00  0.00    -0.395 C  
BRANCH   9  10
HETATM   10  C   UNL     1     -12.183  13.691  63.568  1.00  0.00    -0.329 C  
BRANCH  10  11
HETATM   11  C   UNL     1     -11.843  12.225  63.338  1.00  0.00    -0.563 C  
BRANCH  11  12
HETATM   12  C   UNL     1     -10.351  11.989  63.522  1.00  0.00    -0.492 C  
BRANCH  12  13
HETATM   13  C   UNL     1     -10.106  10.684  64.265  1.00  0.00    -0.411 C  
BRANCH  13  14
HETATM   14  C   UNL     1      -9.176  10.908  65.450  1.00  0.00    -0.231 C  
BRANCH  14  15
HETATM   15  C   UNL     1      -9.539   9.978  66.597  1.00  0.00    -0.234 C  
BRANCH  15  16
HETATM   16  C   UNL     1      -8.561  10.146  67.753  1.00  0.00    -0.118 C  
BRANCH  16  17
HETATM   17  C   UNL     1      -9.281  10.656  68.996  1.00  0.00    -0.177 C  
BRANCH  17  18
HETATM   18  C   UNL     1     -10.623   9.954  69.166  1.00  0.00    -0.240 C  
BRANCH  18  19
HETATM   19  C   UNL     1     -11.291  10.370  70.472  1.00  0.00    -0.424 C  
BRANCH  19  20
HETATM   20  C   UNL     1     -11.332   9.202  71.453  1.00  0.00    -0.414 C  
BRANCH  20  21
HETATM   21  C   UNL     1     -11.774   7.920  70.757  1.00  0.00    -0.230 C  
BRANCH  21  22
HETATM   22  C   UNL     1     -12.627   7.058  71.678  1.00  0.00    -0.380 C  
HETATM   23  O   UNL     1     -13.473   7.886  72.465  1.00  0.00    -0.510 OA 
HETATM   24  H   UNL     1     -14.005   7.348  73.039  1.00  0.00     0.000 HD 
ENDBRANCH  21  22
ENDBRANCH  20  21
ENDBRANCH  19  20
ENDBRANCH  18  19
ENDBRANCH  17  18
ENDBRANCH  16  17
ENDBRANCH  15  16
ENDBRANCH  14  15
ENDBRANCH  13  14
ENDBRANCH  12  13
ENDBRANCH  11  12
ENDBRANCH  10  11
ENDBRANCH   9  10
ENDBRANCH   8   9
ENDBRANCH   7   8
ENDBRANCH   6   7
ENDBRANCH   5   6
ENDBRANCH   4   5
ENDBRANCH   3   4
ENDBRANCH   2   3
TORSDOF 20
ENDMDL
MODEL      136
REMARK 921   NORMALIZED FREE ENERGY PREDICTED BY IDOCK:   -3.66 KCAL/MOL
REMARK 922        TOTAL FREE ENERGY PREDICTED BY IDOCK:  -10.81 KCAL/MOL
REMARK 923 INTER-LIGAND FREE ENERGY PREDICTED BY IDOCK:   -7.35 KCAL/MOL
REMARK 924 INTRA-LIGAND FREE ENERGY PREDICTED BY IDOCK:   -3.47 KCAL/MOL
REMARK 927      BINDING AFFINITY PREDICTED BY RF-SCORE:    0.00 PKD
ROOT
HETATM    1  C   UNL     1     -10.678  14.920  64.791  1.00  0.00    -0.365 C  
HETATM    2  C   UNL     1     -11.861  13.994  64.567  1.00  0.00    -0.452 C  
ENDROOT
BRANCH   2   3
HETATM    3  C   UNL     1     -12.595  13.714  65.875  1.00  0.00    -0.478 C  
BRANCH   3   4
HETATM    4  C   UNL     1     -11.775  12.798  66.780  1.00  0.00    -0.459 C  
BRANCH   4   5
HETATM    5  C   UNL     1     -11.924  13.208  68.242  1.00  0.00    -0.328 C  
BRANCH   5   6
HETATM    6  C   UNL     1     -12.115  14.716  68.365  1.00  0.00    -0.223 C  
BRANCH   6   7
HETATM    7  C   UNL     1     -10.774  15.415  68.551  1.00  0.00    -0.256 C  
BRANCH   7   8
HETATM    8  C   UNL     1     -10.876  16.884  68.163  1.00  0.00    -0.351 C  
BRANCH   8   9
HETATM    9  C   UNL     1     -10.136  17.757  69.168  1.00  0.00    -0.220 C  
BRANCH   9  10
HETATM   10  C   UNL     1     -10.013  19.183  68.649  1.00  0.00    -0.486 C  
BRANCH  10  11
HETATM   11  C   UNL     1     -10.779  19.343  67.343  1.00  0.00    -0.594 C  
BRANCH  11  12
HETATM   12  C   UNL     1      -9.921  20.054  66.306  1.00  0.00    -0.597 C  
BRANCH  12  13
HETATM   13  C   UNL     1      -8.480  20.147  66.780  1.00  0.00    -0.365 C  
BRANCH  13  14
HETATM   14  C   UNL     1      -7.561  19.353  65.862  1.00  0.00    -0.286 C  
BRANCH  14  15
HETATM   15  C   UNL     1      -7.500  17.896  66.296  1.00  0.00    -0.321 C  
BRANCH  15  16
HETATM   16  C   UNL     1      -6.822  17.771  67.655  1.00  0.00    -0.189 C  
BRANCH  16  17
HETATM   17  C   UNL     1      -7.068  16.391  68.254  1.00  0.00    -0.143 C  
BRANCH  17  18
HETATM   18  C   UNL     1      -7.419  15.386  67.163  1.00  0.00    -0.224 C  
BRANCH  18  19
HETATM   19  C   UNL     1      -7.209  13.958  67.653  1.00  0.00    -0.187 C  
BRANCH  19  20
HETATM   20  C   UNL     1      -8.343  13.053  67.182  1.00  0.00    -0.153 C  
BRANCH  20  21
HETATM   21  C   UNL     1      -7.859  11.620  66.997  1.00  0.00    -0.164 C  
BRANCH  21  22
HETATM   22  C   UNL     1      -8.649  10.653  67.869  1.00  0.00    -0.124 C  
HETATM   23  O   UNL     1      -8.938  11.260  69.121  1.00  0.00    -0.383 OA 
HETATM   24  H   UNL     1      -9.431  10.657  69.665  1.00  0.00     0.000 HD 
ENDBRANCH  21  22
ENDBRANCH  20  21
ENDBRANCH  19  20
ENDBRANCH  18  19
ENDBRANCH  17  18
ENDBRANCH  16  17
ENDBRANCH  15  16
ENDBRANCH  14  15
ENDBRANCH  13  14
ENDBRANCH  12  13
ENDBRANCH  11  12
ENDBRANCH  10  11
ENDBRANCH   9  10
ENDBRANCH   8   9
ENDBRANCH   7   8
ENDBRANCH   6   7
ENDBRANCH   5   6
ENDBRANCH   4   5
ENDBRANCH   3   4
ENDBRANCH   2   3
TORSDOF 20
ENDMDL
MODEL      137
REMARK 921   NORMALIZED FREE ENERGY PREDICTED BY IDOCK:   -3.65 KCAL/MOL
REMARK 922        TOTAL FREE ENERGY PREDICTED BY IDOCK:  -10.80 KCAL/MOL
REMARK 923 INTER-LIGAND FREE ENERGY PREDICTED BY IDOCK:   -9.05 KCAL/MOL
REMARK 924 INTRA-LIGAND FREE ENERGY PREDICTED BY IDOCK:   -1.75 KCAL/MOL
REMARK 927      BINDING AFFINITY PREDICTED BY RF-SCORE:    0.00 PKD
ROOT
HETATM    1  C   UNL     1      -5.525  20.728  67.029  1.00  0.00    -0.230 C  
HETATM    2  C   UNL     1      -5.432  19.422  67.798  1.00  0.00    -0.182 C  
ENDROOT
BRANCH   2   3
HETATM    3  C   UNL     1      -6.809  18.787  67.972  1.00  0.00    -0.244 C  
BRANCH   3   4
HETATM    4  C   UNL     1      -7.629  19.530  69.023  1.00  0.00    -0.356 C  
BRANCH   4   5
HETATM    5  C   UNL     1      -9.121  19.392  68.740  1.00  0.00    -0.411 C  
BRANCH   5   6
HETATM    6  C   UNL     1      -9.428  19.704  67.279  1.00  0.00    -0.446 C  
BRANCH   6   7
HETATM    7  C   UNL     1     -10.327  18.631  66.677  1.00  0.00    -0.456 C  
BRANCH   7   8
HETATM    8  C   UNL     1     -10.581  17.517  67.684  1.00  0.00    -0.355 C  
BRANCH   8   9
HETATM    9  C   UNL     1     -10.226  16.162  67.086  1.00  0.00    -0.281 C  
BRANCH   9  10
HETATM   10  C   UNL     1     -11.283  15.127  67.443  1.00  0.00    -0.323 C  
BRANCH  10  11
HETATM   11  C   UNL     1     -11.185  13.922  66.517  1.00  0.00    -0.327 C  
BRANCH  11  12
HETATM   12  C   UNL     1     -11.946  12.739  67.098  1.00  0.00    -0.351 C  
BRANCH  12  13
HETATM   13  C   UNL     1     -10.980  11.709  67.661  1.00  0.00    -0.294 C  
BRANCH  13  14
HETATM   14  C   UNL     1     -10.986  11.743  69.183  1.00  0.00    -0.261 C  
BRANCH  14  15
HETATM   15  C   UNL     1     -11.831  10.607  69.740  1.00  0.00    -0.377 C  
BRANCH  15  16
HETATM   16  C   UNL     1     -12.610  11.069  70.964  1.00  0.00    -0.512 C  
BRANCH  16  17
HETATM   17  C   UNL     1     -12.752  12.586  70.971  1.00  0.00    -0.316 C  
BRANCH  17  18
HETATM   18  C   UNL     1     -13.591  13.042  72.159  1.00  0.00    -0.618 C  
BRANCH  18  19
HETATM   19  C   UNL     1     -14.125  14.453  71.936  1.00  0.00    -0.596 C  
BRANCH  19  20
HETATM   20  C   UNL     1     -13.627  15.397  73.026  1.00  0.00    -0.563 C  
BRANCH  20  21
HETATM   21  C   UNL     1     -12.125  15.627  72.906  1.00  0.00    -0.583 C  
BRANCH  21  22
HETATM   22  C   UNL     1     -11.752  16.128  71.517  1.00  0.00    -0.464 C  
HETATM   23  O   UNL     1     -10.773  15.272  70.944  1.00  0.00    -0.502 OA 
HETATM   24  H   UNL     1     -10.540  15.585  70.077  1.00  0.00     0.000 HD 
ENDBRANCH  21  22
ENDBRANCH  20  21
ENDBRANCH  19  20
ENDBRANCH  18  19
ENDBRANCH  17  18
ENDBRANCH  16  17
ENDBRANCH  15  16
ENDBRANCH  14  15
ENDBRANCH  13  14
ENDBRANCH  12  13
ENDBRANCH  11  12
ENDBRANCH  10  11
ENDBRANCH   9  10
ENDBRANCH   8   9
ENDBRANCH   7   8
ENDBRANCH   6   7
ENDBRANCH   5   6
ENDBRANCH   4   5
ENDBRANCH   3   4
ENDBRANCH   2   3
TORSDOF 20
ENDMDL
MODEL      138
REMARK 921   NORMALIZED FREE ENERGY PREDICTED BY IDOCK:   -3.65 KCAL/MOL
REMARK 922        TOTAL FREE ENERGY PREDICTED BY IDOCK:  -10.80 KCAL/MOL
REMARK 923 INTER-LIGAND FREE ENERGY PREDICTED BY IDOCK:   -7.86 KCAL/MOL
REMARK 924 INTRA-LIGAND FREE ENERGY PREDICTED BY IDOCK:   -2.93 KCAL/MOL
REMARK 927      BINDING AFFINITY PREDICTED BY RF-SCORE:    0.00 PKD
ROOT
HETATM    1  C   UNL     1     -11.048  12.854  64.029  1.00  0.00    -0.455 C  
HETATM    2  C   UNL     1     -12.164  12.908  65.058  1.00  0.00    -0.515 C  
ENDROOT
BRANCH   2   3
HETATM    3  C   UNL     1     -11.701  12.350  66.400  1.00  0.00    -0.453 C  
BRANCH   3   4
HETATM    4  C   UNL     1     -10.679  11.233  66.209  1.00  0.00    -0.312 C  
BRANCH   4   5
HETATM    5  C   UNL     1     -10.649  10.315  67.427  1.00  0.00    -0.324 C  
BRANCH   5   6
HETATM    6  C   UNL     1      -9.334  10.462  68.186  1.00  0.00    -0.149 C  
BRANCH   6   7
HETATM    7  C   UNL     1      -9.578  10.462  69.690  1.00  0.00    -0.142 C  
BRANCH   7   8
HETATM    8  C   UNL     1     -10.445   9.276  70.092  1.00  0.00    -0.265 C  
BRANCH   8   9
HETATM    9  C   UNL     1     -11.511   9.705  71.092  1.00  0.00    -0.456 C  
BRANCH   9  10
HETATM   10  C   UNL     1     -12.181  10.994  70.638  1.00  0.00    -0.481 C  
BRANCH  10  11
HETATM   11  C   UNL     1     -13.107  11.525  71.723  1.00  0.00    -0.503 C  
BRANCH  11  12
HETATM   12  C   UNL     1     -13.168  13.045  71.676  1.00  0.00    -0.426 C  
BRANCH  12  13
HETATM   13  C   UNL     1     -12.278  13.579  70.564  1.00  0.00    -0.433 C  
BRANCH  13  14
HETATM   14  C   UNL     1     -11.837  15.005  70.869  1.00  0.00    -0.376 C  
BRANCH  14  15
HETATM   15  C   UNL     1     -10.804  15.473  69.855  1.00  0.00    -0.311 C  
BRANCH  15  16
HETATM   16  C   UNL     1     -11.481  15.900  68.559  1.00  0.00    -0.377 C  
BRANCH  16  17
HETATM   17  C   UNL     1     -10.538  16.747  67.713  1.00  0.00    -0.341 C  
BRANCH  17  18
HETATM   18  C   UNL     1     -10.221  16.046  66.398  1.00  0.00    -0.315 C  
BRANCH  18  19
HETATM   19  C   UNL     1      -8.806  15.479  66.413  1.00  0.00    -0.359 C  
BRANCH  19  20
HETATM   20  C   UNL     1      -8.800  14.056  66.961  1.00  0.00    -0.234 C  
BRANCH  20  21
HETATM   21  C   UNL     1      -7.875  13.938  68.167  1.00  0.00    -0.147 C  
BRANCH  21  22
HETATM   22  C   UNL     1      -6.726  12.977  67.890  1.00  0.00    -0.129 C  
HETATM   23  O   UNL     1      -6.837  12.463  66.569  1.00  0.00    -0.357 OA 
HETATM   24  H   UNL     1      -6.120  11.864  66.396  1.00  0.00     0.000 HD 
ENDBRANCH  21  22
ENDBRANCH  20  21
ENDBRANCH  19  20
ENDBRANCH  18  19
ENDBRANCH  17  18
ENDBRANCH  16  17
ENDBRANCH  15  16
ENDBRANCH  14  15
ENDBRANCH  13  14
ENDBRANCH  12  13
ENDBRANCH  11  12
ENDBRANCH  10  11
ENDBRANCH   9  10
ENDBRANCH   8   9
ENDBRANCH   7   8
ENDBRANCH   6   7
ENDBRANCH   5   6
ENDBRANCH   4   5
ENDBRANCH   3   4
ENDBRANCH   2   3
TORSDOF 20
ENDMDL
MODEL      139
REMARK 921   NORMALIZED FREE ENERGY PREDICTED BY IDOCK:   -3.65 KCAL/MOL
REMARK 922        TOTAL FREE ENERGY PREDICTED BY IDOCK:  -10.78 KCAL/MOL
REMARK 923 INTER-LIGAND FREE ENERGY PREDICTED BY IDOCK:   -8.11 KCAL/MOL
REMARK 924 INTRA-LIGAND FREE ENERGY PREDICTED BY IDOCK:   -2.67 KCAL/MOL
REMARK 927      BINDING AFFINITY PREDICTED BY RF-SCORE:    0.00 PKD
ROOT
HETATM    1  C   UNL     1      -8.585  10.824  66.283  1.00  0.00    -0.163 C  
HETATM    2  C   UNL     1      -9.780  10.036  65.776  1.00  0.00    -0.321 C  
ENDROOT
BRANCH   2   3
HETATM    3  C   UNL     1     -10.261   9.033  66.820  1.00  0.00    -0.341 C  
BRANCH   3   4
HETATM    4  C   UNL     1      -9.489   9.187  68.127  1.00  0.00    -0.155 C  
BRANCH   4   5
HETATM    5  C   UNL     1      -9.913   8.122  69.134  1.00  0.00    -0.192 C  
BRANCH   5   6
HETATM    6  C   UNL     1      -9.516   8.524  70.550  1.00  0.00    -0.193 C  
BRANCH   6   7
HETATM    7  C   UNL     1     -10.367   7.789  71.578  1.00  0.00    -0.227 C  
BRANCH   7   8
HETATM    8  C   UNL     1     -11.473   6.998  70.890  1.00  0.00    -0.349 C  
BRANCH   8   9
HETATM    9  C   UNL     1     -12.826   7.317  71.511  1.00  0.00    -0.430 C  
BRANCH   9  10
HETATM   10  C   UNL     1     -12.721   8.524  72.432  1.00  0.00    -0.394 C  
BRANCH  10  11
HETATM   11  C   UNL     1     -13.657   9.632  71.970  1.00  0.00    -0.467 C  
BRANCH  11  12
HETATM   12  C   UNL     1     -12.863  10.853  71.530  1.00  0.00    -0.560 C  
BRANCH  12  13
HETATM   13  C   UNL     1     -12.473  10.735  70.065  1.00  0.00    -0.317 C  
BRANCH  13  14
HETATM   14  C   UNL     1     -11.538  11.869  69.666  1.00  0.00    -0.387 C  
BRANCH  14  15
HETATM   15  C   UNL     1     -11.714  12.213  68.194  1.00  0.00    -0.402 C  
BRANCH  15  16
HETATM   16  C   UNL     1     -11.753  13.723  67.998  1.00  0.00    -0.390 C  
BRANCH  16  17
HETATM   17  C   UNL     1     -11.815  14.439  69.342  1.00  0.00    -0.369 C  
BRANCH  17  18
HETATM   18  C   UNL     1     -10.950  15.694  69.322  1.00  0.00    -0.267 C  
BRANCH  18  19
HETATM   19  C   UNL     1     -10.839  16.253  67.908  1.00  0.00    -0.330 C  
BRANCH  19  20
HETATM   20  C   UNL     1     -10.408  17.716  67.938  1.00  0.00    -0.371 C  
BRANCH  20  21
HETATM   21  C   UNL     1      -9.831  18.144  66.595  1.00  0.00    -0.350 C  
BRANCH  21  22
HETATM   22  C   UNL     1     -10.419  19.472  66.138  1.00  0.00    -0.518 C  
HETATM   23  O   UNL     1      -9.567  20.538  66.536  1.00  0.00    -0.620 OA 
HETATM   24  H   UNL     1      -9.934  21.367  66.252  1.00  0.00     0.000 HD 
ENDBRANCH  21  22
ENDBRANCH  20  21
ENDBRANCH  19  20
ENDBRANCH  18  19
ENDBRANCH  17  18
ENDBRANCH  16  17
ENDBRANCH  15  16
ENDBRANCH  14  15
ENDBRANCH  13  14
ENDBRANCH  12  13
ENDBRANCH  11  12
ENDBRANCH  10  11
ENDBRANCH   9  10
ENDBRANCH   8   9
ENDBRANCH   7   8
ENDBRANCH   6   7
ENDBRANCH   5   6
ENDBRANCH   4   5
ENDBRANCH   3   4
ENDBRANCH   2   3
TORSDOF 20
ENDMDL
MODEL      140
REMARK 921   NORMALIZED FREE ENERGY PREDICTED BY IDOCK:   -3.64 KCAL/MOL
REMARK 922        TOTAL FREE ENERGY PREDICTED BY IDOCK:  -10.77 KCAL/MOL
REMARK 923 INTER-LIGAND FREE ENERGY PREDICTED BY IDOCK:   -8.07 KCAL/MOL
REMARK 924 INTRA-LIGAND FREE ENERGY PREDICTED BY IDOCK:   -2.71 KCAL/MOL
REMARK 927      BINDING AFFINITY PREDICTED BY RF-SCORE:    0.00 PKD
ROOT
HETATM    1  C   UNL     1     -10.439  11.117  63.884  1.00  0.00    -0.445 C  
HETATM    2  C   UNL     1     -11.318  12.316  63.572  1.00  0.00    -0.549 C  
ENDROOT
BRANCH   2   3
HETATM    3  C   UNL     1     -12.476  12.421  64.560  1.00  0.00    -0.519 C  
BRANCH   3   4
HETATM    4  C   UNL     1     -12.650  13.855  65.053  1.00  0.00    -0.422 C  
BRANCH   4   5
HETATM    5  C   UNL     1     -12.404  13.943  66.556  1.00  0.00    -0.447 C  
BRANCH   5   6
HETATM    6  C   UNL     1     -10.919  14.131  66.852  1.00  0.00    -0.302 C  
BRANCH   6   7
HETATM    7  C   UNL     1     -10.568  13.561  68.221  1.00  0.00    -0.259 C  
BRANCH   7   8
HETATM    8  C   UNL     1     -11.064  12.127  68.348  1.00  0.00    -0.289 C  
BRANCH   8   9
HETATM    9  C   UNL     1     -10.121  11.167  67.633  1.00  0.00    -0.203 C  
BRANCH   9  10
HETATM   10  C   UNL     1     -10.633   9.738  67.738  1.00  0.00    -0.320 C  
BRANCH  10  11
HETATM   11  C   UNL     1     -10.518   9.233  69.169  1.00  0.00    -0.231 C  
BRANCH  11  12
HETATM   12  C   UNL     1      -9.131   9.519  69.726  1.00  0.00    -0.219 C  
BRANCH  12  13
HETATM   13  C   UNL     1      -8.671   8.380  70.623  1.00  0.00    -0.158 C  
BRANCH  13  14
HETATM   14  C   UNL     1      -9.150   8.597  72.052  1.00  0.00    -0.311 C  
BRANCH  14  15
HETATM   15  C   UNL     1      -9.828   7.343  72.583  1.00  0.00    -0.224 C  
BRANCH  15  16
HETATM   16  C   UNL     1      -9.971   6.302  71.480  1.00  0.00    -0.208 C  
BRANCH  16  17
HETATM   17  C   UNL     1     -11.432   6.144  71.075  1.00  0.00    -0.316 C  
BRANCH  17  18
HETATM   18  C   UNL     1     -12.341   6.899  72.038  1.00  0.00    -0.305 C  
BRANCH  18  19
HETATM   19  C   UNL     1     -13.608   7.370  71.332  1.00  0.00    -0.410 C  
BRANCH  19  20
HETATM   20  C   UNL     1     -13.972   8.786  71.765  1.00  0.00    -0.475 C  
BRANCH  20  21
HETATM   21  C   UNL     1     -12.722   9.633  71.972  1.00  0.00    -0.470 C  
BRANCH  21  22
HETATM   22  C   UNL     1     -12.915  11.043  71.431  1.00  0.00    -0.414 C  
HETATM   23  O   UNL     1     -13.543  11.855  72.415  1.00  0.00    -0.573 OA 
HETATM   24  H   UNL     1     -13.663  12.735  72.077  1.00  0.00     0.000 HD 
ENDBRANCH  21  22
ENDBRANCH  20  21
ENDBRANCH  19  20
ENDBRANCH  18  19
ENDBRANCH  17  18
ENDBRANCH  16  17
ENDBRANCH  15  16
ENDBRANCH  14  15
ENDBRANCH  13  14
ENDBRANCH  12  13
ENDBRANCH  11  12
ENDBRANCH  10  11
ENDBRANCH   9  10
ENDBRANCH   8   9
ENDBRANCH   7   8
ENDBRANCH   6   7
ENDBRANCH   5   6
ENDBRANCH   4   5
ENDBRANCH   3   4
ENDBRANCH   2   3
TORSDOF 20
ENDMDL
MODEL      141
REMARK 921   NORMALIZED FREE ENERGY PREDICTED BY IDOCK:   -3.64 KCAL/MOL
REMARK 922        TOTAL FREE ENERGY PREDICTED BY IDOCK:  -10.77 KCAL/MOL
REMARK 923 INTER-LIGAND FREE ENERGY PREDICTED BY IDOCK:   -7.96 KCAL/MOL
REMARK 924 INTRA-LIGAND FREE ENERGY PREDICTED BY IDOCK:   -2.81 KCAL/MOL
REMARK 927      BINDING AFFINITY PREDICTED BY RF-SCORE:    0.00 PKD
ROOT
HETATM    1  C   UNL     1      -9.956  14.952  65.164  1.00  0.00    -0.277 C  
HETATM    2  C   UNL     1     -11.307  15.384  64.620  1.00  0.00    -0.361 C  
ENDROOT
BRANCH   2   3
HETATM    3  C   UNL     1     -12.315  14.240  64.679  1.00  0.00    -0.433 C  
BRANCH   3   4
HETATM    4  C   UNL     1     -12.275  13.405  63.402  1.00  0.00    -0.419 C  
BRANCH   4   5
HETATM    5  C   UNL     1     -12.033  11.934  63.726  1.00  0.00    -0.547 C  
BRANCH   5   6
HETATM    6  C   UNL     1     -10.541  11.641  63.842  1.00  0.00    -0.446 C  
BRANCH   6   7
HETATM    7  C   UNL     1     -10.259  10.752  65.047  1.00  0.00    -0.373 C  
BRANCH   7   8
HETATM    8  C   UNL     1     -10.816  11.380  66.318  1.00  0.00    -0.318 C  
BRANCH   8   9
HETATM    9  C   UNL     1      -9.685  11.824  67.236  1.00  0.00    -0.188 C  
BRANCH   9  10
HETATM   10  C   UNL     1     -10.237  12.578  68.438  1.00  0.00    -0.230 C  
BRANCH  10  11
HETATM   11  C   UNL     1     -11.637  12.087  68.780  1.00  0.00    -0.366 C  
BRANCH  11  12
HETATM   12  C   UNL     1     -11.575  10.996  69.839  1.00  0.00    -0.416 C  
BRANCH  12  13
HETATM   13  C   UNL     1     -12.593  11.261  70.936  1.00  0.00    -0.467 C  
BRANCH  13  14
HETATM   14  C   UNL     1     -13.039   9.955  71.581  1.00  0.00    -0.538 C  
BRANCH  14  15
HETATM   15  C   UNL     1     -12.021   8.856  71.318  1.00  0.00    -0.365 C  
BRANCH  15  16
HETATM   16  C   UNL     1     -11.079   8.702  72.505  1.00  0.00    -0.234 C  
BRANCH  16  17
HETATM   17  C   UNL     1      -9.647   8.484  72.030  1.00  0.00    -0.371 C  
BRANCH  17  18
HETATM   18  C   UNL     1      -9.627   8.010  70.582  1.00  0.00    -0.172 C  
BRANCH  18  19
HETATM   19  C   UNL     1      -8.646   8.834  69.755  1.00  0.00    -0.131 C  
BRANCH  19  20
HETATM   20  C   UNL     1      -8.899   8.639  68.264  1.00  0.00    -0.142 C  
BRANCH  20  21
HETATM   21  C   UNL     1      -9.566   7.295  67.994  1.00  0.00    -0.148 C  
BRANCH  21  22
HETATM   22  C   UNL     1     -10.709   7.435  66.998  1.00  0.00    -0.319 C  
HETATM   23  O   UNL     1     -11.070   6.155  66.497  1.00  0.00    -0.702 OA 
HETATM   24  H   UNL     1     -11.784   6.243  65.875  1.00  0.00     0.000 HD 
ENDBRANCH  21  22
ENDBRANCH  20  21
ENDBRANCH  19  20
ENDBRANCH  18  19
ENDBRANCH  17  18
ENDBRANCH  16  17
ENDBRANCH  15  16
ENDBRANCH  14  15
ENDBRANCH  13  14
ENDBRANCH  12  13
ENDBRANCH  11  12
ENDBRANCH  10  11
ENDBRANCH   9  10
ENDBRANCH   8   9
ENDBRANCH   7   8
ENDBRANCH   6   7
ENDBRANCH   5   6
ENDBRANCH   4   5
ENDBRANCH   3   4
ENDBRANCH   2   3
TORSDOF 20
ENDMDL
MODEL      142
REMARK 921   NORMALIZED FREE ENERGY PREDICTED BY IDOCK:   -3.64 KCAL/MOL
REMARK 922        TOTAL FREE ENERGY PREDICTED BY IDOCK:  -10.77 KCAL/MOL
REMARK 923 INTER-LIGAND FREE ENERGY PREDICTED BY IDOCK:   -7.92 KCAL/MOL
REMARK 924 INTRA-LIGAND FREE ENERGY PREDICTED BY IDOCK:   -2.85 KCAL/MOL
REMARK 927      BINDING AFFINITY PREDICTED BY RF-SCORE:    0.00 PKD
ROOT
HETATM    1  C   UNL     1     -10.072   5.102  66.032  1.00  0.00    -0.197 C  
HETATM    2  C   UNL     1     -10.878   5.885  67.054  1.00  0.00    -0.379 C  
ENDROOT
BRANCH   2   3
HETATM    3  C   UNL     1     -10.399   5.592  68.473  1.00  0.00    -0.265 C  
BRANCH   3   4
HETATM    4  C   UNL     1     -11.245   6.334  69.504  1.00  0.00    -0.500 C  
BRANCH   4   5
HETATM    5  C   UNL     1     -10.444   6.590  70.777  1.00  0.00    -0.262 C  
BRANCH   5   6
HETATM    6  C   UNL     1     -11.329   7.193  71.863  1.00  0.00    -0.294 C  
BRANCH   6   7
HETATM    7  C   UNL     1     -12.792   7.172  71.438  1.00  0.00    -0.431 C  
BRANCH   7   8
HETATM    8  C   UNL     1     -13.443   8.525  71.692  1.00  0.00    -0.375 C  
BRANCH   8   9
HETATM    9  C   UNL     1     -12.386   9.613  71.827  1.00  0.00    -0.474 C  
BRANCH   9  10
HETATM   10  C   UNL     1     -12.899  10.930  71.262  1.00  0.00    -0.536 C  
BRANCH  10  11
HETATM   11  C   UNL     1     -11.973  11.436  70.164  1.00  0.00    -0.460 C  
BRANCH  11  12
HETATM   12  C   UNL     1     -10.924  10.388  69.826  1.00  0.00    -0.345 C  
BRANCH  12  13
HETATM   13  C   UNL     1     -10.716  10.309  68.322  1.00  0.00    -0.276 C  
BRANCH  13  14
HETATM   14  C   UNL     1      -9.691   9.235  67.978  1.00  0.00    -0.172 C  
BRANCH  14  15
HETATM   15  C   UNL     1      -8.873   9.647  66.763  1.00  0.00    -0.148 C  
BRANCH  15  16
HETATM   16  C   UNL     1      -9.747   9.687  65.517  1.00  0.00    -0.372 C  
BRANCH  16  17
HETATM   17  C   UNL     1      -9.533  10.987  64.750  1.00  0.00    -0.267 C  
BRANCH  17  18
HETATM   18  C   UNL     1     -10.802  11.388  64.007  1.00  0.00    -0.450 C  
BRANCH  18  19
HETATM   19  C   UNL     1     -11.268  12.774  64.438  1.00  0.00    -0.390 C  
BRANCH  19  20
HETATM   20  C   UNL     1     -10.753  13.107  65.835  1.00  0.00    -0.287 C  
BRANCH  20  21
HETATM   21  C   UNL     1     -11.907  13.322  66.806  1.00  0.00    -0.448 C  
BRANCH  21  22
HETATM   22  C   UNL     1     -11.611  14.461  67.774  1.00  0.00    -0.356 C  
HETATM   23  O   UNL     1     -10.498  14.120  68.591  1.00  0.00    -0.240 OA 
HETATM   24  H   UNL     1     -10.313  14.830  69.194  1.00  0.00     0.000 HD 
ENDBRANCH  21  22
ENDBRANCH  20  21
ENDBRANCH  19  20
ENDBRANCH  18  19
ENDBRANCH  17  18
ENDBRANCH  16  17
ENDBRANCH  15  16
ENDBRANCH  14  15
ENDBRANCH  13  14
ENDBRANCH  12  13
ENDBRANCH  11  12
ENDBRANCH  10  11
ENDBRANCH   9  10
ENDBRANCH   8   9
ENDBRANCH   7   8
ENDBRANCH   6   7
ENDBRANCH   5   6
ENDBRANCH   4   5
ENDBRANCH   3   4
ENDBRANCH   2   3
TORSDOF 20
ENDMDL
MODEL      143
REMARK 921   NORMALIZED FREE ENERGY PREDICTED BY IDOCK:   -3.64 KCAL/MOL
REMARK 922        TOTAL FREE ENERGY PREDICTED BY IDOCK:  -10.77 KCAL/MOL
REMARK 923 INTER-LIGAND FREE ENERGY PREDICTED BY IDOCK:   -8.19 KCAL/MOL
REMARK 924 INTRA-LIGAND FREE ENERGY PREDICTED BY IDOCK:   -2.58 KCAL/MOL
REMARK 927      BINDING AFFINITY PREDICTED BY RF-SCORE:    0.00 PKD
ROOT
HETATM    1  C   UNL     1      -9.256  11.535  67.027  1.00  0.00    -0.180 C  
HETATM    2  C   UNL     1     -10.765  11.365  67.078  1.00  0.00    -0.304 C  
ENDROOT
BRANCH   2   3
HETATM    3  C   UNL     1     -11.175  10.441  68.221  1.00  0.00    -0.330 C  
BRANCH   3   4
HETATM    4  C   UNL     1      -9.957   9.784  68.862  1.00  0.00    -0.183 C  
BRANCH   4   5
HETATM    5  C   UNL     1     -10.319   8.416  69.434  1.00  0.00    -0.217 C  
BRANCH   5   6
HETATM    6  C   UNL     1      -9.764   8.254  70.845  1.00  0.00    -0.204 C  
BRANCH   6   7
HETATM    7  C   UNL     1     -10.684   7.379  71.687  1.00  0.00    -0.239 C  
BRANCH   7   8
HETATM    8  C   UNL     1     -11.800   6.795  70.832  1.00  0.00    -0.438 C  
BRANCH   8   9
HETATM    9  C   UNL     1     -13.160   7.266  71.330  1.00  0.00    -0.363 C  
BRANCH   9  10
HETATM   10  C   UNL     1     -13.000   8.411  72.320  1.00  0.00    -0.338 C  
BRANCH  10  11
HETATM   11  C   UNL     1     -13.571   9.699  71.744  1.00  0.00    -0.424 C  
BRANCH  11  12
HETATM   12  C   UNL     1     -12.469  10.728  71.543  1.00  0.00    -0.447 C  
BRANCH  12  13
HETATM   13  C   UNL     1     -13.026  12.137  71.669  1.00  0.00    -0.427 C  
BRANCH  13  14
HETATM   14  C   UNL     1     -12.462  13.037  70.577  1.00  0.00    -0.306 C  
BRANCH  14  15
HETATM   15  C   UNL     1     -12.171  14.425  71.126  1.00  0.00    -0.420 C  
BRANCH  15  16
HETATM   16  C   UNL     1     -11.101  15.118  70.293  1.00  0.00    -0.289 C  
BRANCH  16  17
HETATM   17  C   UNL     1     -10.825  14.335  69.014  1.00  0.00    -0.274 C  
BRANCH  17  18
HETATM   18  C   UNL     1      -9.753  15.028  68.181  1.00  0.00    -0.215 C  
BRANCH  18  19
HETATM   19  C   UNL     1     -10.133  16.478  67.905  1.00  0.00    -0.256 C  
BRANCH  19  20
HETATM   20  C   UNL     1     -10.622  16.644  66.470  1.00  0.00    -0.203 C  
BRANCH  20  21
HETATM   21  C   UNL     1     -10.114  15.512  65.585  1.00  0.00    -0.406 C  
BRANCH  21  22
HETATM   22  C   UNL     1     -11.176  15.071  64.586  1.00  0.00    -0.332 C  
HETATM   23  O   UNL     1     -11.555  16.172  63.770  1.00  0.00    -1.390 OA 
HETATM   24  H   UNL     1     -12.217  15.898  63.147  1.00  0.00     0.000 HD 
ENDBRANCH  21  22
ENDBRANCH  20  21
ENDBRANCH  19  20
ENDBRANCH  18  19
ENDBRANCH  17  18
ENDBRANCH  16  17
ENDBRANCH  15  16
ENDBRANCH  14  15
ENDBRANCH  13  14
ENDBRANCH  12  13
ENDBRANCH  11  12
ENDBRANCH  10  11
ENDBRANCH   9  10
ENDBRANCH   8   9
ENDBRANCH   7   8
ENDBRANCH   6   7
ENDBRANCH   5   6
ENDBRANCH   4   5
ENDBRANCH   3   4
ENDBRANCH   2   3
TORSDOF 20
ENDMDL
MODEL      144
REMARK 921   NORMALIZED FREE ENERGY PREDICTED BY IDOCK:   -3.64 KCAL/MOL
REMARK 922        TOTAL FREE ENERGY PREDICTED BY IDOCK:  -10.76 KCAL/MOL
REMARK 923 INTER-LIGAND FREE ENERGY PREDICTED BY IDOCK:   -7.99 KCAL/MOL
REMARK 924 INTRA-LIGAND FREE ENERGY PREDICTED BY IDOCK:   -2.77 KCAL/MOL
REMARK 927      BINDING AFFINITY PREDICTED BY RF-SCORE:    0.00 PKD
ROOT
HETATM    1  C   UNL     1     -11.999  13.925  64.538  1.00  0.00    -0.464 C  
HETATM    2  C   UNL     1     -12.399  12.560  64.006  1.00  0.00    -0.557 C  
ENDROOT
BRANCH   2   3
HETATM    3  C   UNL     1     -11.170  11.715  63.682  1.00  0.00    -0.497 C  
BRANCH   3   4
HETATM    4  C   UNL     1     -10.208  11.666  64.866  1.00  0.00    -0.315 C  
BRANCH   4   5
HETATM    5  C   UNL     1     -10.038  10.235  65.366  1.00  0.00    -0.354 C  
BRANCH   5   6
HETATM    6  C   UNL     1     -10.361  10.137  66.853  1.00  0.00    -0.298 C  
BRANCH   6   7
HETATM    7  C   UNL     1     -11.140  11.362  67.316  1.00  0.00    -0.363 C  
BRANCH   7   8
HETATM    8  C   UNL     1     -10.366  12.114  68.391  1.00  0.00    -0.236 C  
BRANCH   8   9
HETATM    9  C   UNL     1      -9.608  13.288  67.784  1.00  0.00    -0.214 C  
BRANCH   9  10
HETATM   10  C   UNL     1      -8.172  13.315  68.287  1.00  0.00    -0.156 C  
BRANCH  10  11
HETATM   11  C   UNL     1      -7.530  14.665  68.000  1.00  0.00    -0.137 C  
BRANCH  11  12
HETATM   12  C   UNL     1      -7.395  15.475  69.281  1.00  0.00    -0.202 C  
BRANCH  12  13
HETATM   13  C   UNL     1      -7.123  16.936  68.961  1.00  0.00    -0.232 C  
BRANCH  13  14
HETATM   14  C   UNL     1      -8.063  17.429  67.869  1.00  0.00    -0.220 C  
BRANCH  14  15
HETATM   15  C   UNL     1      -8.884  18.611  68.364  1.00  0.00    -0.367 C  
BRANCH  15  16
HETATM   16  C   UNL     1     -10.239  18.143  68.878  1.00  0.00    -0.304 C  
BRANCH  16  17
HETATM   17  C   UNL     1     -10.735  16.946  68.077  1.00  0.00    -0.364 C  
BRANCH  17  18
HETATM   18  C   UNL     1     -11.462  15.957  68.981  1.00  0.00    -0.380 C  
BRANCH  18  19
HETATM   19  C   UNL     1     -10.961  16.067  70.417  1.00  0.00    -0.347 C  
BRANCH  19  20
HETATM   20  C   UNL     1     -11.598  14.994  71.294  1.00  0.00    -0.384 C  
BRANCH  20  21
HETATM   21  C   UNL     1     -11.693  15.458  72.743  1.00  0.00    -0.535 C  
BRANCH  21  22
HETATM   22  C   UNL     1     -12.984  14.978  73.393  1.00  0.00    -0.498 C  
HETATM   23  O   UNL     1     -13.544  13.920  72.627  1.00  0.00    -0.570 OA 
HETATM   24  H   UNL     1     -14.350  13.621  73.032  1.00  0.00     0.000 HD 
ENDBRANCH  21  22
ENDBRANCH  20  21
ENDBRANCH  19  20
ENDBRANCH  18  19
ENDBRANCH  17  18
ENDBRANCH  16  17
ENDBRANCH  15  16
ENDBRANCH  14  15
ENDBRANCH  13  14
ENDBRANCH  12  13
ENDBRANCH  11  12
ENDBRANCH  10  11
ENDBRANCH   9  10
ENDBRANCH   8   9
ENDBRANCH   7   8
ENDBRANCH   6   7
ENDBRANCH   5   6
ENDBRANCH   4   5
ENDBRANCH   3   4
ENDBRANCH   2   3
TORSDOF 20
ENDMDL
MODEL      145
REMARK 921   NORMALIZED FREE ENERGY PREDICTED BY IDOCK:   -3.64 KCAL/MOL
REMARK 922        TOTAL FREE ENERGY PREDICTED BY IDOCK:  -10.76 KCAL/MOL
REMARK 923 INTER-LIGAND FREE ENERGY PREDICTED BY IDOCK:   -7.82 KCAL/MOL
REMARK 924 INTRA-LIGAND FREE ENERGY PREDICTED BY IDOCK:   -2.94 KCAL/MOL
REMARK 927      BINDING AFFINITY PREDICTED BY RF-SCORE:    0.00 PKD
ROOT
HETATM    1  C   UNL     1     -12.644  13.707  65.464  1.00  0.00    -0.541 C  
HETATM    2  C   UNL     1     -12.403  12.513  64.556  1.00  0.00    -0.545 C  
ENDROOT
BRANCH   2   3
HETATM    3  C   UNL     1     -11.123  12.690  63.744  1.00  0.00    -0.504 C  
BRANCH   3   4
HETATM    4  C   UNL     1     -10.460  11.345  63.463  1.00  0.00    -0.477 C  
BRANCH   4   5
HETATM    5  C   UNL     1      -9.438  11.009  64.545  1.00  0.00    -0.269 C  
BRANCH   5   6
HETATM    6  C   UNL     1      -9.903   9.822  65.382  1.00  0.00    -0.365 C  
BRANCH   6   7
HETATM    7  C   UNL     1      -9.668  10.084  66.864  1.00  0.00    -0.237 C  
BRANCH   7   8
HETATM    8  C   UNL     1     -10.915  10.676  67.508  1.00  0.00    -0.371 C  
BRANCH   8   9
HETATM    9  C   UNL     1     -10.575  11.960  68.253  1.00  0.00    -0.236 C  
BRANCH   9  10
HETATM   10  C   UNL     1     -11.637  12.268  69.299  1.00  0.00    -0.383 C  
BRANCH  10  11
HETATM   11  C   UNL     1     -12.406  11.007  69.667  1.00  0.00    -0.303 C  
BRANCH  11  12
HETATM   12  C   UNL     1     -11.901  10.439  70.985  1.00  0.00    -0.458 C  
BRANCH  12  13
HETATM   13  C   UNL     1     -12.022   8.924  70.994  1.00  0.00    -0.307 C  
BRANCH  13  14
HETATM   14  C   UNL     1     -12.207   8.409  72.416  1.00  0.00    -0.430 C  
BRANCH  14  15
HETATM   15  C   UNL     1     -11.619   7.014  72.559  1.00  0.00    -0.245 C  
BRANCH  15  16
HETATM   16  C   UNL     1     -10.402   7.037  73.475  1.00  0.00    -0.394 C  
BRANCH  16  17
HETATM   17  C   UNL     1      -9.123   6.807  72.678  1.00  0.00    -0.143 C  
BRANCH  17  18
HETATM   18  C   UNL     1      -8.537   8.133  72.209  1.00  0.00    -0.234 C  
BRANCH  18  19
HETATM   19  C   UNL     1      -8.461   8.185  70.687  1.00  0.00    -0.128 C  
BRANCH  19  20
HETATM   20  C   UNL     1      -8.731   6.809  70.086  1.00  0.00    -0.141 C  
BRANCH  20  21
HETATM   21  C   UNL     1      -9.478   6.927  68.764  1.00  0.00    -0.135 C  
BRANCH  21  22
HETATM   22  C   UNL     1     -10.791   6.156  68.800  1.00  0.00    -0.336 C  
HETATM   23  O   UNL     1     -11.561   6.462  67.645  1.00  0.00    -0.640 OA 
HETATM   24  H   UNL     1     -12.380   5.982  67.668  1.00  0.00     0.000 HD 
ENDBRANCH  21  22
ENDBRANCH  20  21
ENDBRANCH  19  20
ENDBRANCH  18  19
ENDBRANCH  17  18
ENDBRANCH  16  17
ENDBRANCH  15  16
ENDBRANCH  14  15
ENDBRANCH  13  14
ENDBRANCH  12  13
ENDBRANCH  11  12
ENDBRANCH  10  11
ENDBRANCH   9  10
ENDBRANCH   8   9
ENDBRANCH   7   8
ENDBRANCH   6   7
ENDBRANCH   5   6
ENDBRANCH   4   5
ENDBRANCH   3   4
ENDBRANCH   2   3
TORSDOF 20
ENDMDL
MODEL      146
REMARK 921   NORMALIZED FREE ENERGY PREDICTED BY IDOCK:   -3.63 KCAL/MOL
REMARK 922        TOTAL FREE ENERGY PREDICTED BY IDOCK:  -10.75 KCAL/MOL
REMARK 923 INTER-LIGAND FREE ENERGY PREDICTED BY IDOCK:   -8.86 KCAL/MOL
REMARK 924 INTRA-LIGAND FREE ENERGY PREDICTED BY IDOCK:   -1.89 KCAL/MOL
REMARK 927      BINDING AFFINITY PREDICTED BY RF-SCORE:    0.00 PKD
ROOT
HETATM    1  C   UNL     1     -10.184  14.909  65.283  1.00  0.00    -0.404 C  
HETATM    2  C   UNL     1     -10.842  15.356  66.577  1.00  0.00    -0.298 C  
ENDROOT
BRANCH   2   3
HETATM    3  C   UNL     1     -11.752  14.266  67.136  1.00  0.00    -0.430 C  
BRANCH   3   4
HETATM    4  C   UNL     1     -11.605  14.150  68.651  1.00  0.00    -0.352 C  
BRANCH   4   5
HETATM    5  C   UNL     1     -11.374  15.522  69.277  1.00  0.00    -0.330 C  
BRANCH   5   6
HETATM    6  C   UNL     1     -10.932  15.388  70.731  1.00  0.00    -0.349 C  
BRANCH   6   7
HETATM    7  C   UNL     1     -11.901  16.113  71.657  1.00  0.00    -0.557 C  
BRANCH   7   8
HETATM    8  C   UNL     1     -12.475  15.153  72.691  1.00  0.00    -0.467 C  
BRANCH   8   9
HETATM    9  C   UNL     1     -13.703  14.441  72.138  1.00  0.00    -0.557 C  
BRANCH   9  10
HETATM   10  C   UNL     1     -13.605  12.941  72.378  1.00  0.00    -0.577 C  
BRANCH  10  11
HETATM   11  C   UNL     1     -12.892  12.261  71.217  1.00  0.00    -0.337 C  
BRANCH  11  12
HETATM   12  C   UNL     1     -12.910  10.749  71.393  1.00  0.00    -0.557 C  
BRANCH  12  13
HETATM   13  C   UNL     1     -11.767  10.110  70.620  1.00  0.00    -0.425 C  
BRANCH  13  14
HETATM   14  C   UNL     1     -10.887   9.286  71.550  1.00  0.00    -0.442 C  
BRANCH  14  15
HETATM   15  C   UNL     1     -11.408   7.861  71.656  1.00  0.00    -0.299 C  
BRANCH  15  16
HETATM   16  C   UNL     1     -10.501   6.901  70.897  1.00  0.00    -0.233 C  
BRANCH  16  17
HETATM   17  C   UNL     1     -11.300   6.103  69.872  1.00  0.00    -0.454 C  
BRANCH  17  18
HETATM   18  C   UNL     1     -10.395   5.616  68.747  1.00  0.00    -0.288 C  
BRANCH  18  19
HETATM   19  C   UNL     1      -9.562   6.763  68.186  1.00  0.00    -0.122 C  
BRANCH  19  20
HETATM   20  C   UNL     1     -10.306   7.470  67.058  1.00  0.00    -0.395 C  
BRANCH  20  21
HETATM   21  C   UNL     1     -10.428   8.963  67.335  1.00  0.00    -0.347 C  
BRANCH  21  22
HETATM   22  C   UNL     1      -9.535   9.773  66.404  1.00  0.00    -0.184 C  
HETATM   23  O   UNL     1      -9.567   9.212  65.098  1.00  0.00    -0.456 OA 
HETATM   24  H   UNL     1      -9.010   9.717  64.518  1.00  0.00     0.000 HD 
ENDBRANCH  21  22
ENDBRANCH  20  21
ENDBRANCH  19  20
ENDBRANCH  18  19
ENDBRANCH  17  18
ENDBRANCH  16  17
ENDBRANCH  15  16
ENDBRANCH  14  15
ENDBRANCH  13  14
ENDBRANCH  12  13
ENDBRANCH  11  12
ENDBRANCH  10  11
ENDBRANCH   9  10
ENDBRANCH   8   9
ENDBRANCH   7   8
ENDBRANCH   6   7
ENDBRANCH   5   6
ENDBRANCH   4   5
ENDBRANCH   3   4
ENDBRANCH   2   3
TORSDOF 20
ENDMDL
MODEL      147
REMARK 921   NORMALIZED FREE ENERGY PREDICTED BY IDOCK:   -3.62 KCAL/MOL
REMARK 922        TOTAL FREE ENERGY PREDICTED BY IDOCK:  -10.71 KCAL/MOL
REMARK 923 INTER-LIGAND FREE ENERGY PREDICTED BY IDOCK:   -7.43 KCAL/MOL
REMARK 924 INTRA-LIGAND FREE ENERGY PREDICTED BY IDOCK:   -3.28 KCAL/MOL
REMARK 927      BINDING AFFINITY PREDICTED BY RF-SCORE:    0.00 PKD
ROOT
HETATM    1  C   UNL     1     -11.575  14.630  64.502  1.00  0.00    -0.377 C  
HETATM    2  C   UNL     1     -12.408  13.548  63.835  1.00  0.00    -0.397 C  
ENDROOT
BRANCH   2   3
HETATM    3  C   UNL     1     -11.578  12.292  63.585  1.00  0.00    -0.581 C  
BRANCH   3   4
HETATM    4  C   UNL     1     -10.368  12.238  64.513  1.00  0.00    -0.339 C  
BRANCH   4   5
HETATM    5  C   UNL     1     -10.314  10.906  65.254  1.00  0.00    -0.334 C  
BRANCH   5   6
HETATM    6  C   UNL     1     -10.468  11.114  66.757  1.00  0.00    -0.297 C  
BRANCH   6   7
HETATM    7  C   UNL     1     -10.597  12.596  67.084  1.00  0.00    -0.252 C  
BRANCH   7   8
HETATM    8  C   UNL     1      -9.386  13.079  67.871  1.00  0.00    -0.212 C  
BRANCH   8   9
HETATM    9  C   UNL     1      -8.619  14.132  67.083  1.00  0.00    -0.230 C  
BRANCH   9  10
HETATM   10  C   UNL     1      -7.409  14.614  67.871  1.00  0.00    -0.164 C  
BRANCH  10  11
HETATM   11  C   UNL     1      -7.281  16.128  67.782  1.00  0.00    -0.157 C  
BRANCH  11  12
HETATM   12  C   UNL     1      -7.260  16.745  69.173  1.00  0.00    -0.214 C  
BRANCH  12  13
HETATM   13  C   UNL     1      -6.826  18.200  69.103  1.00  0.00    -0.240 C  
BRANCH  13  14
HETATM   14  C   UNL     1      -7.104  18.777  67.721  1.00  0.00    -0.237 C  
BRANCH  14  15
HETATM   15  C   UNL     1      -7.939  20.044  67.829  1.00  0.00    -0.324 C  
BRANCH  15  16
HETATM   16  C   UNL     1      -9.317  19.831  67.217  1.00  0.00    -0.452 C  
BRANCH  16  17
HETATM   17  C   UNL     1      -9.291  18.680  66.219  1.00  0.00    -0.251 C  
BRANCH  17  18
HETATM   18  C   UNL     1     -10.428  17.704  66.494  1.00  0.00    -0.283 C  
BRANCH  18  19
HETATM   19  C   UNL     1     -10.619  17.502  67.993  1.00  0.00    -0.384 C  
BRANCH  19  20
HETATM   20  C   UNL     1     -11.300  16.167  68.276  1.00  0.00    -0.316 C  
BRANCH  20  21
HETATM   21  C   UNL     1     -11.260  15.838  69.764  1.00  0.00    -0.330 C  
BRANCH  21  22
HETATM   22  C   UNL     1     -12.273  14.757  70.118  1.00  0.00    -0.337 C  
HETATM   23  O   UNL     1     -13.524  15.355  70.431  1.00  0.00    -0.725 OA 
HETATM   24  H   UNL     1     -14.156  14.681  70.652  1.00  0.00     0.000 HD 
ENDBRANCH  21  22
ENDBRANCH  20  21
ENDBRANCH  19  20
ENDBRANCH  18  19
ENDBRANCH  17  18
ENDBRANCH  16  17
ENDBRANCH  15  16
ENDBRANCH  14  15
ENDBRANCH  13  14
ENDBRANCH  12  13
ENDBRANCH  11  12
ENDBRANCH  10  11
ENDBRANCH   9  10
ENDBRANCH   8   9
ENDBRANCH   7   8
ENDBRANCH   6   7
ENDBRANCH   5   6
ENDBRANCH   4   5
ENDBRANCH   3   4
ENDBRANCH   2   3
TORSDOF 20
ENDMDL
MODEL      148
REMARK 921   NORMALIZED FREE ENERGY PREDICTED BY IDOCK:   -3.61 KCAL/MOL
REMARK 922        TOTAL FREE ENERGY PREDICTED BY IDOCK:  -10.70 KCAL/MOL
REMARK 923 INTER-LIGAND FREE ENERGY PREDICTED BY IDOCK:   -7.77 KCAL/MOL
REMARK 924 INTRA-LIGAND FREE ENERGY PREDICTED BY IDOCK:   -2.93 KCAL/MOL
REMARK 927      BINDING AFFINITY PREDICTED BY RF-SCORE:    0.00 PKD
ROOT
HETATM    1  C   UNL     1      -8.486  12.204  67.949  1.00  0.00    -0.163 C  
HETATM    2  C   UNL     1      -9.230  11.280  68.898  1.00  0.00    -0.076 C  
ENDROOT
BRANCH   2   3
HETATM    3  C   UNL     1      -8.315  10.176  69.420  1.00  0.00    -0.174 C  
BRANCH   3   4
HETATM    4  C   UNL     1      -9.082   9.199  70.306  1.00  0.00    -0.247 C  
BRANCH   4   5
HETATM    5  C   UNL     1     -10.479   9.729  70.611  1.00  0.00    -0.358 C  
BRANCH   5   6
HETATM    6  C   UNL     1     -11.410   8.595  71.029  1.00  0.00    -0.322 C  
BRANCH   6   7
HETATM    7  C   UNL     1     -10.669   7.264  71.034  1.00  0.00    -0.247 C  
BRANCH   7   8
HETATM    8  C   UNL     1     -11.447   6.214  70.253  1.00  0.00    -0.357 C  
BRANCH   8   9
HETATM    9  C   UNL     1     -10.623   5.698  69.080  1.00  0.00    -0.334 C  
BRANCH   9  10
HETATM   10  C   UNL     1     -11.034   6.395  67.791  1.00  0.00    -0.425 C  
BRANCH  10  11
HETATM   11  C   UNL     1      -9.824   7.024  67.115  1.00  0.00    -0.225 C  
BRANCH  11  12
HETATM   12  C   UNL     1     -10.133   8.453  66.691  1.00  0.00    -0.358 C  
BRANCH  12  13
HETATM   13  C   UNL     1      -8.911   9.095  66.053  1.00  0.00    -0.221 C  
BRANCH  13  14
HETATM   14  C   UNL     1      -9.252   9.640  64.672  1.00  0.00    -0.293 C  
BRANCH  14  15
HETATM   15  C   UNL     1     -10.049  10.931  64.790  1.00  0.00    -0.383 C  
BRANCH  15  16
HETATM   16  C   UNL     1     -10.346  11.505  63.410  1.00  0.00    -0.469 C  
BRANCH  16  17
HETATM   17  C   UNL     1     -11.476  12.525  63.484  1.00  0.00    -0.570 C  
BRANCH  17  18
HETATM   18  C   UNL     1     -12.359  12.262  64.697  1.00  0.00    -0.449 C  
BRANCH  18  19
HETATM   19  C   UNL     1     -12.557  13.536  65.511  1.00  0.00    -0.531 C  
BRANCH  19  20
HETATM   20  C   UNL     1     -11.647  13.540  66.735  1.00  0.00    -0.397 C  
BRANCH  20  21
HETATM   21  C   UNL     1     -11.305  14.965  67.156  1.00  0.00    -0.348 C  
BRANCH  21  22
HETATM   22  C   UNL     1     -10.334  15.613  66.178  1.00  0.00    -0.316 C  
HETATM   23  O   UNL     1      -9.464  14.627  65.639  1.00  0.00    -0.511 OA 
HETATM   24  H   UNL     1      -8.859  15.031  65.028  1.00  0.00     0.000 HD 
ENDBRANCH  21  22
ENDBRANCH  20  21
ENDBRANCH  19  20
ENDBRANCH  18  19
ENDBRANCH  17  18
ENDBRANCH  16  17
ENDBRANCH  15  16
ENDBRANCH  14  15
ENDBRANCH  13  14
ENDBRANCH  12  13
ENDBRANCH  11  12
ENDBRANCH  10  11
ENDBRANCH   9  10
ENDBRANCH   8   9
ENDBRANCH   7   8
ENDBRANCH   6   7
ENDBRANCH   5   6
ENDBRANCH   4   5
ENDBRANCH   3   4
ENDBRANCH   2   3
TORSDOF 20
ENDMDL
MODEL      149
REMARK 921   NORMALIZED FREE ENERGY PREDICTED BY IDOCK:   -3.61 KCAL/MOL
REMARK 922        TOTAL FREE ENERGY PREDICTED BY IDOCK:  -10.70 KCAL/MOL
REMARK 923 INTER-LIGAND FREE ENERGY PREDICTED BY IDOCK:   -8.11 KCAL/MOL
REMARK 924 INTRA-LIGAND FREE ENERGY PREDICTED BY IDOCK:   -2.59 KCAL/MOL
REMARK 927      BINDING AFFINITY PREDICTED BY RF-SCORE:    0.00 PKD
ROOT
HETATM    1  C   UNL     1     -10.918   6.253  68.968  1.00  0.00    -0.437 C  
HETATM    2  C   UNL     1     -10.760   6.375  67.462  1.00  0.00    -0.396 C  
ENDROOT
BRANCH   2   3
HETATM    3  C   UNL     1     -10.301   7.776  67.069  1.00  0.00    -0.405 C  
BRANCH   3   4
HETATM    4  C   UNL     1     -10.657   8.795  68.149  1.00  0.00    -0.203 C  
BRANCH   4   5
HETATM    5  C   UNL     1      -9.437   9.629  68.529  1.00  0.00    -0.145 C  
BRANCH   5   6
HETATM    6  C   UNL     1      -9.246   9.652  70.041  1.00  0.00    -0.275 C  
BRANCH   6   7
HETATM    7  C   UNL     1      -7.831   9.223  70.411  1.00  0.00    -0.158 C  
BRANCH   7   8
HETATM    8  C   UNL     1      -7.664   7.719  70.240  1.00  0.00    -0.089 C  
BRANCH   8   9
HETATM    9  C   UNL     1      -7.833   7.006  71.575  1.00  0.00    -0.098 C  
BRANCH   9  10
HETATM   10  C   UNL     1      -7.632   7.977  72.730  1.00  0.00    -0.160 C  
BRANCH  10  11
HETATM   11  C   UNL     1      -8.853   7.987  73.638  1.00  0.00    -0.326 C  
BRANCH  11  12
HETATM   12  C   UNL     1      -9.479   6.601  73.706  1.00  0.00    -0.198 C  
BRANCH  12  13
HETATM   13  C   UNL     1     -10.890   6.626  73.141  1.00  0.00    -0.298 C  
BRANCH  13  14
HETATM   14  C   UNL     1     -11.253   8.027  72.667  1.00  0.00    -0.462 C  
BRANCH  14  15
HETATM   15  C   UNL     1     -12.469   7.984  71.754  1.00  0.00    -0.355 C  
BRANCH  15  16
HETATM   16  C   UNL     1     -13.387   9.168  72.028  1.00  0.00    -0.507 C  
BRANCH  16  17
HETATM   17  C   UNL     1     -13.333  10.168  70.878  1.00  0.00    -0.272 C  
BRANCH  17  18
HETATM   18  C   UNL     1     -12.105  11.062  71.002  1.00  0.00    -0.406 C  
BRANCH  18  19
HETATM   19  C   UNL     1     -12.497  12.534  70.936  1.00  0.00    -0.361 C  
BRANCH  19  20
HETATM   20  C   UNL     1     -13.505  12.873  72.028  1.00  0.00    -0.568 C  
BRANCH  20  21
HETATM   21  C   UNL     1     -13.238  14.257  72.609  1.00  0.00    -0.601 C  
BRANCH  21  22
HETATM   22  C   UNL     1     -14.258  15.272  72.111  1.00  0.00    -0.571 C  
HETATM   23  O   UNL     1     -14.156  15.404  70.699  1.00  0.00    -0.818 OA 
HETATM   24  H   UNL     1     -14.792  16.037  70.388  1.00  0.00     0.000 HD 
ENDBRANCH  21  22
ENDBRANCH  20  21
ENDBRANCH  19  20
ENDBRANCH  18  19
ENDBRANCH  17  18
ENDBRANCH  16  17
ENDBRANCH  15  16
ENDBRANCH  14  15
ENDBRANCH  13  14
ENDBRANCH  12  13
ENDBRANCH  11  12
ENDBRANCH  10  11
ENDBRANCH   9  10
ENDBRANCH   8   9
ENDBRANCH   7   8
ENDBRANCH   6   7
ENDBRANCH   5   6
ENDBRANCH   4   5
ENDBRANCH   3   4
ENDBRANCH   2   3
TORSDOF 20
ENDMDL
MODEL      150
REMARK 921   NORMALIZED FREE ENERGY PREDICTED BY IDOCK:   -3.61 KCAL/MOL
REMARK 922        TOTAL FREE ENERGY PREDICTED BY IDOCK:  -10.70 KCAL/MOL
REMARK 923 INTER-LIGAND FREE ENERGY PREDICTED BY IDOCK:   -8.45 KCAL/MOL
REMARK 924 INTRA-LIGAND FREE ENERGY PREDICTED BY IDOCK:   -2.25 KCAL/MOL
REMARK 927      BINDING AFFINITY PREDICTED BY RF-SCORE:    0.00 PKD
ROOT
HETATM    1  C   UNL     1     -10.500   5.681  68.990  1.00  0.00    -0.321 C  
HETATM    2  C   UNL     1     -11.501   6.446  69.839  1.00  0.00    -0.483 C  
ENDROOT
BRANCH   2   3
HETATM    3  C   UNL     1     -11.380   6.062  71.311  1.00  0.00    -0.296 C  
BRANCH   3   4
HETATM    4  C   UNL     1     -12.541   6.628  72.124  1.00  0.00    -0.169 C  
BRANCH   4   5
HETATM    5  C   UNL     1     -13.683   7.057  71.208  1.00  0.00    -0.233 C  
BRANCH   5   6
HETATM    6  C   UNL     1     -14.326   8.346  71.710  1.00  0.00    -0.558 C  
BRANCH   6   7
HETATM    7  C   UNL     1     -13.289   9.239  72.380  1.00  0.00    -0.521 C  
BRANCH   7   8
HETATM    8  C   UNL     1     -12.735  10.254  71.388  1.00  0.00    -0.547 C  
BRANCH   8   9
HETATM    9  C   UNL     1     -11.287   9.931  71.043  1.00  0.00    -0.460 C  
BRANCH   9  10
HETATM   10  C   UNL     1     -10.952  10.413  69.639  1.00  0.00    -0.325 C  
BRANCH  10  11
HETATM   11  C   UNL     1     -12.100  11.232  69.067  1.00  0.00    -0.325 C  
BRANCH  11  12
HETATM   12  C   UNL     1     -11.578  12.267  68.080  1.00  0.00    -0.408 C  
BRANCH  12  13
HETATM   13  C   UNL     1     -10.426  11.695  67.269  1.00  0.00    -0.247 C  
BRANCH  13  14
HETATM   14  C   UNL     1     -10.802  11.600  65.797  1.00  0.00    -0.334 C  
BRANCH  14  15
HETATM   15  C   UNL     1     -11.950  12.546  65.476  1.00  0.00    -0.500 C  
BRANCH  15  16
HETATM   16  C   UNL     1     -11.489  13.647  64.530  1.00  0.00    -0.401 C  
BRANCH  16  17
HETATM   17  C   UNL     1     -11.559  15.008  65.213  1.00  0.00    -0.258 C  
BRANCH  17  18
HETATM   18  C   UNL     1     -10.272  15.293  65.977  1.00  0.00    -0.335 C  
BRANCH  18  19
HETATM   19  C   UNL     1     -10.543  16.184  67.184  1.00  0.00    -0.294 C  
BRANCH  19  20
HETATM   20  C   UNL     1      -9.678  17.439  67.135  1.00  0.00    -0.267 C  
BRANCH  20  21
HETATM   21  C   UNL     1     -10.500  18.682  67.452  1.00  0.00    -0.467 C  
BRANCH  21  22
HETATM   22  C   UNL     1      -9.757  19.605  68.410  1.00  0.00    -0.403 C  
HETATM   23  O   UNL     1      -8.389  19.688  68.034  1.00  0.00    -0.297 OA 
HETATM   24  H   UNL     1      -7.926  20.264  68.631  1.00  0.00     0.000 HD 
ENDBRANCH  21  22
ENDBRANCH  20  21
ENDBRANCH  19  20
ENDBRANCH  18  19
ENDBRANCH  17  18
ENDBRANCH  16  17
ENDBRANCH  15  16
ENDBRANCH  14  15
ENDBRANCH  13  14
ENDBRANCH  12  13
ENDBRANCH  11  12
ENDBRANCH  10  11
ENDBRANCH   9  10
ENDBRANCH   8   9
ENDBRANCH   7   8
ENDBRANCH   6   7
ENDBRANCH   5   6
ENDBRANCH   4   5
ENDBRANCH   3   4
ENDBRANCH   2   3
TORSDOF 20
ENDMDL
MODEL      151
REMARK 921   NORMALIZED FREE ENERGY PREDICTED BY IDOCK:   -3.61 KCAL/MOL
REMARK 922        TOTAL FREE ENERGY PREDICTED BY IDOCK:  -10.69 KCAL/MOL
REMARK 923 INTER-LIGAND FREE ENERGY PREDICTED BY IDOCK:   -7.58 KCAL/MOL
REMARK 924 INTRA-LIGAND FREE ENERGY PREDICTED BY IDOCK:   -3.11 KCAL/MOL
REMARK 927      BINDING AFFINITY PREDICTED BY RF-SCORE:    0.00 PKD
ROOT
HETATM    1  C   UNL     1      -7.982   6.995  71.158  1.00  0.00    -0.104 C  
HETATM    2  C   UNL     1      -8.239   7.864  69.938  1.00  0.00    -0.120 C  
ENDROOT
BRANCH   2   3
HETATM    3  C   UNL     1      -8.660   9.273  70.346  1.00  0.00    -0.250 C  
BRANCH   3   4
HETATM    4  C   UNL     1      -9.236  10.040  69.160  1.00  0.00    -0.196 C  
BRANCH   4   5
HETATM    5  C   UNL     1     -10.180   9.155  68.351  1.00  0.00    -0.230 C  
BRANCH   5   6
HETATM    6  C   UNL     1     -10.321   9.674  66.924  1.00  0.00    -0.307 C  
BRANCH   6   7
HETATM    7  C   UNL     1      -9.147  10.576  66.561  1.00  0.00    -0.175 C  
BRANCH   7   8
HETATM    8  C   UNL     1      -9.470  11.405  65.325  1.00  0.00    -0.233 C  
BRANCH   8   9
HETATM    9  C   UNL     1     -10.796  10.966  64.716  1.00  0.00    -0.153 C  
BRANCH   9  10
HETATM   10  C   UNL     1     -11.681  12.173  64.437  1.00  0.00    -0.430 C  
BRANCH  10  11
HETATM   11  C   UNL     1     -10.847  13.445  64.378  1.00  0.00    -0.422 C  
BRANCH  11  12
HETATM   12  C   UNL     1     -11.404  14.493  65.331  1.00  0.00    -0.341 C  
BRANCH  12  13
HETATM   13  C   UNL     1     -12.264  13.837  66.399  1.00  0.00    -0.480 C  
BRANCH  13  14
HETATM   14  C   UNL     1     -11.519  13.777  67.726  1.00  0.00    -0.354 C  
BRANCH  14  15
HETATM   15  C   UNL     1     -11.817  12.471  68.447  1.00  0.00    -0.353 C  
BRANCH  15  16
HETATM   16  C   UNL     1     -12.070  12.723  69.928  1.00  0.00    -0.329 C  
BRANCH  16  17
HETATM   17  C   UNL     1     -11.919  11.433  70.727  1.00  0.00    -0.355 C  
BRANCH  17  18
HETATM   18  C   UNL     1     -13.136  11.206  71.616  1.00  0.00    -0.529 C  
BRANCH  18  19
HETATM   19  C   UNL     1     -13.268   9.734  71.989  1.00  0.00    -0.557 C  
BRANCH  19  20
HETATM   20  C   UNL     1     -12.071   8.938  71.478  1.00  0.00    -0.395 C  
BRANCH  20  21
HETATM   21  C   UNL     1     -11.423   8.142  72.605  1.00  0.00    -0.454 C  
BRANCH  21  22
HETATM   22  C   UNL     1     -11.430   6.649  72.302  1.00  0.00    -0.283 C  
HETATM   23  O   UNL     1     -12.758   6.149  72.381  1.00  0.00    -0.533 OA 
HETATM   24  H   UNL     1     -12.762   5.217  72.192  1.00  0.00     0.000 HD 
ENDBRANCH  21  22
ENDBRANCH  20  21
ENDBRANCH  19  20
ENDBRANCH  18  19
ENDBRANCH  17  18
ENDBRANCH  16  17
ENDBRANCH  15  16
ENDBRANCH  14  15
ENDBRANCH  13  14
ENDBRANCH  12  13
ENDBRANCH  11  12
ENDBRANCH  10  11
ENDBRANCH   9  10
ENDBRANCH   8   9
ENDBRANCH   7   8
ENDBRANCH   6   7
ENDBRANCH   5   6
ENDBRANCH   4   5
ENDBRANCH   3   4
ENDBRANCH   2   3
TORSDOF 20
ENDMDL
MODEL      152
REMARK 921   NORMALIZED FREE ENERGY PREDICTED BY IDOCK:   -3.61 KCAL/MOL
REMARK 922        TOTAL FREE ENERGY PREDICTED BY IDOCK:  -10.69 KCAL/MOL
REMARK 923 INTER-LIGAND FREE ENERGY PREDICTED BY IDOCK:   -7.58 KCAL/MOL
REMARK 924 INTRA-LIGAND FREE ENERGY PREDICTED BY IDOCK:   -3.11 KCAL/MOL
REMARK 927      BINDING AFFINITY PREDICTED BY RF-SCORE:    0.00 PKD
ROOT
HETATM    1  C   UNL     1     -12.210  12.014  63.571  1.00  0.00    -0.653 C  
HETATM    2  C   UNL     1     -12.419  12.758  64.879  1.00  0.00    -0.563 C  
ENDROOT
BRANCH   2   3
HETATM    3  C   UNL     1     -11.637  14.068  64.896  1.00  0.00    -0.369 C  
BRANCH   3   4
HETATM    4  C   UNL     1     -11.289  14.482  66.323  1.00  0.00    -0.352 C  
BRANCH   4   5
HETATM    5  C   UNL     1     -12.092  13.667  67.333  1.00  0.00    -0.375 C  
BRANCH   5   6
HETATM    6  C   UNL     1     -11.262  13.379  68.580  1.00  0.00    -0.316 C  
BRANCH   6   7
HETATM    7  C   UNL     1      -9.930  12.742  68.204  1.00  0.00    -0.229 C  
BRANCH   7   8
HETATM    8  C   UNL     1     -10.133  11.301  67.753  1.00  0.00    -0.199 C  
BRANCH   8   9
HETATM    9  C   UNL     1      -9.491  11.070  66.392  1.00  0.00    -0.218 C  
BRANCH   9  10
HETATM   10  C   UNL     1      -9.910   9.721  65.825  1.00  0.00    -0.360 C  
BRANCH  10  11
HETATM   11  C   UNL     1     -10.588   8.879  66.897  1.00  0.00    -0.254 C  
BRANCH  11  12
HETATM   12  C   UNL     1     -10.112   7.435  66.821  1.00  0.00    -0.305 C  
BRANCH  12  13
HETATM   13  C   UNL     1     -10.991   6.539  67.680  1.00  0.00    -0.426 C  
BRANCH  13  14
HETATM   14  C   UNL     1     -10.137   5.597  68.519  1.00  0.00    -0.236 C  
BRANCH  14  15
HETATM   15  C   UNL     1     -10.675   5.511  69.940  1.00  0.00    -0.358 C  
BRANCH  15  16
HETATM   16  C   UNL     1     -11.785   6.532  70.154  1.00  0.00    -0.419 C  
BRANCH  16  17
HETATM   17  C   UNL     1     -12.043   6.741  71.642  1.00  0.00    -0.404 C  
BRANCH  17  18
HETATM   18  C   UNL     1     -11.732   8.178  72.044  1.00  0.00    -0.389 C  
BRANCH  18  19
HETATM   19  C   UNL     1     -11.387   9.021  70.822  1.00  0.00    -0.329 C  
BRANCH  19  20
HETATM   20  C   UNL     1      -9.956   9.539  70.910  1.00  0.00    -0.308 C  
BRANCH  20  21
HETATM   21  C   UNL     1      -9.121   8.682  71.854  1.00  0.00    -0.326 C  
BRANCH  21  22
HETATM   22  C   UNL     1      -7.943   8.046  71.127  1.00  0.00    -0.094 C  
HETATM   23  O   UNL     1      -7.984   8.393  69.749  1.00  0.00    -0.100 OA 
HETATM   24  H   UNL     1      -7.249   7.996  69.296  1.00  0.00     0.000 HD 
ENDBRANCH  21  22
ENDBRANCH  20  21
ENDBRANCH  19  20
ENDBRANCH  18  19
ENDBRANCH  17  18
ENDBRANCH  16  17
ENDBRANCH  15  16
ENDBRANCH  14  15
ENDBRANCH  13  14
ENDBRANCH  12  13
ENDBRANCH  11  12
ENDBRANCH  10  11
ENDBRANCH   9  10
ENDBRANCH   8   9
ENDBRANCH   7   8
ENDBRANCH   6   7
ENDBRANCH   5   6
ENDBRANCH   4   5
ENDBRANCH   3   4
ENDBRANCH   2   3
TORSDOF 20
ENDMDL
MODEL      153
REMARK 921   NORMALIZED FREE ENERGY PREDICTED BY IDOCK:   -3.60 KCAL/MOL
REMARK 922        TOTAL FREE ENERGY PREDICTED BY IDOCK:  -10.68 KCAL/MOL
REMARK 923 INTER-LIGAND FREE ENERGY PREDICTED BY IDOCK:   -7.94 KCAL/MOL
REMARK 924 INTRA-LIGAND FREE ENERGY PREDICTED BY IDOCK:   -2.74 KCAL/MOL
REMARK 927      BINDING AFFINITY PREDICTED BY RF-SCORE:    0.00 PKD
ROOT
HETATM    1  C   UNL     1      -6.363  16.578  66.963  1.00  0.00    -0.207 C  
HETATM    2  C   UNL     1      -6.771  18.035  67.095  1.00  0.00    -0.203 C  
ENDROOT
BRANCH   2   3
HETATM    3  C   UNL     1      -6.947  18.425  68.560  1.00  0.00    -0.273 C  
BRANCH   3   4
HETATM    4  C   UNL     1      -7.872  19.631  68.701  1.00  0.00    -0.349 C  
BRANCH   4   5
HETATM    5  C   UNL     1      -8.404  20.065  67.338  1.00  0.00    -0.382 C  
BRANCH   5   6
HETATM    6  C   UNL     1      -9.909  20.306  67.395  1.00  0.00    -0.586 C  
BRANCH   6   7
HETATM    7  C   UNL     1     -10.667  18.984  67.357  1.00  0.00    -0.559 C  
BRANCH   7   8
HETATM    8  C   UNL     1     -10.515  18.319  65.995  1.00  0.00    -0.380 C  
BRANCH   8   9
HETATM    9  C   UNL     1     -10.244  16.828  66.154  1.00  0.00    -0.363 C  
BRANCH   9  10
HETATM   10  C   UNL     1     -10.358  16.417  67.615  1.00  0.00    -0.284 C  
BRANCH  10  11
HETATM   11  C   UNL     1     -11.539  15.477  67.814  1.00  0.00    -0.193 C  
BRANCH  11  12
HETATM   12  C   UNL     1     -11.065  14.031  67.872  1.00  0.00    -0.274 C  
BRANCH  12  13
HETATM   13  C   UNL     1     -11.778  13.195  66.820  1.00  0.00    -0.439 C  
BRANCH  13  14
HETATM   14  C   UNL     1     -12.482  14.092  65.810  1.00  0.00    -0.523 C  
BRANCH  14  15
HETATM   15  C   UNL     1     -12.122  13.682  64.390  1.00  0.00    -0.470 C  
BRANCH  15  16
HETATM   16  C   UNL     1     -10.688  13.172  64.327  1.00  0.00    -0.431 C  
BRANCH  16  17
HETATM   17  C   UNL     1     -10.605  11.901  63.489  1.00  0.00    -0.507 C  
BRANCH  17  18
HETATM   18  C   UNL     1     -10.170  10.719  64.347  1.00  0.00    -0.432 C  
BRANCH  18  19
HETATM   19  C   UNL     1      -9.181  11.162  65.419  1.00  0.00    -0.225 C  
BRANCH  19  20
HETATM   20  C   UNL     1      -8.548   9.954  66.103  1.00  0.00    -0.138 C  
BRANCH  20  21
HETATM   21  C   UNL     1      -7.432  10.383  67.047  1.00  0.00    -0.097 C  
BRANCH  21  22
HETATM   22  C   UNL     1      -6.171  10.757  66.279  1.00  0.00    -0.130 C  
HETATM   23  O   UNL     1      -5.887  12.137  66.466  1.00  0.00    -0.501 OA 
HETATM   24  H   UNL     1      -5.100  12.371  65.987  1.00  0.00     0.000 HD 
ENDBRANCH  21  22
ENDBRANCH  20  21
ENDBRANCH  19  20
ENDBRANCH  18  19
ENDBRANCH  17  18
ENDBRANCH  16  17
ENDBRANCH  15  16
ENDBRANCH  14  15
ENDBRANCH  13  14
ENDBRANCH  12  13
ENDBRANCH  11  12
ENDBRANCH  10  11
ENDBRANCH   9  10
ENDBRANCH   8   9
ENDBRANCH   7   8
ENDBRANCH   6   7
ENDBRANCH   5   6
ENDBRANCH   4   5
ENDBRANCH   3   4
ENDBRANCH   2   3
TORSDOF 20
ENDMDL
MODEL      154
REMARK 921   NORMALIZED FREE ENERGY PREDICTED BY IDOCK:   -3.60 KCAL/MOL
REMARK 922        TOTAL FREE ENERGY PREDICTED BY IDOCK:  -10.67 KCAL/MOL
REMARK 923 INTER-LIGAND FREE ENERGY PREDICTED BY IDOCK:   -8.45 KCAL/MOL
REMARK 924 INTRA-LIGAND FREE ENERGY PREDICTED BY IDOCK:   -2.22 KCAL/MOL
REMARK 927      BINDING AFFINITY PREDICTED BY RF-SCORE:    0.00 PKD
ROOT
HETATM    1  C   UNL     1      -9.942  10.308  68.873  1.00  0.00    -0.209 C  
HETATM    2  C   UNL     1     -11.256  10.796  68.288  1.00  0.00    -0.358 C  
ENDROOT
BRANCH   2   3
HETATM    3  C   UNL     1     -12.101  11.501  69.345  1.00  0.00    -0.345 C  
BRANCH   3   4
HETATM    4  C   UNL     1     -12.009  10.785  70.690  1.00  0.00    -0.466 C  
BRANCH   4   5
HETATM    5  C   UNL     1     -12.945  11.427  71.709  1.00  0.00    -0.519 C  
BRANCH   5   6
HETATM    6  C   UNL     1     -13.247  12.874  71.333  1.00  0.00    -0.262 C  
BRANCH   6   7
HETATM    7  C   UNL     1     -13.571  13.695  72.574  1.00  0.00    -0.675 C  
BRANCH   7   8
HETATM    8  C   UNL     1     -12.590  14.851  72.724  1.00  0.00    -0.477 C  
BRANCH   8   9
HETATM    9  C   UNL     1     -12.746  15.839  71.576  1.00  0.00    -0.512 C  
BRANCH   9  10
HETATM   10  C   UNL     1     -11.485  15.872  70.725  1.00  0.00    -0.437 C  
BRANCH  10  11
HETATM   11  C   UNL     1     -11.803  15.496  69.284  1.00  0.00    -0.372 C  
BRANCH  11  12
HETATM   12  C   UNL     1     -10.600  14.834  68.628  1.00  0.00    -0.255 C  
BRANCH  12  13
HETATM   13  C   UNL     1      -9.454  15.825  68.495  1.00  0.00    -0.201 C  
BRANCH  13  14
HETATM   14  C   UNL     1      -9.294  16.267  67.046  1.00  0.00    -0.235 C  
BRANCH  14  15
HETATM   15  C   UNL     1     -10.602  16.829  66.511  1.00  0.00    -0.198 C  
BRANCH  15  16
HETATM   16  C   UNL     1     -10.447  18.302  66.156  1.00  0.00    -0.403 C  
BRANCH  16  17
HETATM   17  C   UNL     1     -11.010  19.185  67.264  1.00  0.00    -0.417 C  
BRANCH  17  18
HETATM   18  C   UNL     1      -9.883  19.799  68.086  1.00  0.00    -0.536 C  
BRANCH  18  19
HETATM   19  C   UNL     1      -8.873  20.500  67.184  1.00  0.00    -0.399 C  
BRANCH  19  20
HETATM   20  C   UNL     1      -7.466  19.970  67.436  1.00  0.00    -0.314 C  
BRANCH  20  21
HETATM   21  C   UNL     1      -7.420  19.120  68.700  1.00  0.00    -0.370 C  
BRANCH  21  22
HETATM   22  C   UNL     1      -6.021  19.101  69.304  1.00  0.00    -0.252 C  
HETATM   23  O   UNL     1      -5.470  20.412  69.280  1.00  0.00    -0.239 OA 
HETATM   24  H   UNL     1      -4.598  20.400  69.657  1.00  0.00     0.000 HD 
ENDBRANCH  21  22
ENDBRANCH  20  21
ENDBRANCH  19  20
ENDBRANCH  18  19
ENDBRANCH  17  18
ENDBRANCH  16  17
ENDBRANCH  15  16
ENDBRANCH  14  15
ENDBRANCH  13  14
ENDBRANCH  12  13
ENDBRANCH  11  12
ENDBRANCH  10  11
ENDBRANCH   9  10
ENDBRANCH   8   9
ENDBRANCH   7   8
ENDBRANCH   6   7
ENDBRANCH   5   6
ENDBRANCH   4   5
ENDBRANCH   3   4
ENDBRANCH   2   3
TORSDOF 20
ENDMDL
MODEL      155
REMARK 921   NORMALIZED FREE ENERGY PREDICTED BY IDOCK:   -3.60 KCAL/MOL
REMARK 922        TOTAL FREE ENERGY PREDICTED BY IDOCK:  -10.67 KCAL/MOL
REMARK 923 INTER-LIGAND FREE ENERGY PREDICTED BY IDOCK:   -7.95 KCAL/MOL
REMARK 924 INTRA-LIGAND FREE ENERGY PREDICTED BY IDOCK:   -2.72 KCAL/MOL
REMARK 927      BINDING AFFINITY PREDICTED BY RF-SCORE:    0.00 PKD
ROOT
HETATM    1  C   UNL     1     -10.814   7.082  67.057  1.00  0.00    -0.413 C  
HETATM    2  C   UNL     1     -10.518   8.568  67.167  1.00  0.00    -0.370 C  
ENDROOT
BRANCH   2   3
HETATM    3  C   UNL     1      -9.028   8.846  66.991  1.00  0.00    -0.145 C  
BRANCH   3   4
HETATM    4  C   UNL     1      -8.500   9.743  68.108  1.00  0.00    -0.114 C  
BRANCH   4   5
HETATM    5  C   UNL     1      -8.638   9.056  69.463  1.00  0.00    -0.138 C  
BRANCH   5   6
HETATM    6  C   UNL     1      -7.869   7.739  69.485  1.00  0.00    -0.111 C  
BRANCH   6   7
HETATM    7  C   UNL     1      -8.651   6.673  70.243  1.00  0.00    -0.140 C  
BRANCH   7   8
HETATM    8  C   UNL     1      -9.809   7.299  71.008  1.00  0.00    -0.183 C  
BRANCH   8   9
HETATM    9  C   UNL     1     -11.092   6.512  70.779  1.00  0.00    -0.354 C  
BRANCH   9  10
HETATM   10  C   UNL     1     -11.969   6.544  72.023  1.00  0.00    -0.372 C  
BRANCH  10  11
HETATM   11  C   UNL     1     -13.150   7.483  71.820  1.00  0.00    -0.362 C  
BRANCH  11  12
HETATM   12  C   UNL     1     -12.926   8.790  72.566  1.00  0.00    -0.382 C  
BRANCH  12  13
HETATM   13  C   UNL     1     -13.034   9.972  71.614  1.00  0.00    -0.554 C  
BRANCH  13  14
HETATM   14  C   UNL     1     -11.682  10.278  70.984  1.00  0.00    -0.461 C  
BRANCH  14  15
HETATM   15  C   UNL     1     -11.756  11.550  70.153  1.00  0.00    -0.395 C  
BRANCH  15  16
HETATM   16  C   UNL     1     -12.138  11.228  68.714  1.00  0.00    -0.258 C  
BRANCH  16  17
HETATM   17  C   UNL     1     -11.442  12.179  67.747  1.00  0.00    -0.398 C  
BRANCH  17  18
HETATM   18  C   UNL     1     -12.153  13.527  67.714  1.00  0.00    -0.316 C  
BRANCH  18  19
HETATM   19  C   UNL     1     -11.180  14.661  68.016  1.00  0.00    -0.307 C  
BRANCH  19  20
HETATM   20  C   UNL     1      -9.902  14.507  67.198  1.00  0.00    -0.245 C  
BRANCH  20  21
HETATM   21  C   UNL     1     -10.170  14.737  65.715  1.00  0.00    -0.359 C  
BRANCH  21  22
HETATM   22  C   UNL     1     -10.540  16.188  65.439  1.00  0.00    -0.380 C  
HETATM   23  O   UNL     1     -11.161  16.292  64.164  1.00  0.00    -1.193 OA 
HETATM   24  H   UNL     1     -11.392  17.197  63.992  1.00  0.00     0.000 HD 
ENDBRANCH  21  22
ENDBRANCH  20  21
ENDBRANCH  19  20
ENDBRANCH  18  19
ENDBRANCH  17  18
ENDBRANCH  16  17
ENDBRANCH  15  16
ENDBRANCH  14  15
ENDBRANCH  13  14
ENDBRANCH  12  13
ENDBRANCH  11  12
ENDBRANCH  10  11
ENDBRANCH   9  10
ENDBRANCH   8   9
ENDBRANCH   7   8
ENDBRANCH   6   7
ENDBRANCH   5   6
ENDBRANCH   4   5
ENDBRANCH   3   4
ENDBRANCH   2   3
TORSDOF 20
ENDMDL
MODEL      156
REMARK 921   NORMALIZED FREE ENERGY PREDICTED BY IDOCK:   -3.59 KCAL/MOL
REMARK 922        TOTAL FREE ENERGY PREDICTED BY IDOCK:  -10.65 KCAL/MOL
REMARK 923 INTER-LIGAND FREE ENERGY PREDICTED BY IDOCK:   -7.02 KCAL/MOL
REMARK 924 INTRA-LIGAND FREE ENERGY PREDICTED BY IDOCK:   -3.64 KCAL/MOL
REMARK 927      BINDING AFFINITY PREDICTED BY RF-SCORE:    0.00 PKD
ROOT
HETATM    1  C   UNL     1      -7.657   4.394  70.891  1.00  0.00    -0.052 C  
HETATM    2  C   UNL     1      -8.652   4.607  72.019  1.00  0.00    -0.124 C  
ENDROOT
BRANCH   2   3
HETATM    3  C   UNL     1     -10.066   4.795  71.475  1.00  0.00    -0.260 C  
BRANCH   3   4
HETATM    4  C   UNL     1     -10.047   5.066  69.974  1.00  0.00    -0.342 C  
BRANCH   4   5
HETATM    5  C   UNL     1     -11.103   6.101  69.598  1.00  0.00    -0.489 C  
BRANCH   5   6
HETATM    6  C   UNL     1     -10.799   6.717  68.236  1.00  0.00    -0.322 C  
BRANCH   6   7
HETATM    7  C   UNL     1     -10.363   8.169  68.387  1.00  0.00    -0.236 C  
BRANCH   7   8
HETATM    8  C   UNL     1      -8.923   8.347  67.922  1.00  0.00    -0.138 C  
BRANCH   8   9
HETATM    9  C   UNL     1      -7.963   8.260  69.101  1.00  0.00    -0.112 C  
BRANCH   9  10
HETATM   10  C   UNL     1      -8.586   8.880  70.344  1.00  0.00    -0.198 C  
BRANCH  10  11
HETATM   11  C   UNL     1      -8.140   8.133  71.594  1.00  0.00    -0.150 C  
BRANCH  11  12
HETATM   12  C   UNL     1      -9.236   8.155  72.649  1.00  0.00    -0.332 C  
BRANCH  12  13
HETATM   13  C   UNL     1     -10.511   8.758  72.079  1.00  0.00    -0.414 C  
BRANCH  13  14
HETATM   14  C   UNL     1     -11.736   8.033  72.622  1.00  0.00    -0.418 C  
BRANCH  14  15
HETATM   15  C   UNL     1     -12.995   8.848  72.367  1.00  0.00    -0.467 C  
BRANCH  15  16
HETATM   16  C   UNL     1     -12.891   9.594  71.043  1.00  0.00    -0.342 C  
BRANCH  16  17
HETATM   17  C   UNL     1     -12.967  11.100  71.267  1.00  0.00    -0.457 C  
BRANCH  17  18
HETATM   18  C   UNL     1     -12.017  11.832  70.327  1.00  0.00    -0.429 C  
BRANCH  18  19
HETATM   19  C   UNL     1     -12.011  11.181  68.948  1.00  0.00    -0.367 C  
BRANCH  19  20
HETATM   20  C   UNL     1     -11.228  12.031  67.953  1.00  0.00    -0.323 C  
BRANCH  20  21
HETATM   21  C   UNL     1     -11.480  13.516  68.186  1.00  0.00    -0.338 C  
BRANCH  21  22
HETATM   22  C   UNL     1     -11.591  14.271  66.868  1.00  0.00    -0.387 C  
HETATM   23  O   UNL     1     -10.918  15.519  66.970  1.00  0.00    -0.321 OA 
HETATM   24  H   UNL     1     -10.987  15.990  66.148  1.00  0.00     0.000 HD 
ENDBRANCH  21  22
ENDBRANCH  20  21
ENDBRANCH  19  20
ENDBRANCH  18  19
ENDBRANCH  17  18
ENDBRANCH  16  17
ENDBRANCH  15  16
ENDBRANCH  14  15
ENDBRANCH  13  14
ENDBRANCH  12  13
ENDBRANCH  11  12
ENDBRANCH  10  11
ENDBRANCH   9  10
ENDBRANCH   8   9
ENDBRANCH   7   8
ENDBRANCH   6   7
ENDBRANCH   5   6
ENDBRANCH   4   5
ENDBRANCH   3   4
ENDBRANCH   2   3
TORSDOF 20
ENDMDL
MODEL      157
REMARK 921   NORMALIZED FREE ENERGY PREDICTED BY IDOCK:   -3.58 KCAL/MOL
REMARK 922        TOTAL FREE ENERGY PREDICTED BY IDOCK:  -10.64 KCAL/MOL
REMARK 923 INTER-LIGAND FREE ENERGY PREDICTED BY IDOCK:   -8.22 KCAL/MOL
REMARK 924 INTRA-LIGAND FREE ENERGY PREDICTED BY IDOCK:   -2.42 KCAL/MOL
REMARK 927      BINDING AFFINITY PREDICTED BY RF-SCORE:    0.00 PKD
ROOT
HETATM    1  C   UNL     1     -10.734  16.122  65.371  1.00  0.00    -0.374 C  
HETATM    2  C   UNL     1     -10.573  14.640  65.077  1.00  0.00    -0.461 C  
ENDROOT
BRANCH   2   3
HETATM    3  C   UNL     1     -10.462  13.833  66.368  1.00  0.00    -0.284 C  
BRANCH   3   4
HETATM    4  C   UNL     1     -11.744  13.931  67.190  1.00  0.00    -0.419 C  
BRANCH   4   5
HETATM    5  C   UNL     1     -11.581  13.223  68.531  1.00  0.00    -0.368 C  
BRANCH   5   6
HETATM    6  C   UNL     1     -10.673  12.006  68.396  1.00  0.00    -0.255 C  
BRANCH   6   7
HETATM    7  C   UNL     1     -11.443  10.724  68.690  1.00  0.00    -0.365 C  
BRANCH   7   8
HETATM    8  C   UNL     1     -11.433  10.424  70.184  1.00  0.00    -0.396 C  
BRANCH   8   9
HETATM    9  C   UNL     1     -12.786  10.748  70.804  1.00  0.00    -0.451 C  
BRANCH   9  10
HETATM   10  C   UNL     1     -13.061   9.835  71.991  1.00  0.00    -0.546 C  
BRANCH  10  11
HETATM   11  C   UNL     1     -11.988   8.761  72.099  1.00  0.00    -0.436 C  
BRANCH  11  12
HETATM   12  C   UNL     1     -12.596   7.379  71.905  1.00  0.00    -0.322 C  
BRANCH  12  13
HETATM   13  C   UNL     1     -12.129   6.771  70.592  1.00  0.00    -0.371 C  
BRANCH  13  14
HETATM   14  C   UNL     1     -10.611   6.647  70.569  1.00  0.00    -0.270 C  
BRANCH  14  15
HETATM   15  C   UNL     1     -10.157   5.866  69.345  1.00  0.00    -0.260 C  
BRANCH  15  16
HETATM   16  C   UNL     1      -8.829   6.404  68.828  1.00  0.00    -0.124 C  
BRANCH  16  17
HETATM   17  C   UNL     1      -8.948   7.882  68.474  1.00  0.00    -0.133 C  
BRANCH  17  18
HETATM   18  C   UNL     1      -8.584   8.114  67.012  1.00  0.00    -0.124 C  
BRANCH  18  19
HETATM   19  C   UNL     1      -9.768   8.690  66.243  1.00  0.00    -0.322 C  
BRANCH  19  20
HETATM   20  C   UNL     1      -9.290   9.610  65.125  1.00  0.00    -0.322 C  
BRANCH  20  21
HETATM   21  C   UNL     1     -10.300  10.720  64.861  1.00  0.00    -0.369 C  
BRANCH  21  22
HETATM   22  C   UNL     1     -10.277  11.154  63.401  1.00  0.00    -0.380 C  
HETATM   23  O   UNL     1     -11.601  11.417  62.957  1.00  0.00    -0.865 OA 
HETATM   24  H   UNL     1     -11.587  11.687  62.046  1.00  0.00     0.000 HD 
ENDBRANCH  21  22
ENDBRANCH  20  21
ENDBRANCH  19  20
ENDBRANCH  18  19
ENDBRANCH  17  18
ENDBRANCH  16  17
ENDBRANCH  15  16
ENDBRANCH  14  15
ENDBRANCH  13  14
ENDBRANCH  12  13
ENDBRANCH  11  12
ENDBRANCH  10  11
ENDBRANCH   9  10
ENDBRANCH   8   9
ENDBRANCH   7   8
ENDBRANCH   6   7
ENDBRANCH   5   6
ENDBRANCH   4   5
ENDBRANCH   3   4
ENDBRANCH   2   3
TORSDOF 20
ENDMDL
MODEL      158
REMARK 921   NORMALIZED FREE ENERGY PREDICTED BY IDOCK:   -3.58 KCAL/MOL
REMARK 922        TOTAL FREE ENERGY PREDICTED BY IDOCK:  -10.64 KCAL/MOL
REMARK 923 INTER-LIGAND FREE ENERGY PREDICTED BY IDOCK:   -8.17 KCAL/MOL
REMARK 924 INTRA-LIGAND FREE ENERGY PREDICTED BY IDOCK:   -2.47 KCAL/MOL
REMARK 927      BINDING AFFINITY PREDICTED BY RF-SCORE:    0.00 PKD
ROOT
HETATM    1  C   UNL     1     -12.029  12.830  63.609  1.00  0.00    -0.616 C  
HETATM    2  C   UNL     1     -10.957  13.621  64.340  1.00  0.00    -0.379 C  
ENDROOT
BRANCH   2   3
HETATM    3  C   UNL     1     -11.578  14.661  65.267  1.00  0.00    -0.354 C  
BRANCH   3   4
HETATM    4  C   UNL     1     -11.908  14.057  66.629  1.00  0.00    -0.443 C  
BRANCH   4   5
HETATM    5  C   UNL     1     -10.639  13.593  67.336  1.00  0.00    -0.260 C  
BRANCH   5   6
HETATM    6  C   UNL     1     -10.899  12.325  68.143  1.00  0.00    -0.258 C  
BRANCH   6   7
HETATM    7  C   UNL     1     -11.207  11.153  67.219  1.00  0.00    -0.347 C  
BRANCH   7   8
HETATM    8  C   UNL     1     -10.068  10.142  67.236  1.00  0.00    -0.254 C  
BRANCH   8   9
HETATM    9  C   UNL     1     -10.556   8.792  67.743  1.00  0.00    -0.256 C  
BRANCH   9  10
HETATM   10  C   UNL     1     -10.122   7.678  66.802  1.00  0.00    -0.325 C  
BRANCH  10  11
HETATM   11  C   UNL     1     -10.734   6.350  67.227  1.00  0.00    -0.426 C  
BRANCH  11  12
HETATM   12  C   UNL     1     -11.059   6.365  68.714  1.00  0.00    -0.404 C  
BRANCH  12  13
HETATM   13  C   UNL     1     -10.133   5.426  69.471  1.00  0.00    -0.310 C  
BRANCH  13  14
HETATM   14  C   UNL     1      -8.776   6.080  69.697  1.00  0.00    -0.133 C  
BRANCH  14  15
HETATM   15  C   UNL     1      -8.702   6.691  71.088  1.00  0.00    -0.137 C  
BRANCH  15  16
HETATM   16  C   UNL     1      -8.767   8.210  71.010  1.00  0.00    -0.156 C  
BRANCH  16  17
HETATM   17  C   UNL     1      -9.800   8.756  71.989  1.00  0.00    -0.376 C  
BRANCH  17  18
HETATM   18  C   UNL     1     -11.111   9.059  71.274  1.00  0.00    -0.382 C  
BRANCH  18  19
HETATM   19  C   UNL     1     -12.287   8.984  72.243  1.00  0.00    -0.402 C  
BRANCH  19  20
HETATM   20  C   UNL     1     -13.222  10.173  72.050  1.00  0.00    -0.534 C  
BRANCH  20  21
HETATM   21  C   UNL     1     -12.571  11.246  71.185  1.00  0.00    -0.501 C  
BRANCH  21  22
HETATM   22  C   UNL     1     -12.963  12.643  71.648  1.00  0.00    -0.299 C  
HETATM   23  O   UNL     1     -13.899  12.551  72.714  1.00  0.00    -0.620 OA 
HETATM   24  H   UNL     1     -14.144  13.422  73.003  1.00  0.00     0.000 HD 
ENDBRANCH  21  22
ENDBRANCH  20  21
ENDBRANCH  19  20
ENDBRANCH  18  19
ENDBRANCH  17  18
ENDBRANCH  16  17
ENDBRANCH  15  16
ENDBRANCH  14  15
ENDBRANCH  13  14
ENDBRANCH  12  13
ENDBRANCH  11  12
ENDBRANCH  10  11
ENDBRANCH   9  10
ENDBRANCH   8   9
ENDBRANCH   7   8
ENDBRANCH   6   7
ENDBRANCH   5   6
ENDBRANCH   4   5
ENDBRANCH   3   4
ENDBRANCH   2   3
TORSDOF 20
ENDMDL
MODEL      159
REMARK 921   NORMALIZED FREE ENERGY PREDICTED BY IDOCK:   -3.58 KCAL/MOL
REMARK 922        TOTAL FREE ENERGY PREDICTED BY IDOCK:  -10.63 KCAL/MOL
REMARK 923 INTER-LIGAND FREE ENERGY PREDICTED BY IDOCK:   -8.51 KCAL/MOL
REMARK 924 INTRA-LIGAND FREE ENERGY PREDICTED BY IDOCK:   -2.12 KCAL/MOL
REMARK 927      BINDING AFFINITY PREDICTED BY RF-SCORE:    0.00 PKD
ROOT
HETATM    1  C   UNL     1     -12.335  12.569  64.903  1.00  0.00    -0.539 C  
HETATM    2  C   UNL     1     -11.382  11.939  63.901  1.00  0.00    -0.509 C  
ENDROOT
BRANCH   2   3
HETATM    3  C   UNL     1     -10.335  11.081  64.603  1.00  0.00    -0.410 C  
BRANCH   3   4
HETATM    4  C   UNL     1     -10.665  10.910  66.083  1.00  0.00    -0.225 C  
BRANCH   4   5
HETATM    5  C   UNL     1      -9.539  10.177  66.807  1.00  0.00    -0.222 C  
BRANCH   5   6
HETATM    6  C   UNL     1     -10.094   9.058  67.681  1.00  0.00    -0.271 C  
BRANCH   6   7
HETATM    7  C   UNL     1     -10.174   7.753  66.898  1.00  0.00    -0.373 C  
BRANCH   7   8
HETATM    8  C   UNL     1     -10.888   6.682  67.712  1.00  0.00    -0.372 C  
BRANCH   8   9
HETATM    9  C   UNL     1      -9.898   5.924  68.587  1.00  0.00    -0.170 C  
BRANCH   9  10
HETATM   10  C   UNL     1     -10.575   5.433  69.858  1.00  0.00    -0.351 C  
BRANCH  10  11
HETATM   11  C   UNL     1      -9.624   5.535  71.043  1.00  0.00    -0.217 C  
BRANCH  11  12
HETATM   12  C   UNL     1      -8.593   6.630  70.807  1.00  0.00    -0.135 C  
BRANCH  12  13
HETATM   13  C   UNL     1      -8.792   7.771  71.793  1.00  0.00    -0.150 C  
BRANCH  13  14
HETATM   14  C   UNL     1      -9.624   8.882  71.165  1.00  0.00    -0.342 C  
BRANCH  14  15
HETATM   15  C   UNL     1     -11.020   8.909  71.768  1.00  0.00    -0.431 C  
BRANCH  15  16
HETATM   16  C   UNL     1     -11.996   9.604  70.827  1.00  0.00    -0.356 C  
BRANCH  16  17
HETATM   17  C   UNL     1     -13.305   9.916  71.544  1.00  0.00    -0.462 C  
BRANCH  17  18
HETATM   18  C   UNL     1     -13.408  11.405  71.850  1.00  0.00    -0.409 C  
BRANCH  18  19
HETATM   19  C   UNL     1     -12.565  12.219  70.874  1.00  0.00    -0.334 C  
BRANCH  19  20
HETATM   20  C   UNL     1     -12.730  13.713  71.134  1.00  0.00    -0.432 C  
BRANCH  20  21
HETATM   21  C   UNL     1     -13.460  13.961  72.449  1.00  0.00    -0.661 C  
BRANCH  21  22
HETATM   22  C   UNL     1     -12.917  15.195  73.158  1.00  0.00    -0.518 C  
HETATM   23  O   UNL     1     -12.295  14.814  74.378  1.00  0.00    -0.624 OA 
HETATM   24  H   UNL     1     -11.957  15.584  74.821  1.00  0.00     0.000 HD 
ENDBRANCH  21  22
ENDBRANCH  20  21
ENDBRANCH  19  20
ENDBRANCH  18  19
ENDBRANCH  17  18
ENDBRANCH  16  17
ENDBRANCH  15  16
ENDBRANCH  14  15
ENDBRANCH  13  14
ENDBRANCH  12  13
ENDBRANCH  11  12
ENDBRANCH  10  11
ENDBRANCH   9  10
ENDBRANCH   8   9
ENDBRANCH   7   8
ENDBRANCH   6   7
ENDBRANCH   5   6
ENDBRANCH   4   5
ENDBRANCH   3   4
ENDBRANCH   2   3
TORSDOF 20
ENDMDL
MODEL      160
REMARK 921   NORMALIZED FREE ENERGY PREDICTED BY IDOCK:   -3.57 KCAL/MOL
REMARK 922        TOTAL FREE ENERGY PREDICTED BY IDOCK:  -10.62 KCAL/MOL
REMARK 923 INTER-LIGAND FREE ENERGY PREDICTED BY IDOCK:   -8.11 KCAL/MOL
REMARK 924 INTRA-LIGAND FREE ENERGY PREDICTED BY IDOCK:   -2.50 KCAL/MOL
REMARK 927      BINDING AFFINITY PREDICTED BY RF-SCORE:    0.00 PKD
ROOT
HETATM    1  C   UNL     1     -12.689  11.955  63.515  1.00  0.00    -0.530 C  
HETATM    2  C   UNL     1     -11.493  12.543  64.244  1.00  0.00    -0.423 C  
ENDROOT
BRANCH   2   3
HETATM    3  C   UNL     1     -11.878  13.013  65.643  1.00  0.00    -0.445 C  
BRANCH   3   4
HETATM    4  C   UNL     1     -11.412  12.021  66.705  1.00  0.00    -0.410 C  
BRANCH   4   5
HETATM    5  C   UNL     1      -9.889  11.934  66.732  1.00  0.00    -0.214 C  
BRANCH   5   6
HETATM    6  C   UNL     1      -9.326  12.656  67.951  1.00  0.00    -0.204 C  
BRANCH   6   7
HETATM    7  C   UNL     1      -8.398  13.787  67.526  1.00  0.00    -0.197 C  
BRANCH   7   8
HETATM    8  C   UNL     1      -9.202  15.008  67.096  1.00  0.00    -0.229 C  
BRANCH   8   9
HETATM    9  C   UNL     1      -9.714  15.768  68.312  1.00  0.00    -0.201 C  
BRANCH   9  10
HETATM   10  C   UNL     1     -11.204  16.050  68.178  1.00  0.00    -0.325 C  
BRANCH  10  11
HETATM   11  C   UNL     1     -12.011  15.062  69.008  1.00  0.00    -0.298 C  
BRANCH  11  12
HETATM   12  C   UNL     1     -12.114  15.537  70.451  1.00  0.00    -0.426 C  
BRANCH  12  13
HETATM   13  C   UNL     1     -12.990  14.594  71.260  1.00  0.00    -0.407 C  
BRANCH  13  14
HETATM   14  C   UNL     1     -12.608  13.144  70.992  1.00  0.00    -0.397 C  
BRANCH  14  15
HETATM   15  C   UNL     1     -13.389  12.208  71.902  1.00  0.00    -0.421 C  
BRANCH  15  16
HETATM   16  C   UNL     1     -12.966  10.763  71.674  1.00  0.00    -0.581 C  
BRANCH  16  17
HETATM   17  C   UNL     1     -12.067  10.652  70.449  1.00  0.00    -0.430 C  
BRANCH  17  18
HETATM   18  C   UNL     1     -10.831   9.818  70.764  1.00  0.00    -0.403 C  
BRANCH  18  19
HETATM   19  C   UNL     1     -10.688   8.665  69.776  1.00  0.00    -0.215 C  
BRANCH  19  20
HETATM   20  C   UNL     1     -11.284   7.385  70.351  1.00  0.00    -0.284 C  
BRANCH  20  21
HETATM   21  C   UNL     1     -11.174   7.364  71.870  1.00  0.00    -0.282 C  
BRANCH  21  22
HETATM   22  C   UNL     1     -10.825   5.972  72.381  1.00  0.00    -0.247 C  
HETATM   23  O   UNL     1     -11.922   5.439  73.111  1.00  0.00    -0.546 OA 
HETATM   24  H   UNL     1     -11.705   4.571  73.430  1.00  0.00     0.000 HD 
ENDBRANCH  21  22
ENDBRANCH  20  21
ENDBRANCH  19  20
ENDBRANCH  18  19
ENDBRANCH  17  18
ENDBRANCH  16  17
ENDBRANCH  15  16
ENDBRANCH  14  15
ENDBRANCH  13  14
ENDBRANCH  12  13
ENDBRANCH  11  12
ENDBRANCH  10  11
ENDBRANCH   9  10
ENDBRANCH   8   9
ENDBRANCH   7   8
ENDBRANCH   6   7
ENDBRANCH   5   6
ENDBRANCH   4   5
ENDBRANCH   3   4
ENDBRANCH   2   3
TORSDOF 20
ENDMDL
MODEL      161
REMARK 921   NORMALIZED FREE ENERGY PREDICTED BY IDOCK:   -3.57 KCAL/MOL
REMARK 922        TOTAL FREE ENERGY PREDICTED BY IDOCK:  -10.61 KCAL/MOL
REMARK 923 INTER-LIGAND FREE ENERGY PREDICTED BY IDOCK:   -7.00 KCAL/MOL
REMARK 924 INTRA-LIGAND FREE ENERGY PREDICTED BY IDOCK:   -3.61 KCAL/MOL
REMARK 927      BINDING AFFINITY PREDICTED BY RF-SCORE:    0.00 PKD
ROOT
HETATM    1  C   UNL     1      -7.074  11.301  69.057  1.00  0.00    -0.116 C  
HETATM    2  C   UNL     1      -6.984  10.312  70.206  1.00  0.00    -0.136 C  
ENDROOT
BRANCH   2   3
HETATM    3  C   UNL     1      -6.980   8.875  69.696  1.00  0.00    -0.054 C  
BRANCH   3   4
HETATM    4  C   UNL     1      -7.385   7.898  70.796  1.00  0.00    -0.061 C  
BRANCH   4   5
HETATM    5  C   UNL     1      -8.501   8.485  71.656  1.00  0.00    -0.235 C  
BRANCH   5   6
HETATM    6  C   UNL     1      -8.326   8.088  73.118  1.00  0.00    -0.253 C  
BRANCH   6   7
HETATM    7  C   UNL     1      -9.617   7.500  73.673  1.00  0.00    -0.347 C  
BRANCH   7   8
HETATM    8  C   UNL     1     -10.709   7.506  72.612  1.00  0.00    -0.354 C  
BRANCH   8   9
HETATM    9  C   UNL     1     -11.293   6.110  72.435  1.00  0.00    -0.340 C  
BRANCH   9  10
HETATM   10  C   UNL     1     -10.314   5.054  72.928  1.00  0.00    -0.238 C  
BRANCH  10  11
HETATM   11  C   UNL     1     -10.007   4.053  71.824  1.00  0.00    -0.240 C  
BRANCH  11  12
HETATM   12  C   UNL     1      -9.246   4.726  70.690  1.00  0.00    -0.191 C  
BRANCH  12  13
HETATM   13  C   UNL     1     -10.078   4.725  69.417  1.00  0.00    -0.241 C  
BRANCH  13  14
HETATM   14  C   UNL     1      -9.664   5.873  68.506  1.00  0.00    -0.151 C  
BRANCH  14  15
HETATM   15  C   UNL     1     -10.440   7.135  68.852  1.00  0.00    -0.218 C  
BRANCH  15  16
HETATM   16  C   UNL     1     -10.522   8.061  67.646  1.00  0.00    -0.301 C  
BRANCH  16  17
HETATM   17  C   UNL     1      -9.998   9.449  67.996  1.00  0.00    -0.209 C  
BRANCH  17  18
HETATM   18  C   UNL     1     -11.144  10.372  68.394  1.00  0.00    -0.322 C  
BRANCH  18  19
HETATM   19  C   UNL     1     -11.203  10.542  69.908  1.00  0.00    -0.374 C  
BRANCH  19  20
HETATM   20  C   UNL     1     -12.646  10.684  70.379  1.00  0.00    -0.395 C  
BRANCH  20  21
HETATM   21  C   UNL     1     -12.794  10.240  71.830  1.00  0.00    -0.565 C  
BRANCH  21  22
HETATM   22  C   UNL     1     -13.852   9.154  71.971  1.00  0.00    -0.420 C  
HETATM   23  O   UNL     1     -14.168   8.966  73.344  1.00  0.00    -1.241 OA 
HETATM   24  H   UNL     1     -14.828   8.288  73.433  1.00  0.00     0.000 HD 
ENDBRANCH  21  22
ENDBRANCH  20  21
ENDBRANCH  19  20
ENDBRANCH  18  19
ENDBRANCH  17  18
ENDBRANCH  16  17
ENDBRANCH  15  16
ENDBRANCH  14  15
ENDBRANCH  13  14
ENDBRANCH  12  13
ENDBRANCH  11  12
ENDBRANCH  10  11
ENDBRANCH   9  10
ENDBRANCH   8   9
ENDBRANCH   7   8
ENDBRANCH   6   7
ENDBRANCH   5   6
ENDBRANCH   4   5
ENDBRANCH   3   4
ENDBRANCH   2   3
TORSDOF 20
ENDMDL
MODEL      162
REMARK 921   NORMALIZED FREE ENERGY PREDICTED BY IDOCK:   -3.56 KCAL/MOL
REMARK 922        TOTAL FREE ENERGY PREDICTED BY IDOCK:  -10.59 KCAL/MOL
REMARK 923 INTER-LIGAND FREE ENERGY PREDICTED BY IDOCK:   -8.41 KCAL/MOL
REMARK 924 INTRA-LIGAND FREE ENERGY PREDICTED BY IDOCK:   -2.18 KCAL/MOL
REMARK 927      BINDING AFFINITY PREDICTED BY RF-SCORE:    0.00 PKD
ROOT
HETATM    1  C   UNL     1     -11.884  12.636  65.373  1.00  0.00    -0.473 C  
HETATM    2  C   UNL     1     -11.154  11.304  65.395  1.00  0.00    -0.138 C  
ENDROOT
BRANCH   2   3
HETATM    3  C   UNL     1     -10.218  11.210  66.597  1.00  0.00    -0.274 C  
BRANCH   3   4
HETATM    4  C   UNL     1     -10.590  12.235  67.665  1.00  0.00    -0.238 C  
BRANCH   4   5
HETATM    5  C   UNL     1      -9.357  13.008  68.123  1.00  0.00    -0.217 C  
BRANCH   5   6
HETATM    6  C   UNL     1      -9.745  14.387  68.649  1.00  0.00    -0.216 C  
BRANCH   6   7
HETATM    7  C   UNL     1     -11.065  14.842  68.040  1.00  0.00    -0.301 C  
BRANCH   7   8
HETATM    8  C   UNL     1     -11.880  15.631  69.057  1.00  0.00    -0.379 C  
BRANCH   8   9
HETATM    9  C   UNL     1     -11.020  16.012  70.255  1.00  0.00    -0.360 C  
BRANCH   9  10
HETATM   10  C   UNL     1     -11.853  16.024  71.528  1.00  0.00    -0.554 C  
BRANCH  10  11
HETATM   11  C   UNL     1     -13.204  15.363  71.290  1.00  0.00    -0.585 C  
BRANCH  11  12
HETATM   12  C   UNL     1     -13.631  14.565  72.514  1.00  0.00    -0.586 C  
BRANCH  12  13
HETATM   13  C   UNL     1     -13.508  13.073  72.246  1.00  0.00    -0.645 C  
BRANCH  13  14
HETATM   14  C   UNL     1     -12.770  12.822  70.937  1.00  0.00    -0.277 C  
BRANCH  14  15
HETATM   15  C   UNL     1     -12.358  11.362  70.828  1.00  0.00    -0.483 C  
BRANCH  15  16
HETATM   16  C   UNL     1     -13.225  10.492  71.730  1.00  0.00    -0.522 C  
BRANCH  16  17
HETATM   17  C   UNL     1     -12.624   9.098  71.872  1.00  0.00    -0.463 C  
BRANCH  17  18
HETATM   18  C   UNL     1     -11.525   8.879  70.839  1.00  0.00    -0.339 C  
BRANCH  18  19
HETATM   19  C   UNL     1     -11.352   7.395  70.538  1.00  0.00    -0.295 C  
BRANCH  19  20
HETATM   20  C   UNL     1      -9.998   6.898  71.034  1.00  0.00    -0.199 C  
BRANCH  20  21
HETATM   21  C   UNL     1     -10.104   6.342  72.449  1.00  0.00    -0.195 C  
BRANCH  21  22
HETATM   22  C   UNL     1     -10.836   5.006  72.464  1.00  0.00    -0.196 C  
HETATM   23  O   UNL     1     -12.041   5.126  73.207  1.00  0.00    -0.476 OA 
HETATM   24  H   UNL     1     -12.497   4.293  73.217  1.00  0.00     0.000 HD 
ENDBRANCH  21  22
ENDBRANCH  20  21
ENDBRANCH  19  20
ENDBRANCH  18  19
ENDBRANCH  17  18
ENDBRANCH  16  17
ENDBRANCH  15  16
ENDBRANCH  14  15
ENDBRANCH  13  14
ENDBRANCH  12  13
ENDBRANCH  11  12
ENDBRANCH  10  11
ENDBRANCH   9  10
ENDBRANCH   8   9
ENDBRANCH   7   8
ENDBRANCH   6   7
ENDBRANCH   5   6
ENDBRANCH   4   5
ENDBRANCH   3   4
ENDBRANCH   2   3
TORSDOF 20
ENDMDL
MODEL      163
REMARK 921   NORMALIZED FREE ENERGY PREDICTED BY IDOCK:   -3.56 KCAL/MOL
REMARK 922        TOTAL FREE ENERGY PREDICTED BY IDOCK:  -10.58 KCAL/MOL
REMARK 923 INTER-LIGAND FREE ENERGY PREDICTED BY IDOCK:   -7.08 KCAL/MOL
REMARK 924 INTRA-LIGAND FREE ENERGY PREDICTED BY IDOCK:   -3.50 KCAL/MOL
REMARK 927      BINDING AFFINITY PREDICTED BY RF-SCORE:    0.00 PKD
ROOT
HETATM    1  C   UNL     1      -8.474  10.299  69.179  1.00  0.00    -0.164 C  
HETATM    2  C   UNL     1      -8.636   9.486  70.452  1.00  0.00    -0.246 C  
ENDROOT
BRANCH   2   3
HETATM    3  C   UNL     1      -7.590   8.378  70.533  1.00  0.00    -0.074 C  
BRANCH   3   4
HETATM    4  C   UNL     1      -7.401   7.905  71.972  1.00  0.00    -0.088 C  
BRANCH   4   5
HETATM    5  C   UNL     1      -8.662   8.155  72.793  1.00  0.00    -0.281 C  
BRANCH   5   6
HETATM    6  C   UNL     1      -8.469   7.700  74.236  1.00  0.00    -0.282 C  
BRANCH   6   7
HETATM    7  C   UNL     1      -8.814   6.223  74.385  1.00  0.00    -0.149 C  
BRANCH   7   8
HETATM    8  C   UNL     1     -10.309   6.000  74.198  1.00  0.00    -0.301 C  
BRANCH   8   9
HETATM    9  C   UNL     1     -10.573   4.647  73.552  1.00  0.00    -0.304 C  
BRANCH   9  10
HETATM   10  C   UNL     1      -9.464   4.298  72.570  1.00  0.00    -0.172 C  
BRANCH  10  11
HETATM   11  C   UNL     1     -10.035   4.072  71.177  1.00  0.00    -0.197 C  
BRANCH  11  12
HETATM   12  C   UNL     1      -9.672   5.229  70.257  1.00  0.00    -0.261 C  
BRANCH  12  13
HETATM   13  C   UNL     1     -10.924   5.824  69.631  1.00  0.00    -0.385 C  
BRANCH  13  14
HETATM   14  C   UNL     1     -11.225   7.190  70.232  1.00  0.00    -0.309 C  
BRANCH  14  15
HETATM   15  C   UNL     1     -12.328   7.084  71.274  1.00  0.00    -0.426 C  
BRANCH  15  16
HETATM   16  C   UNL     1     -12.211   8.208  72.295  1.00  0.00    -0.397 C  
BRANCH  16  17
HETATM   17  C   UNL     1     -13.436   9.113  72.243  1.00  0.00    -0.546 C  
BRANCH  17  18
HETATM   18  C   UNL     1     -13.400   9.995  71.000  1.00  0.00    -0.334 C  
BRANCH  18  19
HETATM   19  C   UNL     1     -12.205  10.941  71.041  1.00  0.00    -0.464 C  
BRANCH  19  20
HETATM   20  C   UNL     1     -11.859  11.435  69.641  1.00  0.00    -0.431 C  
BRANCH  20  21
HETATM   21  C   UNL     1     -11.814  12.958  69.595  1.00  0.00    -0.387 C  
BRANCH  21  22
HETATM   22  C   UNL     1     -11.431  13.458  68.208  1.00  0.00    -0.315 C  
HETATM   23  O   UNL     1     -12.476  14.266  67.683  1.00  0.00    -0.570 OA 
HETATM   24  H   UNL     1     -12.237  14.578  66.818  1.00  0.00     0.000 HD 
ENDBRANCH  21  22
ENDBRANCH  20  21
ENDBRANCH  19  20
ENDBRANCH  18  19
ENDBRANCH  17  18
ENDBRANCH  16  17
ENDBRANCH  15  16
ENDBRANCH  14  15
ENDBRANCH  13  14
ENDBRANCH  12  13
ENDBRANCH  11  12
ENDBRANCH  10  11
ENDBRANCH   9  10
ENDBRANCH   8   9
ENDBRANCH   7   8
ENDBRANCH   6   7
ENDBRANCH   5   6
ENDBRANCH   4   5
ENDBRANCH   3   4
ENDBRANCH   2   3
TORSDOF 20
ENDMDL
MODEL      164
REMARK 921   NORMALIZED FREE ENERGY PREDICTED BY IDOCK:   -3.56 KCAL/MOL
REMARK 922        TOTAL FREE ENERGY PREDICTED BY IDOCK:  -10.58 KCAL/MOL
REMARK 923 INTER-LIGAND FREE ENERGY PREDICTED BY IDOCK:   -6.84 KCAL/MOL
REMARK 924 INTRA-LIGAND FREE ENERGY PREDICTED BY IDOCK:   -3.75 KCAL/MOL
REMARK 927      BINDING AFFINITY PREDICTED BY RF-SCORE:    0.00 PKD
ROOT
HETATM    1  C   UNL     1     -12.555  12.068  63.490  1.00  0.00    -0.625 C  
HETATM    2  C   UNL     1     -11.169  11.734  64.013  1.00  0.00    -0.461 C  
ENDROOT
BRANCH   2   3
HETATM    3  C   UNL     1     -10.778  12.656  65.164  1.00  0.00    -0.321 C  
BRANCH   3   4
HETATM    4  C   UNL     1     -11.928  12.819  66.153  1.00  0.00    -0.476 C  
BRANCH   4   5
HETATM    5  C   UNL     1     -11.650  12.045  67.438  1.00  0.00    -0.388 C  
BRANCH   5   6
HETATM    6  C   UNL     1     -11.014  12.948  68.489  1.00  0.00    -0.288 C  
BRANCH   6   7
HETATM    7  C   UNL     1     -11.994  13.230  69.621  1.00  0.00    -0.376 C  
BRANCH   7   8
HETATM    8  C   UNL     1     -11.984  14.709  69.985  1.00  0.00    -0.376 C  
BRANCH   8   9
HETATM    9  C   UNL     1     -11.614  15.556  68.775  1.00  0.00    -0.390 C  
BRANCH   9  10
HETATM   10  C   UNL     1     -10.732  16.725  69.190  1.00  0.00    -0.329 C  
BRANCH  10  11
HETATM   11  C   UNL     1      -9.489  16.794  68.314  1.00  0.00    -0.240 C  
BRANCH  11  12
HETATM   12  C   UNL     1      -9.624  15.859  67.121  1.00  0.00    -0.224 C  
BRANCH  12  13
HETATM   13  C   UNL     1      -8.352  15.047  66.933  1.00  0.00    -0.247 C  
BRANCH  13  14
HETATM   14  C   UNL     1      -7.695  14.761  68.277  1.00  0.00    -0.120 C  
BRANCH  14  15
HETATM   15  C   UNL     1      -7.454  13.269  68.446  1.00  0.00    -0.124 C  
BRANCH  15  16
HETATM   16  C   UNL     1      -7.440  12.571  67.092  1.00  0.00    -0.077 C  
BRANCH  16  17
HETATM   17  C   UNL     1      -7.852  11.111  67.235  1.00  0.00    -0.137 C  
BRANCH  17  18
HETATM   18  C   UNL     1      -8.015  10.740  68.704  1.00  0.00    -0.133 C  
BRANCH  18  19
HETATM   19  C   UNL     1      -9.095   9.677  68.878  1.00  0.00    -0.144 C  
BRANCH  19  20
HETATM   20  C   UNL     1      -9.604   9.655  70.316  1.00  0.00    -0.307 C  
BRANCH  20  21
HETATM   21  C   UNL     1     -11.128   9.675  70.356  1.00  0.00    -0.346 C  
BRANCH  21  22
HETATM   22  C   UNL     1     -11.650   9.262  71.726  1.00  0.00    -0.388 C  
HETATM   23  O   UNL     1     -10.722   8.385  72.350  1.00  0.00    -0.318 OA 
HETATM   24  H   UNL     1     -11.048   8.127  73.204  1.00  0.00     0.000 HD 
ENDBRANCH  21  22
ENDBRANCH  20  21
ENDBRANCH  19  20
ENDBRANCH  18  19
ENDBRANCH  17  18
ENDBRANCH  16  17
ENDBRANCH  15  16
ENDBRANCH  14  15
ENDBRANCH  13  14
ENDBRANCH  12  13
ENDBRANCH  11  12
ENDBRANCH  10  11
ENDBRANCH   9  10
ENDBRANCH   8   9
ENDBRANCH   7   8
ENDBRANCH   6   7
ENDBRANCH   5   6
ENDBRANCH   4   5
ENDBRANCH   3   4
ENDBRANCH   2   3
TORSDOF 20
ENDMDL
MODEL      165
REMARK 921   NORMALIZED FREE ENERGY PREDICTED BY IDOCK:   -3.54 KCAL/MOL
REMARK 922        TOTAL FREE ENERGY PREDICTED BY IDOCK:  -10.55 KCAL/MOL
REMARK 923 INTER-LIGAND FREE ENERGY PREDICTED BY IDOCK:   -8.24 KCAL/MOL
REMARK 924 INTRA-LIGAND FREE ENERGY PREDICTED BY IDOCK:   -2.30 KCAL/MOL
REMARK 927      BINDING AFFINITY PREDICTED BY RF-SCORE:    0.00 PKD
ROOT
HETATM    1  C   UNL     1     -12.541  14.187  65.273  1.00  0.00    -0.460 C  
HETATM    2  C   UNL     1     -12.498  12.677  65.120  1.00  0.00    -0.531 C  
ENDROOT
BRANCH   2   3
HETATM    3  C   UNL     1     -12.005  12.278  63.732  1.00  0.00    -0.609 C  
BRANCH   3   4
HETATM    4  C   UNL     1     -10.776  11.379  63.822  1.00  0.00    -0.470 C  
BRANCH   4   5
HETATM    5  C   UNL     1     -10.368  11.165  65.277  1.00  0.00    -0.336 C  
BRANCH   5   6
HETATM    6  C   UNL     1      -9.773   9.775  65.475  1.00  0.00    -0.382 C  
BRANCH   6   7
HETATM    7  C   UNL     1     -10.259   9.163  66.784  1.00  0.00    -0.331 C  
BRANCH   7   8
HETATM    8  C   UNL     1      -9.798   7.717  66.904  1.00  0.00    -0.305 C  
BRANCH   8   9
HETATM    9  C   UNL     1     -10.993   6.777  66.980  1.00  0.00    -0.439 C  
BRANCH   9  10
HETATM   10  C   UNL     1     -10.531   5.328  67.050  1.00  0.00    -0.290 C  
BRANCH  10  11
HETATM   11  C   UNL     1      -9.119   5.245  67.612  1.00  0.00    -0.113 C  
BRANCH  11  12
HETATM   12  C   UNL     1      -9.147   4.772  69.058  1.00  0.00    -0.157 C  
BRANCH  12  13
HETATM   13  C   UNL     1      -8.825   5.920  70.001  1.00  0.00    -0.139 C  
BRANCH  13  14
HETATM   14  C   UNL     1      -9.824   5.967  71.150  1.00  0.00    -0.214 C  
BRANCH  14  15
HETATM   15  C   UNL     1     -11.239   6.140  70.619  1.00  0.00    -0.387 C  
BRANCH  15  16
HETATM   16  C   UNL     1     -11.834   7.457  71.099  1.00  0.00    -0.330 C  
BRANCH  16  17
HETATM   17  C   UNL     1     -11.322   8.618  70.254  1.00  0.00    -0.146 C  
BRANCH  17  18
HETATM   18  C   UNL     1     -11.422   9.929  71.025  1.00  0.00    -0.466 C  
BRANCH  18  19
HETATM   19  C   UNL     1     -12.407  10.880  70.353  1.00  0.00    -0.436 C  
BRANCH  19  20
HETATM   20  C   UNL     1     -11.666  11.976  69.594  1.00  0.00    -0.405 C  
BRANCH  20  21
HETATM   21  C   UNL     1     -12.112  13.358  70.058  1.00  0.00    -0.404 C  
BRANCH  21  22
HETATM   22  C   UNL     1     -11.743  14.428  69.039  1.00  0.00    -0.310 C  
HETATM   23  O   UNL     1     -12.464  15.622  69.313  1.00  0.00    -0.583 OA 
HETATM   24  H   UNL     1     -12.234  16.290  68.678  1.00  0.00     0.000 HD 
ENDBRANCH  21  22
ENDBRANCH  20  21
ENDBRANCH  19  20
ENDBRANCH  18  19
ENDBRANCH  17  18
ENDBRANCH  16  17
ENDBRANCH  15  16
ENDBRANCH  14  15
ENDBRANCH  13  14
ENDBRANCH  12  13
ENDBRANCH  11  12
ENDBRANCH  10  11
ENDBRANCH   9  10
ENDBRANCH   8   9
ENDBRANCH   7   8
ENDBRANCH   6   7
ENDBRANCH   5   6
ENDBRANCH   4   5
ENDBRANCH   3   4
ENDBRANCH   2   3
TORSDOF 20
ENDMDL
MODEL      166
REMARK 921   NORMALIZED FREE ENERGY PREDICTED BY IDOCK:   -3.54 KCAL/MOL
REMARK 922        TOTAL FREE ENERGY PREDICTED BY IDOCK:  -10.54 KCAL/MOL
REMARK 923 INTER-LIGAND FREE ENERGY PREDICTED BY IDOCK:   -7.26 KCAL/MOL
REMARK 924 INTRA-LIGAND FREE ENERGY PREDICTED BY IDOCK:   -3.28 KCAL/MOL
REMARK 927      BINDING AFFINITY PREDICTED BY RF-SCORE:    0.00 PKD
ROOT
HETATM    1  C   UNL     1     -11.616  12.067  69.095  1.00  0.00    -0.370 C  
HETATM    2  C   UNL     1     -11.723  12.226  67.588  1.00  0.00    -0.403 C  
ENDROOT
BRANCH   2   3
HETATM    3  C   UNL     1     -12.243  13.611  67.218  1.00  0.00    -0.317 C  
BRANCH   3   4
HETATM    4  C   UNL     1     -11.998  13.915  65.742  1.00  0.00    -0.419 C  
BRANCH   4   5
HETATM    5  C   UNL     1     -12.762  12.937  64.855  1.00  0.00    -0.474 C  
BRANCH   5   6
HETATM    6  C   UNL     1     -12.063  12.762  63.511  1.00  0.00    -0.642 C  
BRANCH   6   7
HETATM    7  C   UNL     1     -10.570  12.524  63.709  1.00  0.00    -0.471 C  
BRANCH   7   8
HETATM    8  C   UNL     1     -10.130  11.256  62.989  1.00  0.00    -0.327 C  
BRANCH   8   9
HETATM    9  C   UNL     1      -9.623  10.222  63.986  1.00  0.00    -0.365 C  
BRANCH   9  10
HETATM   10  C   UNL     1      -9.606  10.800  65.394  1.00  0.00    -0.272 C  
BRANCH  10  11
HETATM   11  C   UNL     1      -9.437   9.692  66.424  1.00  0.00    -0.244 C  
BRANCH  11  12
HETATM   12  C   UNL     1      -8.766  10.230  67.680  1.00  0.00    -0.121 C  
BRANCH  12  13
HETATM   13  C   UNL     1      -7.686  11.237  67.318  1.00  0.00    -0.138 C  
BRANCH  13  14
HETATM   14  C   UNL     1      -7.819  12.494  68.167  1.00  0.00    -0.151 C  
BRANCH  14  15
HETATM   15  C   UNL     1      -8.266  13.671  67.312  1.00  0.00    -0.164 C  
BRANCH  15  16
HETATM   16  C   UNL     1      -7.594  14.957  67.777  1.00  0.00    -0.171 C  
BRANCH  16  17
HETATM   17  C   UNL     1      -7.850  16.086  66.786  1.00  0.00    -0.288 C  
BRANCH  17  18
HETATM   18  C   UNL     1      -9.340  16.392  66.693  1.00  0.00    -0.282 C  
BRANCH  18  19
HETATM   19  C   UNL     1      -9.672  17.697  67.409  1.00  0.00    -0.283 C  
BRANCH  19  20
HETATM   20  C   UNL     1     -10.089  17.431  68.851  1.00  0.00    -0.330 C  
BRANCH  20  21
HETATM   21  C   UNL     1     -11.316  16.529  68.908  1.00  0.00    -0.206 C  
BRANCH  21  22
HETATM   22  C   UNL     1     -11.294  15.644  70.148  1.00  0.00    -0.344 C  
HETATM   23  O   UNL     1     -10.074  14.915  70.197  1.00  0.00    -0.479 OA 
HETATM   24  H   UNL     1     -10.061  14.363  70.970  1.00  0.00     0.000 HD 
ENDBRANCH  21  22
ENDBRANCH  20  21
ENDBRANCH  19  20
ENDBRANCH  18  19
ENDBRANCH  17  18
ENDBRANCH  16  17
ENDBRANCH  15  16
ENDBRANCH  14  15
ENDBRANCH  13  14
ENDBRANCH  12  13
ENDBRANCH  11  12
ENDBRANCH  10  11
ENDBRANCH   9  10
ENDBRANCH   8   9
ENDBRANCH   7   8
ENDBRANCH   6   7
ENDBRANCH   5   6
ENDBRANCH   4   5
ENDBRANCH   3   4
ENDBRANCH   2   3
TORSDOF 20
ENDMDL
MODEL      167
REMARK 921   NORMALIZED FREE ENERGY PREDICTED BY IDOCK:   -3.53 KCAL/MOL
REMARK 922        TOTAL FREE ENERGY PREDICTED BY IDOCK:  -10.54 KCAL/MOL
REMARK 923 INTER-LIGAND FREE ENERGY PREDICTED BY IDOCK:   -8.07 KCAL/MOL
REMARK 924 INTRA-LIGAND FREE ENERGY PREDICTED BY IDOCK:   -2.46 KCAL/MOL
REMARK 927      BINDING AFFINITY PREDICTED BY RF-SCORE:    0.00 PKD
ROOT
HETATM    1  C   UNL     1     -11.888  14.437  64.357  1.00  0.00    -0.433 C  
HETATM    2  C   UNL     1     -12.545  13.782  65.559  1.00  0.00    -0.551 C  
ENDROOT
BRANCH   2   3
HETATM    3  C   UNL     1     -11.941  12.408  65.836  1.00  0.00    -0.434 C  
BRANCH   3   4
HETATM    4  C   UNL     1     -10.812  12.500  66.858  1.00  0.00    -0.280 C  
BRANCH   4   5
HETATM    5  C   UNL     1     -11.353  12.346  68.276  1.00  0.00    -0.332 C  
BRANCH   5   6
HETATM    6  C   UNL     1     -11.520  10.873  68.637  1.00  0.00    -0.380 C  
BRANCH   6   7
HETATM    7  C   UNL     1     -12.130  10.726  70.025  1.00  0.00    -0.423 C  
BRANCH   7   8
HETATM    8  C   UNL     1     -12.319  12.090  70.676  1.00  0.00    -0.394 C  
BRANCH   8   9
HETATM    9  C   UNL     1     -13.216  11.979  71.902  1.00  0.00    -0.469 C  
BRANCH   9  10
HETATM   10  C   UNL     1     -13.855  13.323  72.220  1.00  0.00    -0.637 C  
BRANCH  10  11
HETATM   11  C   UNL     1     -12.912  14.180  73.053  1.00  0.00    -0.432 C  
BRANCH  11  12
HETATM   12  C   UNL     1     -12.898  15.612  72.540  1.00  0.00    -0.526 C  
BRANCH  12  13
HETATM   13  C   UNL     1     -13.074  15.639  71.030  1.00  0.00    -0.487 C  
BRANCH  13  14
HETATM   14  C   UNL     1     -11.729  15.820  70.337  1.00  0.00    -0.390 C  
BRANCH  14  15
HETATM   15  C   UNL     1     -11.883  15.687  68.830  1.00  0.00    -0.336 C  
BRANCH  15  16
HETATM   16  C   UNL     1     -10.669  16.266  68.114  1.00  0.00    -0.322 C  
BRANCH  16  17
HETATM   17  C   UNL     1      -9.454  16.269  69.034  1.00  0.00    -0.258 C  
BRANCH  17  18
HETATM   18  C   UNL     1      -8.167  16.173  68.223  1.00  0.00    -0.162 C  
BRANCH  18  19
HETATM   19  C   UNL     1      -7.078  15.459  69.017  1.00  0.00    -0.144 C  
BRANCH  19  20
HETATM   20  C   UNL     1      -6.134  14.708  68.084  1.00  0.00    -0.146 C  
BRANCH  20  21
HETATM   21  C   UNL     1      -6.072  13.229  68.444  1.00  0.00    -0.086 C  
BRANCH  21  22
HETATM   22  C   UNL     1      -7.293  12.482  67.923  1.00  0.00    -0.115 C  
HETATM   23  O   UNL     1      -8.031  11.947  69.014  1.00  0.00    -0.336 OA 
HETATM   24  H   UNL     1      -8.793  11.481  68.689  1.00  0.00     0.000 HD 
ENDBRANCH  21  22
ENDBRANCH  20  21
ENDBRANCH  19  20
ENDBRANCH  18  19
ENDBRANCH  17  18
ENDBRANCH  16  17
ENDBRANCH  15  16
ENDBRANCH  14  15
ENDBRANCH  13  14
ENDBRANCH  12  13
ENDBRANCH  11  12
ENDBRANCH  10  11
ENDBRANCH   9  10
ENDBRANCH   8   9
ENDBRANCH   7   8
ENDBRANCH   6   7
ENDBRANCH   5   6
ENDBRANCH   4   5
ENDBRANCH   3   4
ENDBRANCH   2   3
TORSDOF 20
ENDMDL
MODEL      168
REMARK 921   NORMALIZED FREE ENERGY PREDICTED BY IDOCK:   -3.53 KCAL/MOL
REMARK 922        TOTAL FREE ENERGY PREDICTED BY IDOCK:  -10.53 KCAL/MOL
REMARK 923 INTER-LIGAND FREE ENERGY PREDICTED BY IDOCK:   -7.85 KCAL/MOL
REMARK 924 INTRA-LIGAND FREE ENERGY PREDICTED BY IDOCK:   -2.68 KCAL/MOL
REMARK 927      BINDING AFFINITY PREDICTED BY RF-SCORE:    0.00 PKD
ROOT
HETATM    1  C   UNL     1     -12.594  14.534  70.532  1.00  0.00    -0.413 C  
HETATM    2  C   UNL     1     -12.333  13.053  70.750  1.00  0.00    -0.394 C  
ENDROOT
BRANCH   2   3
HETATM    3  C   UNL     1     -13.207  12.500  71.872  1.00  0.00    -0.495 C  
BRANCH   3   4
HETATM    4  C   UNL     1     -13.214  10.974  71.862  1.00  0.00    -0.503 C  
BRANCH   4   5
HETATM    5  C   UNL     1     -12.197  10.435  70.861  1.00  0.00    -0.484 C  
BRANCH   5   6
HETATM    6  C   UNL     1     -11.840   8.987  71.177  1.00  0.00    -0.362 C  
BRANCH   6   7
HETATM    7  C   UNL     1     -10.385   8.875  71.618  1.00  0.00    -0.416 C  
BRANCH   7   8
HETATM    8  C   UNL     1      -9.449   9.224  70.469  1.00  0.00    -0.317 C  
BRANCH   8   9
HETATM    9  C   UNL     1      -9.338   8.060  69.493  1.00  0.00    -0.156 C  
BRANCH   9  10
HETATM   10  C   UNL     1      -9.170   8.570  68.069  1.00  0.00    -0.143 C  
BRANCH  10  11
HETATM   11  C   UNL     1     -10.516   8.971  67.482  1.00  0.00    -0.338 C  
BRANCH  11  12
HETATM   12  C   UNL     1     -10.354  10.152  66.535  1.00  0.00    -0.270 C  
BRANCH  12  13
HETATM   13  C   UNL     1     -10.304  11.456  67.315  1.00  0.00    -0.230 C  
BRANCH  13  14
HETATM   14  C   UNL     1     -11.637  12.187  67.224  1.00  0.00    -0.404 C  
BRANCH  14  15
HETATM   15  C   UNL     1     -11.893  12.655  65.799  1.00  0.00    -0.497 C  
BRANCH  15  16
HETATM   16  C   UNL     1     -12.294  14.125  65.782  1.00  0.00    -0.481 C  
BRANCH  16  17
HETATM   17  C   UNL     1     -11.351  14.929  64.895  1.00  0.00    -0.415 C  
BRANCH  17  18
HETATM   18  C   UNL     1     -10.426  15.796  65.741  1.00  0.00    -0.384 C  
BRANCH  18  19
HETATM   19  C   UNL     1     -10.781  15.685  67.220  1.00  0.00    -0.305 C  
BRANCH  19  20
HETATM   20  C   UNL     1      -9.615  15.101  68.012  1.00  0.00    -0.204 C  
BRANCH  20  21
HETATM   21  C   UNL     1      -8.474  16.104  68.125  1.00  0.00    -0.175 C  
BRANCH  21  22
HETATM   22  C   UNL     1      -7.123  15.431  67.923  1.00  0.00    -0.140 C  
HETATM   23  O   UNL     1      -7.221  14.457  66.891  1.00  0.00    -0.325 OA 
HETATM   24  H   UNL     1      -6.378  14.037  66.765  1.00  0.00     0.000 HD 
ENDBRANCH  21  22
ENDBRANCH  20  21
ENDBRANCH  19  20
ENDBRANCH  18  19
ENDBRANCH  17  18
ENDBRANCH  16  17
ENDBRANCH  15  16
ENDBRANCH  14  15
ENDBRANCH  13  14
ENDBRANCH  12  13
ENDBRANCH  11  12
ENDBRANCH  10  11
ENDBRANCH   9  10
ENDBRANCH   8   9
ENDBRANCH   7   8
ENDBRANCH   6   7
ENDBRANCH   5   6
ENDBRANCH   4   5
ENDBRANCH   3   4
ENDBRANCH   2   3
TORSDOF 20
ENDMDL
MODEL      169
REMARK 921   NORMALIZED FREE ENERGY PREDICTED BY IDOCK:   -3.53 KCAL/MOL
REMARK 922        TOTAL FREE ENERGY PREDICTED BY IDOCK:  -10.53 KCAL/MOL
REMARK 923 INTER-LIGAND FREE ENERGY PREDICTED BY IDOCK:   -8.69 KCAL/MOL
REMARK 924 INTRA-LIGAND FREE ENERGY PREDICTED BY IDOCK:   -1.84 KCAL/MOL
REMARK 927      BINDING AFFINITY PREDICTED BY RF-SCORE:    0.00 PKD
ROOT
HETATM    1  C   UNL     1     -11.672  16.291  71.636  1.00  0.00    -0.490 C  
HETATM    2  C   UNL     1     -12.606  15.453  70.779  1.00  0.00    -0.497 C  
ENDROOT
BRANCH   2   3
HETATM    3  C   UNL     1     -13.793  14.946  71.593  1.00  0.00    -0.549 C  
BRANCH   3   4
HETATM    4  C   UNL     1     -13.337  13.999  72.699  1.00  0.00    -0.643 C  
BRANCH   4   5
HETATM    5  C   UNL     1     -13.634  12.550  72.325  1.00  0.00    -0.443 C  
BRANCH   5   6
HETATM    6  C   UNL     1     -12.928  12.168  71.028  1.00  0.00    -0.160 C  
BRANCH   6   7
HETATM    7  C   UNL     1     -12.321  10.774  71.136  1.00  0.00    -0.498 C  
BRANCH   7   8
HETATM    8  C   UNL     1     -11.289  10.552  70.039  1.00  0.00    -0.392 C  
BRANCH   8   9
HETATM    9  C   UNL     1     -11.379  11.651  68.988  1.00  0.00    -0.337 C  
BRANCH   9  10
HETATM   10  C   UNL     1     -10.413  11.377  67.844  1.00  0.00    -0.212 C  
BRANCH  10  11
HETATM   11  C   UNL     1     -11.118  11.523  66.502  1.00  0.00    -0.341 C  
BRANCH  11  12
HETATM   12  C   UNL     1     -10.798  12.873  65.876  1.00  0.00    -0.294 C  
BRANCH  12  13
HETATM   13  C   UNL     1     -12.039  13.751  65.841  1.00  0.00    -0.464 C  
BRANCH  13  14
HETATM   14  C   UNL     1     -12.093  14.652  67.068  1.00  0.00    -0.214 C  
BRANCH  14  15
HETATM   15  C   UNL     1     -10.723  15.248  67.354  1.00  0.00    -0.293 C  
BRANCH  15  16
HETATM   16  C   UNL     1     -10.592  16.623  66.712  1.00  0.00    -0.214 C  
BRANCH  16  17
HETATM   17  C   UNL     1     -10.454  17.703  67.778  1.00  0.00    -0.379 C  
BRANCH  17  18
HETATM   18  C   UNL     1     -10.621  19.088  67.164  1.00  0.00    -0.545 C  
BRANCH  18  19
HETATM   19  C   UNL     1      -9.422  19.973  67.488  1.00  0.00    -0.498 C  
BRANCH  19  20
HETATM   20  C   UNL     1      -8.151  19.411  66.861  1.00  0.00    -0.298 C  
BRANCH  20  21
HETATM   21  C   UNL     1      -6.921  19.811  67.667  1.00  0.00    -0.280 C  
BRANCH  21  22
HETATM   22  C   UNL     1      -6.864  19.068  68.995  1.00  0.00    -0.318 C  
HETATM   23  O   UNL     1      -6.728  19.999  70.061  1.00  0.00    -0.332 OA 
HETATM   24  H   UNL     1      -6.693  19.536  70.890  1.00  0.00     0.000 HD 
ENDBRANCH  21  22
ENDBRANCH  20  21
ENDBRANCH  19  20
ENDBRANCH  18  19
ENDBRANCH  17  18
ENDBRANCH  16  17
ENDBRANCH  15  16
ENDBRANCH  14  15
ENDBRANCH  13  14
ENDBRANCH  12  13
ENDBRANCH  11  12
ENDBRANCH  10  11
ENDBRANCH   9  10
ENDBRANCH   8   9
ENDBRANCH   7   8
ENDBRANCH   6   7
ENDBRANCH   5   6
ENDBRANCH   4   5
ENDBRANCH   3   4
ENDBRANCH   2   3
TORSDOF 20
ENDMDL
MODEL      170
REMARK 921   NORMALIZED FREE ENERGY PREDICTED BY IDOCK:   -3.53 KCAL/MOL
REMARK 922        TOTAL FREE ENERGY PREDICTED BY IDOCK:  -10.53 KCAL/MOL
REMARK 923 INTER-LIGAND FREE ENERGY PREDICTED BY IDOCK:   -8.17 KCAL/MOL
REMARK 924 INTRA-LIGAND FREE ENERGY PREDICTED BY IDOCK:   -2.36 KCAL/MOL
REMARK 927      BINDING AFFINITY PREDICTED BY RF-SCORE:    0.00 PKD
ROOT
HETATM    1  C   UNL     1      -9.358   5.911  66.478  1.00  0.00    -0.166 C  
HETATM    2  C   UNL     1     -10.675   5.901  67.233  1.00  0.00    -0.380 C  
ENDROOT
BRANCH   2   3
HETATM    3  C   UNL     1     -10.624   6.833  68.440  1.00  0.00    -0.270 C  
BRANCH   3   4
HETATM    4  C   UNL     1     -11.369   6.234  69.630  1.00  0.00    -0.492 C  
BRANCH   4   5
HETATM    5  C   UNL     1     -10.441   6.095  70.833  1.00  0.00    -0.282 C  
BRANCH   5   6
HETATM    6  C   UNL     1     -10.966   6.899  72.019  1.00  0.00    -0.266 C  
BRANCH   6   7
HETATM    7  C   UNL     1     -12.458   7.166  71.870  1.00  0.00    -0.341 C  
BRANCH   7   8
HETATM    8  C   UNL     1     -12.780   8.616  72.209  1.00  0.00    -0.450 C  
BRANCH   8   9
HETATM    9  C   UNL     1     -11.789   9.557  71.537  1.00  0.00    -0.478 C  
BRANCH   9  10
HETATM   10  C   UNL     1     -12.475  10.851  71.123  1.00  0.00    -0.511 C  
BRANCH  10  11
HETATM   11  C   UNL     1     -11.684  11.548  70.026  1.00  0.00    -0.414 C  
BRANCH  11  12
HETATM   12  C   UNL     1     -10.841  10.543  69.255  1.00  0.00    -0.284 C  
BRANCH  12  13
HETATM   13  C   UNL     1     -10.197  11.204  68.046  1.00  0.00    -0.201 C  
BRANCH  13  14
HETATM   14  C   UNL     1     -10.695  10.563  66.757  1.00  0.00    -0.252 C  
BRANCH  14  15
HETATM   15  C   UNL     1     -11.105  11.631  65.754  1.00  0.00    -0.313 C  
BRANCH  15  16
HETATM   16  C   UNL     1     -11.856  12.759  66.449  1.00  0.00    -0.472 C  
BRANCH  16  17
HETATM   17  C   UNL     1     -11.339  14.116  65.985  1.00  0.00    -0.330 C  
BRANCH  17  18
HETATM   18  C   UNL     1     -11.159  15.057  67.170  1.00  0.00    -0.332 C  
BRANCH  18  19
HETATM   19  C   UNL     1     -11.995  14.597  68.359  1.00  0.00    -0.289 C  
BRANCH  19  20
HETATM   20  C   UNL     1     -12.003  15.657  69.456  1.00  0.00    -0.363 C  
BRANCH  20  21
HETATM   21  C   UNL     1     -13.059  15.345  70.510  1.00  0.00    -0.318 C  
BRANCH  21  22
HETATM   22  C   UNL     1     -12.537  15.623  71.914  1.00  0.00    -0.438 C  
HETATM   23  O   UNL     1     -11.227  15.091  72.054  1.00  0.00    -0.532 OA 
HETATM   24  H   UNL     1     -10.902  15.265  72.930  1.00  0.00     0.000 HD 
ENDBRANCH  21  22
ENDBRANCH  20  21
ENDBRANCH  19  20
ENDBRANCH  18  19
ENDBRANCH  17  18
ENDBRANCH  16  17
ENDBRANCH  15  16
ENDBRANCH  14  15
ENDBRANCH  13  14
ENDBRANCH  12  13
ENDBRANCH  11  12
ENDBRANCH  10  11
ENDBRANCH   9  10
ENDBRANCH   8   9
ENDBRANCH   7   8
ENDBRANCH   6   7
ENDBRANCH   5   6
ENDBRANCH   4   5
ENDBRANCH   3   4
ENDBRANCH   2   3
TORSDOF 20
ENDMDL
MODEL      171
REMARK 921   NORMALIZED FREE ENERGY PREDICTED BY IDOCK:   -3.52 KCAL/MOL
REMARK 922        TOTAL FREE ENERGY PREDICTED BY IDOCK:  -10.50 KCAL/MOL
REMARK 923 INTER-LIGAND FREE ENERGY PREDICTED BY IDOCK:   -7.58 KCAL/MOL
REMARK 924 INTRA-LIGAND FREE ENERGY PREDICTED BY IDOCK:   -2.92 KCAL/MOL
REMARK 927      BINDING AFFINITY PREDICTED BY RF-SCORE:    0.00 PKD
ROOT
HETATM    1  C   UNL     1      -6.748   7.191  68.046  1.00  0.00    -0.061 C  
HETATM    2  C   UNL     1      -8.134   6.869  67.514  1.00  0.00    -0.116 C  
ENDROOT
BRANCH   2   3
HETATM    3  C   UNL     1      -8.140   6.821  65.989  1.00  0.00    -0.119 C  
BRANCH   3   4
HETATM    4  C   UNL     1      -8.489   8.184  65.397  1.00  0.00    -0.164 C  
BRANCH   4   5
HETATM    5  C   UNL     1      -9.571   8.871  66.225  1.00  0.00    -0.328 C  
BRANCH   5   6
HETATM    6  C   UNL     1     -10.018  10.170  65.563  1.00  0.00    -0.363 C  
BRANCH   6   7
HETATM    7  C   UNL     1      -9.056  10.565  64.449  1.00  0.00    -0.254 C  
BRANCH   7   8
HETATM    8  C   UNL     1      -9.697  11.594  63.527  1.00  0.00    -0.342 C  
BRANCH   8   9
HETATM    9  C   UNL     1     -11.194  11.343  63.401  1.00  0.00    -0.252 C  
BRANCH   9  10
HETATM   10  C   UNL     1     -11.971  12.636  63.600  1.00  0.00    -0.615 C  
BRANCH  10  11
HETATM   11  C   UNL     1     -12.700  12.620  64.937  1.00  0.00    -0.450 C  
BRANCH  11  12
HETATM   12  C   UNL     1     -12.780  14.025  65.517  1.00  0.00    -0.517 C  
BRANCH  12  13
HETATM   13  C   UNL     1     -11.414  14.693  65.484  1.00  0.00    -0.341 C  
BRANCH  13  14
HETATM   14  C   UNL     1     -10.770  14.664  66.864  1.00  0.00    -0.294 C  
BRANCH  14  15
HETATM   15  C   UNL     1      -9.638  13.648  66.903  1.00  0.00    -0.262 C  
BRANCH  15  16
HETATM   16  C   UNL     1      -9.737  12.785  68.154  1.00  0.00    -0.223 C  
BRANCH  16  17
HETATM   17  C   UNL     1     -11.179  12.705  68.640  1.00  0.00    -0.323 C  
BRANCH  17  18
HETATM   18  C   UNL     1     -11.712  11.283  68.509  1.00  0.00    -0.378 C  
BRANCH  18  19
HETATM   19  C   UNL     1     -11.409  10.472  69.765  1.00  0.00    -0.367 C  
BRANCH  19  20
HETATM   20  C   UNL     1     -12.507  10.659  70.806  1.00  0.00    -0.480 C  
BRANCH  20  21
HETATM   21  C   UNL     1     -12.450   9.564  71.864  1.00  0.00    -0.465 C  
BRANCH  21  22
HETATM   22  C   UNL     1     -12.405   8.181  71.226  1.00  0.00    -0.265 C  
HETATM   23  O   UNL     1     -13.728   7.713  71.000  1.00  0.00    -0.606 OA 
HETATM   24  H   UNL     1     -13.701   6.851  70.602  1.00  0.00     0.000 HD 
ENDBRANCH  21  22
ENDBRANCH  20  21
ENDBRANCH  19  20
ENDBRANCH  18  19
ENDBRANCH  17  18
ENDBRANCH  16  17
ENDBRANCH  15  16
ENDBRANCH  14  15
ENDBRANCH  13  14
ENDBRANCH  12  13
ENDBRANCH  11  12
ENDBRANCH  10  11
ENDBRANCH   9  10
ENDBRANCH   8   9
ENDBRANCH   7   8
ENDBRANCH   6   7
ENDBRANCH   5   6
ENDBRANCH   4   5
ENDBRANCH   3   4
ENDBRANCH   2   3
TORSDOF 20
ENDMDL
MODEL      172
REMARK 921   NORMALIZED FREE ENERGY PREDICTED BY IDOCK:   -3.52 KCAL/MOL
REMARK 922        TOTAL FREE ENERGY PREDICTED BY IDOCK:  -10.50 KCAL/MOL
REMARK 923 INTER-LIGAND FREE ENERGY PREDICTED BY IDOCK:   -7.87 KCAL/MOL
REMARK 924 INTRA-LIGAND FREE ENERGY PREDICTED BY IDOCK:   -2.63 KCAL/MOL
REMARK 927      BINDING AFFINITY PREDICTED BY RF-SCORE:    0.00 PKD
ROOT
HETATM    1  C   UNL     1     -10.134   7.695  68.194  1.00  0.00    -0.220 C  
HETATM    2  C   UNL     1     -10.448   8.910  69.051  1.00  0.00    -0.231 C  
ENDROOT
BRANCH   2   3
HETATM    3  C   UNL     1     -11.191   9.973  68.247  1.00  0.00    -0.195 C  
BRANCH   3   4
HETATM    4  C   UNL     1     -10.675  10.038  66.812  1.00  0.00    -0.172 C  
BRANCH   4   5
HETATM    5  C   UNL     1      -9.481  10.984  66.711  1.00  0.00    -0.203 C  
BRANCH   5   6
HETATM    6  C   UNL     1      -9.270  11.437  65.270  1.00  0.00    -0.146 C  
BRANCH   6   7
HETATM    7  C   UNL     1     -10.420  10.974  64.385  1.00  0.00    -0.422 C  
BRANCH   7   8
HETATM    8  C   UNL     1     -10.778  12.047  63.365  1.00  0.00    -0.475 C  
BRANCH   8   9
HETATM    9  C   UNL     1     -12.127  12.672  63.695  1.00  0.00    -0.632 C  
BRANCH   9  10
HETATM   10  C   UNL     1     -11.944  13.916  64.554  1.00  0.00    -0.464 C  
BRANCH  10  11
HETATM   11  C   UNL     1     -12.599  13.726  65.915  1.00  0.00    -0.494 C  
BRANCH  11  12
HETATM   12  C   UNL     1     -11.794  14.431  66.997  1.00  0.00    -0.437 C  
BRANCH  12  13
HETATM   13  C   UNL     1     -10.458  14.902  66.445  1.00  0.00    -0.301 C  
BRANCH  13  14
HETATM   14  C   UNL     1     -10.148  16.314  66.925  1.00  0.00    -0.278 C  
BRANCH  14  15
HETATM   15  C   UNL     1     -10.060  17.271  65.746  1.00  0.00    -0.159 C  
BRANCH  15  16
HETATM   16  C   UNL     1     -10.591  18.646  66.130  1.00  0.00    -0.409 C  
BRANCH  16  17
HETATM   17  C   UNL     1     -10.867  18.717  67.628  1.00  0.00    -0.347 C  
BRANCH  17  18
HETATM   18  C   UNL     1     -10.041  19.822  68.275  1.00  0.00    -0.575 C  
BRANCH  18  19
HETATM   19  C   UNL     1      -8.698  19.284  68.757  1.00  0.00    -0.383 C  
BRANCH  19  20
HETATM   20  C   UNL     1      -7.547  20.018  68.078  1.00  0.00    -0.313 C  
BRANCH  20  21
HETATM   21  C   UNL     1      -6.905  19.151  67.002  1.00  0.00    -0.206 C  
BRANCH  21  22
HETATM   22  C   UNL     1      -7.062  19.776  65.622  1.00  0.00    -0.309 C  
HETATM   23  O   UNL     1      -6.492  18.922  64.639  1.00  0.00    -0.500 OA 
HETATM   24  H   UNL     1      -6.590  19.313  63.778  1.00  0.00     0.000 HD 
ENDBRANCH  21  22
ENDBRANCH  20  21
ENDBRANCH  19  20
ENDBRANCH  18  19
ENDBRANCH  17  18
ENDBRANCH  16  17
ENDBRANCH  15  16
ENDBRANCH  14  15
ENDBRANCH  13  14
ENDBRANCH  12  13
ENDBRANCH  11  12
ENDBRANCH  10  11
ENDBRANCH   9  10
ENDBRANCH   8   9
ENDBRANCH   7   8
ENDBRANCH   6   7
ENDBRANCH   5   6
ENDBRANCH   4   5
ENDBRANCH   3   4
ENDBRANCH   2   3
TORSDOF 20
ENDMDL
MODEL      173
REMARK 921   NORMALIZED FREE ENERGY PREDICTED BY IDOCK:   -3.52 KCAL/MOL
REMARK 922        TOTAL FREE ENERGY PREDICTED BY IDOCK:  -10.50 KCAL/MOL
REMARK 923 INTER-LIGAND FREE ENERGY PREDICTED BY IDOCK:   -7.67 KCAL/MOL
REMARK 924 INTRA-LIGAND FREE ENERGY PREDICTED BY IDOCK:   -2.83 KCAL/MOL
REMARK 927      BINDING AFFINITY PREDICTED BY RF-SCORE:    0.00 PKD
ROOT
HETATM    1  C   UNL     1     -10.065  19.736  68.506  1.00  0.00    -0.555 C  
HETATM    2  C   UNL     1      -9.693  20.108  67.081  1.00  0.00    -0.576 C  
ENDROOT
BRANCH   2   3
HETATM    3  C   UNL     1     -10.341  19.160  66.078  1.00  0.00    -0.538 C  
BRANCH   3   4
HETATM    4  C   UNL     1     -10.453  17.748  66.648  1.00  0.00    -0.300 C  
BRANCH   4   5
HETATM    5  C   UNL     1      -9.410  16.828  66.020  1.00  0.00    -0.245 C  
BRANCH   5   6
HETATM    6  C   UNL     1     -10.059  15.551  65.496  1.00  0.00    -0.406 C  
BRANCH   6   7
HETATM    7  C   UNL     1     -11.218  15.881  64.564  1.00  0.00    -0.324 C  
BRANCH   7   8
HETATM    8  C   UNL     1     -12.300  14.813  64.656  1.00  0.00    -0.346 C  
BRANCH   8   9
HETATM    9  C   UNL     1     -11.977  13.641  63.737  1.00  0.00    -0.425 C  
BRANCH   9  10
HETATM   10  C   UNL     1     -12.392  12.326  64.382  1.00  0.00    -0.493 C  
BRANCH  10  11
HETATM   11  C   UNL     1     -11.826  12.221  65.791  1.00  0.00    -0.417 C  
BRANCH  11  12
HETATM   12  C   UNL     1     -10.356  11.828  65.748  1.00  0.00    -0.293 C  
BRANCH  12  13
HETATM   13  C   UNL     1     -10.128  10.530  66.507  1.00  0.00    -0.280 C  
BRANCH  13  14
HETATM   14  C   UNL     1      -8.992  10.688  67.508  1.00  0.00    -0.136 C  
BRANCH  14  15
HETATM   15  C   UNL     1      -8.110  11.870  67.134  1.00  0.00    -0.172 C  
BRANCH  15  16
HETATM   16  C   UNL     1      -7.634  12.600  68.383  1.00  0.00    -0.132 C  
BRANCH  16  17
HETATM   17  C   UNL     1      -8.018  14.074  68.323  1.00  0.00    -0.146 C  
BRANCH  17  18
HETATM   18  C   UNL     1      -9.455  14.274  68.788  1.00  0.00    -0.131 C  
BRANCH  18  19
HETATM   19  C   UNL     1      -9.592  15.565  69.589  1.00  0.00    -0.264 C  
BRANCH  19  20
HETATM   20  C   UNL     1     -11.059  15.953  69.741  1.00  0.00    -0.324 C  
BRANCH  20  21
HETATM   21  C   UNL     1     -11.943  14.717  69.847  1.00  0.00    -0.381 C  
BRANCH  21  22
HETATM   22  C   UNL     1     -12.366  14.462  71.288  1.00  0.00    -0.359 C  
HETATM   23  O   UNL     1     -13.328  15.430  71.686  1.00  0.00    -0.422 OA 
HETATM   24  H   UNL     1     -13.592  15.271  72.585  1.00  0.00     0.000 HD 
ENDBRANCH  21  22
ENDBRANCH  20  21
ENDBRANCH  19  20
ENDBRANCH  18  19
ENDBRANCH  17  18
ENDBRANCH  16  17
ENDBRANCH  15  16
ENDBRANCH  14  15
ENDBRANCH  13  14
ENDBRANCH  12  13
ENDBRANCH  11  12
ENDBRANCH  10  11
ENDBRANCH   9  10
ENDBRANCH   8   9
ENDBRANCH   7   8
ENDBRANCH   6   7
ENDBRANCH   5   6
ENDBRANCH   4   5
ENDBRANCH   3   4
ENDBRANCH   2   3
TORSDOF 20
ENDMDL
MODEL      174
REMARK 921   NORMALIZED FREE ENERGY PREDICTED BY IDOCK:   -3.51 KCAL/MOL
REMARK 922        TOTAL FREE ENERGY PREDICTED BY IDOCK:  -10.49 KCAL/MOL
REMARK 923 INTER-LIGAND FREE ENERGY PREDICTED BY IDOCK:   -8.05 KCAL/MOL
REMARK 924 INTRA-LIGAND FREE ENERGY PREDICTED BY IDOCK:   -2.45 KCAL/MOL
REMARK 927      BINDING AFFINITY PREDICTED BY RF-SCORE:    0.00 PKD
ROOT
HETATM    1  C   UNL     1     -10.213   6.210  68.729  1.00  0.00    -0.226 C  
HETATM    2  C   UNL     1     -10.957   5.694  69.948  1.00  0.00    -0.309 C  
ENDROOT
BRANCH   2   3
HETATM    3  C   UNL     1     -11.261   6.825  70.926  1.00  0.00    -0.338 C  
BRANCH   3   4
HETATM    4  C   UNL     1      -9.981   7.533  71.363  1.00  0.00    -0.200 C  
BRANCH   4   5
HETATM    5  C   UNL     1     -10.230   9.025  71.561  1.00  0.00    -0.414 C  
BRANCH   5   6
HETATM    6  C   UNL     1     -11.724   9.327  71.587  1.00  0.00    -0.462 C  
BRANCH   6   7
HETATM    7  C   UNL     1     -12.059  10.470  70.637  1.00  0.00    -0.452 C  
BRANCH   7   8
HETATM    8  C   UNL     1     -10.913  10.711  69.663  1.00  0.00    -0.331 C  
BRANCH   8   9
HETATM    9  C   UNL     1     -11.367  10.472  68.230  1.00  0.00    -0.332 C  
BRANCH   9  10
HETATM   10  C   UNL     1     -10.214   9.955  67.382  1.00  0.00    -0.275 C  
BRANCH  10  11
HETATM   11  C   UNL     1      -9.665  11.062  66.493  1.00  0.00    -0.230 C  
BRANCH  11  12
HETATM   12  C   UNL     1      -9.562  10.587  65.051  1.00  0.00    -0.331 C  
BRANCH  12  13
HETATM   13  C   UNL     1     -10.655  11.217  64.203  1.00  0.00    -0.436 C  
BRANCH  13  14
HETATM   14  C   UNL     1     -10.949  12.635  64.674  1.00  0.00    -0.346 C  
BRANCH  14  15
HETATM   15  C   UNL     1     -12.430  12.801  64.977  1.00  0.00    -0.572 C  
BRANCH  15  16
HETATM   16  C   UNL     1     -12.698  14.157  65.617  1.00  0.00    -0.469 C  
BRANCH  16  17
HETATM   17  C   UNL     1     -11.564  14.539  66.561  1.00  0.00    -0.379 C  
BRANCH  17  18
HETATM   18  C   UNL     1     -11.835  14.016  67.967  1.00  0.00    -0.403 C  
BRANCH  18  19
HETATM   19  C   UNL     1     -11.330  14.998  69.018  1.00  0.00    -0.306 C  
BRANCH  19  20
HETATM   20  C   UNL     1     -10.353  15.993  68.402  1.00  0.00    -0.251 C  
BRANCH  20  21
HETATM   21  C   UNL     1     -10.399  17.329  69.134  1.00  0.00    -0.290 C  
BRANCH  21  22
HETATM   22  C   UNL     1      -9.951  18.471  68.231  1.00  0.00    -0.376 C  
HETATM   23  O   UNL     1      -8.562  18.711  68.412  1.00  0.00    -0.319 OA 
HETATM   24  H   UNL     1      -8.283  19.423  67.849  1.00  0.00     0.000 HD 
ENDBRANCH  21  22
ENDBRANCH  20  21
ENDBRANCH  19  20
ENDBRANCH  18  19
ENDBRANCH  17  18
ENDBRANCH  16  17
ENDBRANCH  15  16
ENDBRANCH  14  15
ENDBRANCH  13  14
ENDBRANCH  12  13
ENDBRANCH  11  12
ENDBRANCH  10  11
ENDBRANCH   9  10
ENDBRANCH   8   9
ENDBRANCH   7   8
ENDBRANCH   6   7
ENDBRANCH   5   6
ENDBRANCH   4   5
ENDBRANCH   3   4
ENDBRANCH   2   3
TORSDOF 20
ENDMDL
MODEL      175
REMARK 921   NORMALIZED FREE ENERGY PREDICTED BY IDOCK:   -3.51 KCAL/MOL
REMARK 922        TOTAL FREE ENERGY PREDICTED BY IDOCK:  -10.49 KCAL/MOL
REMARK 923 INTER-LIGAND FREE ENERGY PREDICTED BY IDOCK:   -8.15 KCAL/MOL
REMARK 924 INTRA-LIGAND FREE ENERGY PREDICTED BY IDOCK:   -2.34 KCAL/MOL
REMARK 927      BINDING AFFINITY PREDICTED BY RF-SCORE:    0.00 PKD
ROOT
HETATM    1  C   UNL     1      -9.214  20.644  67.233  1.00  0.00    -0.444 C  
HETATM    2  C   UNL     1      -9.769  19.362  66.637  1.00  0.00    -0.441 C  
ENDROOT
BRANCH   2   3
HETATM    3  C   UNL     1     -10.874  18.782  67.515  1.00  0.00    -0.396 C  
BRANCH   3   4
HETATM    4  C   UNL     1     -10.692  17.279  67.708  1.00  0.00    -0.333 C  
BRANCH   4   5
HETATM    5  C   UNL     1      -9.257  16.865  67.397  1.00  0.00    -0.224 C  
BRANCH   5   6
HETATM    6  C   UNL     1      -9.229  15.692  66.423  1.00  0.00    -0.346 C  
BRANCH   6   7
HETATM    7  C   UNL     1     -10.354  15.813  65.403  1.00  0.00    -0.417 C  
BRANCH   7   8
HETATM    8  C   UNL     1     -10.951  14.446  65.097  1.00  0.00    -0.380 C  
BRANCH   8   9
HETATM    9  C   UNL     1     -11.848  13.984  66.238  1.00  0.00    -0.428 C  
BRANCH   9  10
HETATM   10  C   UNL     1     -11.652  12.499  66.505  1.00  0.00    -0.447 C  
BRANCH  10  11
HETATM   11  C   UNL     1     -10.223  12.219  66.949  1.00  0.00    -0.229 C  
BRANCH  11  12
HETATM   12  C   UNL     1     -10.210  11.262  68.132  1.00  0.00    -0.196 C  
BRANCH  12  13
HETATM   13  C   UNL     1     -10.764   9.906  67.726  1.00  0.00    -0.332 C  
BRANCH  13  14
HETATM   14  C   UNL     1     -10.417   8.851  68.769  1.00  0.00    -0.223 C  
BRANCH  14  15
HETATM   15  C   UNL     1      -9.500   9.435  69.834  1.00  0.00    -0.235 C  
BRANCH  15  16
HETATM   16  C   UNL     1      -9.923   8.966  71.220  1.00  0.00    -0.358 C  
BRANCH  16  17
HETATM   17  C   UNL     1     -11.365   8.471  71.204  1.00  0.00    -0.319 C  
BRANCH  17  18
HETATM   18  C   UNL     1     -12.265   9.413  71.995  1.00  0.00    -0.396 C  
BRANCH  18  19
HETATM   19  C   UNL     1     -13.112  10.267  71.058  1.00  0.00    -0.458 C  
BRANCH  19  20
HETATM   20  C   UNL     1     -12.480  11.641  70.862  1.00  0.00    -0.440 C  
BRANCH  20  21
HETATM   21  C   UNL     1     -13.006  12.636  71.889  1.00  0.00    -0.402 C  
BRANCH  21  22
HETATM   22  C   UNL     1     -13.252  14.002  71.261  1.00  0.00    -0.303 C  
HETATM   23  O   UNL     1     -14.015  14.809  72.148  1.00  0.00    -0.405 OA 
HETATM   24  H   UNL     1     -14.169  15.660  71.756  1.00  0.00     0.000 HD 
ENDBRANCH  21  22
ENDBRANCH  20  21
ENDBRANCH  19  20
ENDBRANCH  18  19
ENDBRANCH  17  18
ENDBRANCH  16  17
ENDBRANCH  15  16
ENDBRANCH  14  15
ENDBRANCH  13  14
ENDBRANCH  12  13
ENDBRANCH  11  12
ENDBRANCH  10  11
ENDBRANCH   9  10
ENDBRANCH   8   9
ENDBRANCH   7   8
ENDBRANCH   6   7
ENDBRANCH   5   6
ENDBRANCH   4   5
ENDBRANCH   3   4
ENDBRANCH   2   3
TORSDOF 20
ENDMDL
MODEL      176
REMARK 921   NORMALIZED FREE ENERGY PREDICTED BY IDOCK:   -3.51 KCAL/MOL
REMARK 922        TOTAL FREE ENERGY PREDICTED BY IDOCK:  -10.48 KCAL/MOL
REMARK 923 INTER-LIGAND FREE ENERGY PREDICTED BY IDOCK:   -8.67 KCAL/MOL
REMARK 924 INTRA-LIGAND FREE ENERGY PREDICTED BY IDOCK:   -1.81 KCAL/MOL
REMARK 927      BINDING AFFINITY PREDICTED BY RF-SCORE:    0.00 PKD
ROOT
HETATM    1  C   UNL     1     -10.395   7.597  67.076  1.00  0.00    -0.400 C  
HETATM    2  C   UNL     1     -11.119   6.350  67.554  1.00  0.00    -0.401 C  
ENDROOT
BRANCH   2   3
HETATM    3  C   UNL     1     -10.644   5.114  66.796  1.00  0.00    -0.266 C  
BRANCH   3   4
HETATM    4  C   UNL     1      -9.287   4.642  67.310  1.00  0.00    -0.159 C  
BRANCH   4   5
HETATM    5  C   UNL     1      -9.453   3.769  68.550  1.00  0.00    -0.211 C  
BRANCH   5   6
HETATM    6  C   UNL     1      -8.943   4.491  69.794  1.00  0.00    -0.149 C  
BRANCH   6   7
HETATM    7  C   UNL     1     -10.063   4.660  70.814  1.00  0.00    -0.264 C  
BRANCH   7   8
HETATM    8  C   UNL     1     -10.252   6.131  71.163  1.00  0.00    -0.245 C  
BRANCH   8   9
HETATM    9  C   UNL     1     -11.636   6.368  71.753  1.00  0.00    -0.367 C  
BRANCH   9  10
HETATM   10  C   UNL     1     -12.359   7.471  70.995  1.00  0.00    -0.265 C  
BRANCH  10  11
HETATM   11  C   UNL     1     -13.565   7.960  71.785  1.00  0.00    -0.396 C  
BRANCH  11  12
HETATM   12  C   UNL     1     -13.408   9.431  72.142  1.00  0.00    -0.545 C  
BRANCH  12  13
HETATM   13  C   UNL     1     -12.312  10.069  71.303  1.00  0.00    -0.496 C  
BRANCH  13  14
HETATM   14  C   UNL     1     -12.546  11.568  71.165  1.00  0.00    -0.463 C  
BRANCH  14  15
HETATM   15  C   UNL     1     -13.428  12.076  72.296  1.00  0.00    -0.239 C  
BRANCH  15  16
HETATM   16  C   UNL     1     -13.773  13.545  72.087  1.00  0.00    -0.654 C  
BRANCH  16  17
HETATM   17  C   UNL     1     -12.932  14.430  73.000  1.00  0.00    -0.571 C  
BRANCH  17  18
HETATM   18  C   UNL     1     -12.303  15.573  72.210  1.00  0.00    -0.482 C  
BRANCH  18  19
HETATM   19  C   UNL     1     -12.655  15.466  70.730  1.00  0.00    -0.497 C  
BRANCH  19  20
HETATM   20  C   UNL     1     -11.400  15.244  69.892  1.00  0.00    -0.308 C  
BRANCH  20  21
HETATM   21  C   UNL     1     -11.604  15.730  68.463  1.00  0.00    -0.367 C  
BRANCH  21  22
HETATM   22  C   UNL     1     -11.328  14.621  67.457  1.00  0.00    -0.348 C  
HETATM   23  O   UNL     1     -12.531  14.267  66.788  1.00  0.00    -0.575 OA 
HETATM   24  H   UNL     1     -12.359  13.575  66.160  1.00  0.00     0.000 HD 
ENDBRANCH  21  22
ENDBRANCH  20  21
ENDBRANCH  19  20
ENDBRANCH  18  19
ENDBRANCH  17  18
ENDBRANCH  16  17
ENDBRANCH  15  16
ENDBRANCH  14  15
ENDBRANCH  13  14
ENDBRANCH  12  13
ENDBRANCH  11  12
ENDBRANCH  10  11
ENDBRANCH   9  10
ENDBRANCH   8   9
ENDBRANCH   7   8
ENDBRANCH   6   7
ENDBRANCH   5   6
ENDBRANCH   4   5
ENDBRANCH   3   4
ENDBRANCH   2   3
TORSDOF 20
ENDMDL
MODEL      177
REMARK 921   NORMALIZED FREE ENERGY PREDICTED BY IDOCK:   -3.49 KCAL/MOL
REMARK 922        TOTAL FREE ENERGY PREDICTED BY IDOCK:  -10.44 KCAL/MOL
REMARK 923 INTER-LIGAND FREE ENERGY PREDICTED BY IDOCK:   -8.23 KCAL/MOL
REMARK 924 INTRA-LIGAND FREE ENERGY PREDICTED BY IDOCK:   -2.21 KCAL/MOL
REMARK 927      BINDING AFFINITY PREDICTED BY RF-SCORE:    0.00 PKD
ROOT
HETATM    1  C   UNL     1     -12.325  12.316  64.126  1.00  0.00    -0.546 C  
HETATM    2  C   UNL     1     -11.199  12.454  65.136  1.00  0.00    -0.356 C  
ENDROOT
BRANCH   2   3
HETATM    3  C   UNL     1     -11.729  12.374  66.564  1.00  0.00    -0.443 C  
BRANCH   3   4
HETATM    4  C   UNL     1     -10.883  11.428  67.412  1.00  0.00    -0.301 C  
BRANCH   4   5
HETATM    5  C   UNL     1     -11.733  10.764  68.491  1.00  0.00    -0.259 C  
BRANCH   5   6
HETATM    6  C   UNL     1     -11.930  11.700  69.679  1.00  0.00    -0.390 C  
BRANCH   6   7
HETATM    7  C   UNL     1     -12.287  10.910  70.933  1.00  0.00    -0.501 C  
BRANCH   7   8
HETATM    8  C   UNL     1     -13.218  11.717  71.828  1.00  0.00    -0.434 C  
BRANCH   8   9
HETATM    9  C   UNL     1     -13.253  13.175  71.389  1.00  0.00    -0.290 C  
BRANCH   9  10
HETATM   10  C   UNL     1     -13.172  14.099  72.596  1.00  0.00    -0.612 C  
BRANCH  10  11
HETATM   11  C   UNL     1     -12.399  15.363  72.250  1.00  0.00    -0.465 C  
BRANCH  11  12
HETATM   12  C   UNL     1     -12.400  15.595  70.746  1.00  0.00    -0.466 C  
BRANCH  12  13
HETATM   13  C   UNL     1     -10.979  15.755  70.230  1.00  0.00    -0.368 C  
BRANCH  13  14
HETATM   14  C   UNL     1     -10.725  14.816  69.058  1.00  0.00    -0.251 C  
BRANCH  14  15
HETATM   15  C   UNL     1      -9.832  15.484  68.023  1.00  0.00    -0.212 C  
BRANCH  15  16
HETATM   16  C   UNL     1      -8.814  14.492  67.475  1.00  0.00    -0.193 C  
BRANCH  16  17
HETATM   17  C   UNL     1      -7.408  15.078  67.530  1.00  0.00    -0.228 C  
BRANCH  17  18
HETATM   18  C   UNL     1      -7.316  16.154  68.605  1.00  0.00    -0.175 C  
BRANCH  18  19
HETATM   19  C   UNL     1      -6.792  17.461  68.020  1.00  0.00    -0.182 C  
BRANCH  19  20
HETATM   20  C   UNL     1      -7.112  18.632  68.943  1.00  0.00    -0.317 C  
BRANCH  20  21
HETATM   21  C   UNL     1      -8.191  19.524  68.340  1.00  0.00    -0.379 C  
BRANCH  21  22
HETATM   22  C   UNL     1      -9.585  19.023  68.694  1.00  0.00    -0.403 C  
HETATM   23  O   UNL     1     -10.533  20.066  68.508  1.00  0.00    -0.457 OA 
HETATM   24  H   UNL     1     -11.402  19.753  68.729  1.00  0.00     0.000 HD 
ENDBRANCH  21  22
ENDBRANCH  20  21
ENDBRANCH  19  20
ENDBRANCH  18  19
ENDBRANCH  17  18
ENDBRANCH  16  17
ENDBRANCH  15  16
ENDBRANCH  14  15
ENDBRANCH  13  14
ENDBRANCH  12  13
ENDBRANCH  11  12
ENDBRANCH  10  11
ENDBRANCH   9  10
ENDBRANCH   8   9
ENDBRANCH   7   8
ENDBRANCH   6   7
ENDBRANCH   5   6
ENDBRANCH   4   5
ENDBRANCH   3   4
ENDBRANCH   2   3
TORSDOF 20
ENDMDL
MODEL      178
REMARK 921   NORMALIZED FREE ENERGY PREDICTED BY IDOCK:   -3.49 KCAL/MOL
REMARK 922        TOTAL FREE ENERGY PREDICTED BY IDOCK:  -10.44 KCAL/MOL
REMARK 923 INTER-LIGAND FREE ENERGY PREDICTED BY IDOCK:   -7.44 KCAL/MOL
REMARK 924 INTRA-LIGAND FREE ENERGY PREDICTED BY IDOCK:   -3.01 KCAL/MOL
REMARK 927      BINDING AFFINITY PREDICTED BY RF-SCORE:    0.00 PKD
ROOT
HETATM    1  C   UNL     1     -10.676   8.955  69.376  1.00  0.00    -0.192 C  
HETATM    2  C   UNL     1     -10.856   8.473  70.805  1.00  0.00    -0.268 C  
ENDROOT
BRANCH   2   3
HETATM    3  C   UNL     1     -11.627   9.494  71.637  1.00  0.00    -0.451 C  
BRANCH   3   4
HETATM    4  C   UNL     1     -12.195  10.604  70.757  1.00  0.00    -0.474 C  
BRANCH   4   5
HETATM    5  C   UNL     1     -12.621  11.800  71.603  1.00  0.00    -0.249 C  
BRANCH   5   6
HETATM    6  C   UNL     1     -12.337  13.109  70.875  1.00  0.00    -0.393 C  
BRANCH   6   7
HETATM    7  C   UNL     1     -13.279  14.207  71.354  1.00  0.00    -0.418 C  
BRANCH   7   8
HETATM    8  C   UNL     1     -12.866  15.556  70.781  1.00  0.00    -0.513 C  
BRANCH   8   9
HETATM    9  C   UNL     1     -11.364  15.764  70.927  1.00  0.00    -0.426 C  
BRANCH   9  10
HETATM   10  C   UNL     1     -10.778  16.344  69.648  1.00  0.00    -0.337 C  
BRANCH  10  11
HETATM   11  C   UNL     1     -11.681  16.039  68.461  1.00  0.00    -0.244 C  
BRANCH  11  12
HETATM   12  C   UNL     1     -11.243  14.753  67.775  1.00  0.00    -0.323 C  
BRANCH  12  13
HETATM   13  C   UNL     1     -11.988  14.570  66.462  1.00  0.00    -0.358 C  
BRANCH  13  14
HETATM   14  C   UNL     1     -12.150  13.090  66.139  1.00  0.00    -0.473 C  
BRANCH  14  15
HETATM   15  C   UNL     1     -11.541  12.234  67.240  1.00  0.00    -0.427 C  
BRANCH  15  16
HETATM   16  C   UNL     1     -10.496  11.287  66.666  1.00  0.00    -0.292 C  
BRANCH  16  17
HETATM   17  C   UNL     1      -9.097  11.876  66.812  1.00  0.00    -0.197 C  
BRANCH  17  18
HETATM   18  C   UNL     1      -8.810  12.220  68.269  1.00  0.00    -0.178 C  
BRANCH  18  19
HETATM   19  C   UNL     1      -8.031  13.527  68.374  1.00  0.00    -0.142 C  
BRANCH  19  20
HETATM   20  C   UNL     1      -7.925  14.203  67.011  1.00  0.00     0.008 C  
BRANCH  20  21
HETATM   21  C   UNL     1      -7.773  15.712  67.159  1.00  0.00    -0.258 C  
BRANCH  21  22
HETATM   22  C   UNL     1      -8.559  16.455  66.087  1.00  0.00    -0.308 C  
HETATM   23  O   UNL     1      -8.013  17.754  65.903  1.00  0.00    -0.523 OA 
HETATM   24  H   UNL     1      -8.503  18.218  65.235  1.00  0.00     0.000 HD 
ENDBRANCH  21  22
ENDBRANCH  20  21
ENDBRANCH  19  20
ENDBRANCH  18  19
ENDBRANCH  17  18
ENDBRANCH  16  17
ENDBRANCH  15  16
ENDBRANCH  14  15
ENDBRANCH  13  14
ENDBRANCH  12  13
ENDBRANCH  11  12
ENDBRANCH  10  11
ENDBRANCH   9  10
ENDBRANCH   8   9
ENDBRANCH   7   8
ENDBRANCH   6   7
ENDBRANCH   5   6
ENDBRANCH   4   5
ENDBRANCH   3   4
ENDBRANCH   2   3
TORSDOF 20
ENDMDL
MODEL      179
REMARK 921   NORMALIZED FREE ENERGY PREDICTED BY IDOCK:   -3.49 KCAL/MOL
REMARK 922        TOTAL FREE ENERGY PREDICTED BY IDOCK:  -10.44 KCAL/MOL
REMARK 923 INTER-LIGAND FREE ENERGY PREDICTED BY IDOCK:   -6.64 KCAL/MOL
REMARK 924 INTRA-LIGAND FREE ENERGY PREDICTED BY IDOCK:   -3.80 KCAL/MOL
REMARK 927      BINDING AFFINITY PREDICTED BY RF-SCORE:    0.00 PKD
ROOT
HETATM    1  C   UNL     1      -9.512   7.472  66.972  1.00  0.00    -0.206 C  
HETATM    2  C   UNL     1     -10.774   7.030  67.691  1.00  0.00    -0.331 C  
ENDROOT
BRANCH   2   3
HETATM    3  C   UNL     1     -10.537   5.744  68.477  1.00  0.00    -0.299 C  
BRANCH   3   4
HETATM    4  C   UNL     1     -10.724   5.971  69.974  1.00  0.00    -0.380 C  
BRANCH   4   5
HETATM    5  C   UNL     1     -11.889   6.921  70.235  1.00  0.00    -0.311 C  
BRANCH   5   6
HETATM    6  C   UNL     1     -12.326   6.856  71.695  1.00  0.00    -0.413 C  
BRANCH   6   7
HETATM    7  C   UNL     1     -12.497   8.257  72.268  1.00  0.00    -0.384 C  
BRANCH   7   8
HETATM    8  C   UNL     1     -13.392   9.099  71.369  1.00  0.00    -0.362 C  
BRANCH   8   9
HETATM    9  C   UNL     1     -13.293  10.573  71.741  1.00  0.00    -0.446 C  
BRANCH   9  10
HETATM   10  C   UNL     1     -12.084  11.212  71.072  1.00  0.00    -0.380 C  
BRANCH  10  11
HETATM   11  C   UNL     1     -12.056  10.877  69.587  1.00  0.00    -0.400 C  
BRANCH  11  12
HETATM   12  C   UNL     1     -10.664  10.425  69.169  1.00  0.00    -0.266 C  
BRANCH  12  13
HETATM   13  C   UNL     1      -9.932   9.798  70.346  1.00  0.00    -0.294 C  
BRANCH  13  14
HETATM   14  C   UNL     1      -8.488   9.489  69.975  1.00  0.00    -0.210 C  
BRANCH  14  15
HETATM   15  C   UNL     1      -7.805   8.710  71.089  1.00  0.00    -0.139 C  
BRANCH  15  16
HETATM   16  C   UNL     1      -8.814   8.311  72.159  1.00  0.00    -0.265 C  
BRANCH  16  17
HETATM   17  C   UNL     1      -8.125   8.126  73.506  1.00  0.00    -0.261 C  
BRANCH  17  18
HETATM   18  C   UNL     1      -8.894   7.135  74.371  1.00  0.00    -0.238 C  
BRANCH  18  19
HETATM   19  C   UNL     1      -9.411   5.971  73.533  1.00  0.00    -0.139 C  
BRANCH  19  20
HETATM   20  C   UNL     1     -10.461   5.176  74.303  1.00  0.00    -0.315 C  
BRANCH  20  21
HETATM   21  C   UNL     1     -10.942   3.978  73.493  1.00  0.00    -0.354 C  
BRANCH  21  22
HETATM   22  C   UNL     1      -9.955   2.821  73.577  1.00  0.00    -0.105 C  
HETATM   23  O   UNL     1     -10.112   1.972  72.448  1.00  0.00    -0.135 OA 
HETATM   24  H   UNL     1      -9.497   1.250  72.501  1.00  0.00     0.000 HD 
ENDBRANCH  21  22
ENDBRANCH  20  21
ENDBRANCH  19  20
ENDBRANCH  18  19
ENDBRANCH  17  18
ENDBRANCH  16  17
ENDBRANCH  15  16
ENDBRANCH  14  15
ENDBRANCH  13  14
ENDBRANCH  12  13
ENDBRANCH  11  12
ENDBRANCH  10  11
ENDBRANCH   9  10
ENDBRANCH   8   9
ENDBRANCH   7   8
ENDBRANCH   6   7
ENDBRANCH   5   6
ENDBRANCH   4   5
ENDBRANCH   3   4
ENDBRANCH   2   3
TORSDOF 20
ENDMDL
MODEL      180
REMARK 921   NORMALIZED FREE ENERGY PREDICTED BY IDOCK:   -3.49 KCAL/MOL
REMARK 922        TOTAL FREE ENERGY PREDICTED BY IDOCK:  -10.43 KCAL/MOL
REMARK 923 INTER-LIGAND FREE ENERGY PREDICTED BY IDOCK:   -7.45 KCAL/MOL
REMARK 924 INTRA-LIGAND FREE ENERGY PREDICTED BY IDOCK:   -2.98 KCAL/MOL
REMARK 927      BINDING AFFINITY PREDICTED BY RF-SCORE:    0.00 PKD
ROOT
HETATM    1  C   UNL     1     -12.999   7.503  71.380  1.00  0.00    -0.379 C  
HETATM    2  C   UNL     1     -11.760   6.630  71.281  1.00  0.00    -0.386 C  
ENDROOT
BRANCH   2   3
HETATM    3  C   UNL     1     -10.488   7.469  71.371  1.00  0.00    -0.226 C  
BRANCH   3   4
HETATM    4  C   UNL     1     -10.813   8.930  71.670  1.00  0.00    -0.420 C  
BRANCH   4   5
HETATM    5  C   UNL     1     -10.323   9.833  70.542  1.00  0.00    -0.348 C  
BRANCH   5   6
HETATM    6  C   UNL     1     -11.429  10.778  70.085  1.00  0.00    -0.415 C  
BRANCH   6   7
HETATM    7  C   UNL     1     -11.551  10.769  68.566  1.00  0.00    -0.325 C  
BRANCH   7   8
HETATM    8  C   UNL     1     -10.883   9.531  67.982  1.00  0.00    -0.225 C  
BRANCH   8   9
HETATM    9  C   UNL     1     -10.045   9.898  66.765  1.00  0.00    -0.292 C  
BRANCH   9  10
HETATM   10  C   UNL     1      -9.772  11.395  66.735  1.00  0.00    -0.221 C  
BRANCH  10  11
HETATM   11  C   UNL     1      -8.353  11.688  67.203  1.00  0.00    -0.164 C  
BRANCH  11  12
HETATM   12  C   UNL     1      -8.338  12.888  68.140  1.00  0.00    -0.168 C  
BRANCH  12  13
HETATM   13  C   UNL     1      -7.233  13.856  67.747  1.00  0.00    -0.173 C  
BRANCH  13  14
HETATM   14  C   UNL     1      -7.763  15.283  67.699  1.00  0.00    -0.185 C  
BRANCH  14  15
HETATM   15  C   UNL     1      -8.938  15.384  66.738  1.00  0.00    -0.288 C  
BRANCH  15  16
HETATM   16  C   UNL     1     -10.181  15.884  67.463  1.00  0.00    -0.269 C  
BRANCH  16  17
HETATM   17  C   UNL     1     -11.364  14.960  67.201  1.00  0.00    -0.348 C  
BRANCH  17  18
HETATM   18  C   UNL     1     -11.866  14.347  68.503  1.00  0.00    -0.369 C  
BRANCH  18  19
HETATM   19  C   UNL     1     -11.095  14.902  69.696  1.00  0.00    -0.298 C  
BRANCH  19  20
HETATM   20  C   UNL     1     -12.012  15.722  70.598  1.00  0.00    -0.426 C  
BRANCH  20  21
HETATM   21  C   UNL     1     -13.257  14.929  70.977  1.00  0.00    -0.456 C  
BRANCH  21  22
HETATM   22  C   UNL     1     -12.921  13.801  71.944  1.00  0.00    -0.350 C  
HETATM   23  O   UNL     1     -14.058  13.497  72.741  1.00  0.00    -0.719 OA 
HETATM   24  H   UNL     1     -13.848  12.793  73.345  1.00  0.00     0.000 HD 
ENDBRANCH  21  22
ENDBRANCH  20  21
ENDBRANCH  19  20
ENDBRANCH  18  19
ENDBRANCH  17  18
ENDBRANCH  16  17
ENDBRANCH  15  16
ENDBRANCH  14  15
ENDBRANCH  13  14
ENDBRANCH  12  13
ENDBRANCH  11  12
ENDBRANCH  10  11
ENDBRANCH   9  10
ENDBRANCH   8   9
ENDBRANCH   7   8
ENDBRANCH   6   7
ENDBRANCH   5   6
ENDBRANCH   4   5
ENDBRANCH   3   4
ENDBRANCH   2   3
TORSDOF 20
ENDMDL
MODEL      181
REMARK 921   NORMALIZED FREE ENERGY PREDICTED BY IDOCK:   -3.48 KCAL/MOL
REMARK 922        TOTAL FREE ENERGY PREDICTED BY IDOCK:  -10.42 KCAL/MOL
REMARK 923 INTER-LIGAND FREE ENERGY PREDICTED BY IDOCK:   -7.39 KCAL/MOL
REMARK 924 INTRA-LIGAND FREE ENERGY PREDICTED BY IDOCK:   -3.03 KCAL/MOL
REMARK 927      BINDING AFFINITY PREDICTED BY RF-SCORE:    0.00 PKD
ROOT
HETATM    1  C   UNL     1     -10.963   6.177  67.605  1.00  0.00    -0.400 C  
HETATM    2  C   UNL     1     -11.296   6.307  69.082  1.00  0.00    -0.358 C  
ENDROOT
BRANCH   2   3
HETATM    3  C   UNL     1     -10.391   5.419  69.930  1.00  0.00    -0.377 C  
BRANCH   3   4
HETATM    4  C   UNL     1     -10.757   5.512  71.408  1.00  0.00    -0.290 C  
BRANCH   4   5
HETATM    5  C   UNL     1     -11.794   6.607  71.640  1.00  0.00    -0.383 C  
BRANCH   5   6
HETATM    6  C   UNL     1     -11.395   7.493  72.815  1.00  0.00    -0.388 C  
BRANCH   6   7
HETATM    7  C   UNL     1     -10.089   7.011  73.434  1.00  0.00    -0.320 C  
BRANCH   7   8
HETATM    8  C   UNL     1      -8.989   8.046  73.238  1.00  0.00    -0.338 C  
BRANCH   8   9
HETATM    9  C   UNL     1      -7.871   7.484  72.370  1.00  0.00    -0.112 C  
BRANCH   9  10
HETATM   10  C   UNL     1      -8.008   7.978  70.937  1.00  0.00    -0.094 C  
BRANCH  10  11
HETATM   11  C   UNL     1      -8.706   9.331  70.902  1.00  0.00    -0.234 C  
BRANCH  11  12
HETATM   12  C   UNL     1      -9.746   9.366  69.792  1.00  0.00    -0.215 C  
BRANCH  12  13
HETATM   13  C   UNL     1     -11.057   9.936  70.309  1.00  0.00    -0.368 C  
BRANCH  13  14
HETATM   14  C   UNL     1     -11.633  10.939  69.318  1.00  0.00    -0.388 C  
BRANCH  14  15
HETATM   15  C   UNL     1     -10.517  11.640  68.558  1.00  0.00    -0.236 C  
BRANCH  15  16
HETATM   16  C   UNL     1     -10.993  12.060  67.174  1.00  0.00    -0.320 C  
BRANCH  16  17
HETATM   17  C   UNL     1     -11.907  13.276  67.265  1.00  0.00    -0.421 C  
BRANCH  17  18
HETATM   18  C   UNL     1     -11.089  14.556  67.381  1.00  0.00    -0.320 C  
BRANCH  18  19
HETATM   19  C   UNL     1     -11.132  15.100  68.805  1.00  0.00    -0.272 C  
BRANCH  19  20
HETATM   20  C   UNL     1     -12.438  14.714  69.491  1.00  0.00    -0.151 C  
BRANCH  20  21
HETATM   21  C   UNL     1     -12.267  14.669  71.005  1.00  0.00    -0.399 C  
BRANCH  21  22
HETATM   22  C   UNL     1     -13.390  13.878  71.664  1.00  0.00    -0.362 C  
HETATM   23  O   UNL     1     -13.288  13.986  73.078  1.00  0.00    -0.641 OA 
HETATM   24  H   UNL     1     -13.988  13.493  73.490  1.00  0.00     0.000 HD 
ENDBRANCH  21  22
ENDBRANCH  20  21
ENDBRANCH  19  20
ENDBRANCH  18  19
ENDBRANCH  17  18
ENDBRANCH  16  17
ENDBRANCH  15  16
ENDBRANCH  14  15
ENDBRANCH  13  14
ENDBRANCH  12  13
ENDBRANCH  11  12
ENDBRANCH  10  11
ENDBRANCH   9  10
ENDBRANCH   8   9
ENDBRANCH   7   8
ENDBRANCH   6   7
ENDBRANCH   5   6
ENDBRANCH   4   5
ENDBRANCH   3   4
ENDBRANCH   2   3
TORSDOF 20
ENDMDL
MODEL      182
REMARK 921   NORMALIZED FREE ENERGY PREDICTED BY IDOCK:   -3.48 KCAL/MOL
REMARK 922        TOTAL FREE ENERGY PREDICTED BY IDOCK:  -10.41 KCAL/MOL
REMARK 923 INTER-LIGAND FREE ENERGY PREDICTED BY IDOCK:   -8.62 KCAL/MOL
REMARK 924 INTRA-LIGAND FREE ENERGY PREDICTED BY IDOCK:   -1.79 KCAL/MOL
REMARK 927      BINDING AFFINITY PREDICTED BY RF-SCORE:    0.00 PKD
ROOT
HETATM    1  C   UNL     1      -8.957   6.590  66.882  1.00  0.00    -0.128 C  
HETATM    2  C   UNL     1     -10.141   7.509  67.128  1.00  0.00    -0.317 C  
ENDROOT
BRANCH   2   3
HETATM    3  C   UNL     1     -11.072   6.932  68.191  1.00  0.00    -0.165 C  
BRANCH   3   4
HETATM    4  C   UNL     1     -10.552   5.595  68.712  1.00  0.00    -0.286 C  
BRANCH   4   5
HETATM    5  C   UNL     1     -10.544   5.575  70.237  1.00  0.00    -0.357 C  
BRANCH   5   6
HETATM    6  C   UNL     1     -10.129   6.932  70.796  1.00  0.00    -0.208 C  
BRANCH   6   7
HETATM    7  C   UNL     1     -10.925   7.264  72.052  1.00  0.00    -0.271 C  
BRANCH   7   8
HETATM    8  C   UNL     1     -12.299   6.608  72.004  1.00  0.00    -0.316 C  
BRANCH   8   9
HETATM    9  C   UNL     1     -13.356   7.608  71.555  1.00  0.00    -0.383 C  
BRANCH   9  10
HETATM   10  C   UNL     1     -13.244   8.899  72.353  1.00  0.00    -0.482 C  
BRANCH  10  11
HETATM   11  C   UNL     1     -13.777  10.074  71.545  1.00  0.00    -0.176 C  
BRANCH  11  12
HETATM   12  C   UNL     1     -12.867  11.284  71.700  1.00  0.00    -0.510 C  
BRANCH  12  13
HETATM   13  C   UNL     1     -11.875  11.356  70.550  1.00  0.00    -0.394 C  
BRANCH  13  14
HETATM   14  C   UNL     1     -11.760  12.783  70.030  1.00  0.00    -0.282 C  
BRANCH  14  15
HETATM   15  C   UNL     1     -12.411  13.758  70.999  1.00  0.00    -0.452 C  
BRANCH  15  16
HETATM   16  C   UNL     1     -11.570  15.021  71.133  1.00  0.00    -0.377 C  
BRANCH  16  17
HETATM   17  C   UNL     1     -11.823  15.963  69.962  1.00  0.00    -0.322 C  
BRANCH  17  18
HETATM   18  C   UNL     1     -10.524  16.618  69.509  1.00  0.00    -0.281 C  
BRANCH  18  19
HETATM   19  C   UNL     1     -10.542  16.876  68.006  1.00  0.00    -0.367 C  
BRANCH  19  20
HETATM   20  C   UNL     1     -10.980  15.626  67.249  1.00  0.00    -0.275 C  
BRANCH  20  21
HETATM   21  C   UNL     1     -10.304  15.548  65.885  1.00  0.00    -0.365 C  
BRANCH  21  22
HETATM   22  C   UNL     1     -11.323  15.323  64.776  1.00  0.00    -0.391 C  
HETATM   23  O   UNL     1     -11.522  16.530  64.053  1.00  0.00    -1.513 OA 
HETATM   24  H   UNL     1     -12.158  16.390  63.361  1.00  0.00     0.000 HD 
ENDBRANCH  21  22
ENDBRANCH  20  21
ENDBRANCH  19  20
ENDBRANCH  18  19
ENDBRANCH  17  18
ENDBRANCH  16  17
ENDBRANCH  15  16
ENDBRANCH  14  15
ENDBRANCH  13  14
ENDBRANCH  12  13
ENDBRANCH  11  12
ENDBRANCH  10  11
ENDBRANCH   9  10
ENDBRANCH   8   9
ENDBRANCH   7   8
ENDBRANCH   6   7
ENDBRANCH   5   6
ENDBRANCH   4   5
ENDBRANCH   3   4
ENDBRANCH   2   3
TORSDOF 20
ENDMDL
MODEL      183
REMARK 921   NORMALIZED FREE ENERGY PREDICTED BY IDOCK:   -3.47 KCAL/MOL
REMARK 922        TOTAL FREE ENERGY PREDICTED BY IDOCK:  -10.39 KCAL/MOL
REMARK 923 INTER-LIGAND FREE ENERGY PREDICTED BY IDOCK:   -7.66 KCAL/MOL
REMARK 924 INTRA-LIGAND FREE ENERGY PREDICTED BY IDOCK:   -2.73 KCAL/MOL
REMARK 927      BINDING AFFINITY PREDICTED BY RF-SCORE:    0.00 PKD
ROOT
HETATM    1  C   UNL     1      -9.439   9.406  67.439  1.00  0.00    -0.163 C  
HETATM    2  C   UNL     1     -10.603   8.445  67.272  1.00  0.00    -0.328 C  
ENDROOT
BRANCH   2   3
HETATM    3  C   UNL     1     -10.233   7.045  67.752  1.00  0.00    -0.227 C  
BRANCH   3   4
HETATM    4  C   UNL     1      -8.824   7.018  68.338  1.00  0.00    -0.123 C  
BRANCH   4   5
HETATM    5  C   UNL     1      -8.861   6.654  69.819  1.00  0.00    -0.144 C  
BRANCH   5   6
HETATM    6  C   UNL     1      -9.194   7.874  70.670  1.00  0.00    -0.157 C  
BRANCH   6   7
HETATM    7  C   UNL     1     -10.131   7.496  71.810  1.00  0.00    -0.205 C  
BRANCH   7   8
HETATM    8  C   UNL     1     -11.171   6.488  71.338  1.00  0.00    -0.331 C  
BRANCH   8   9
HETATM    9  C   UNL     1     -12.538   7.147  71.211  1.00  0.00    -0.421 C  
BRANCH   9  10
HETATM   10  C   UNL     1     -12.630   8.366  72.117  1.00  0.00    -0.412 C  
BRANCH  10  11
HETATM   11  C   UNL     1     -13.413   9.481  71.436  1.00  0.00    -0.405 C  
BRANCH  11  12
HETATM   12  C   UNL     1     -12.544  10.720  71.274  1.00  0.00    -0.532 C  
BRANCH  12  13
HETATM   13  C   UNL     1     -11.799  10.678  69.949  1.00  0.00    -0.392 C  
BRANCH  13  14
HETATM   14  C   UNL     1     -12.130  11.904  69.109  1.00  0.00    -0.261 C  
BRANCH  14  15
HETATM   15  C   UNL     1     -11.964  13.174  69.930  1.00  0.00    -0.387 C  
BRANCH  15  16
HETATM   16  C   UNL     1     -11.345  14.280  69.086  1.00  0.00    -0.312 C  
BRANCH  16  17
HETATM   17  C   UNL     1     -11.976  14.318  67.699  1.00  0.00    -0.400 C  
BRANCH  17  18
HETATM   18  C   UNL     1     -10.947  14.722  66.650  1.00  0.00    -0.326 C  
BRANCH  18  19
HETATM   19  C   UNL     1     -11.420  14.340  65.252  1.00  0.00    -0.344 C  
BRANCH  19  20
HETATM   20  C   UNL     1     -12.082  12.967  65.262  1.00  0.00    -0.496 C  
BRANCH  20  21
HETATM   21  C   UNL     1     -11.040  11.857  65.192  1.00  0.00    -0.360 C  
BRANCH  21  22
HETATM   22  C   UNL     1     -10.693  11.515  63.748  1.00  0.00    -0.408 C  
HETATM   23  O   UNL     1      -9.367  11.938  63.460  1.00  0.00    -0.530 OA 
HETATM   24  H   UNL     1      -9.150  11.725  62.560  1.00  0.00     0.000 HD 
ENDBRANCH  21  22
ENDBRANCH  20  21
ENDBRANCH  19  20
ENDBRANCH  18  19
ENDBRANCH  17  18
ENDBRANCH  16  17
ENDBRANCH  15  16
ENDBRANCH  14  15
ENDBRANCH  13  14
ENDBRANCH  12  13
ENDBRANCH  11  12
ENDBRANCH  10  11
ENDBRANCH   9  10
ENDBRANCH   8   9
ENDBRANCH   7   8
ENDBRANCH   6   7
ENDBRANCH   5   6
ENDBRANCH   4   5
ENDBRANCH   3   4
ENDBRANCH   2   3
TORSDOF 20
ENDMDL
MODEL      184
REMARK 921   NORMALIZED FREE ENERGY PREDICTED BY IDOCK:   -3.46 KCAL/MOL
REMARK 922        TOTAL FREE ENERGY PREDICTED BY IDOCK:  -10.37 KCAL/MOL
REMARK 923 INTER-LIGAND FREE ENERGY PREDICTED BY IDOCK:   -7.33 KCAL/MOL
REMARK 924 INTRA-LIGAND FREE ENERGY PREDICTED BY IDOCK:   -3.05 KCAL/MOL
REMARK 927      BINDING AFFINITY PREDICTED BY RF-SCORE:    0.00 PKD
ROOT
HETATM    1  C   UNL     1      -9.037   4.850  66.763  1.00  0.00    -0.118 C  
HETATM    2  C   UNL     1      -7.655   5.347  67.152  1.00  0.00    -0.092 C  
ENDROOT
BRANCH   2   3
HETATM    3  C   UNL     1      -7.429   5.223  68.655  1.00  0.00    -0.071 C  
BRANCH   3   4
HETATM    4  C   UNL     1      -7.163   6.587  69.286  1.00  0.00    -0.090 C  
BRANCH   4   5
HETATM    5  C   UNL     1      -7.325   7.700  68.254  1.00  0.00    -0.099 C  
BRANCH   5   6
HETATM    6  C   UNL     1      -8.380   8.706  68.702  1.00  0.00    -0.122 C  
BRANCH   6   7
HETATM    7  C   UNL     1      -9.421   8.035  69.589  1.00  0.00    -0.163 C  
BRANCH   7   8
HETATM    8  C   UNL     1     -10.610   7.566  68.761  1.00  0.00    -0.179 C  
BRANCH   8   9
HETATM    9  C   UNL     1     -11.323   6.411  69.451  1.00  0.00    -0.443 C  
BRANCH   9  10
HETATM   10  C   UNL     1     -10.947   6.354  70.925  1.00  0.00    -0.335 C  
BRANCH  10  11
HETATM   11  C   UNL     1     -12.104   6.835  71.790  1.00  0.00    -0.393 C  
BRANCH  11  12
HETATM   12  C   UNL     1     -11.873   8.270  72.241  1.00  0.00    -0.451 C  
BRANCH  12  13
HETATM   13  C   UNL     1     -13.161   9.072  72.148  1.00  0.00    -0.504 C  
BRANCH  13  14
HETATM   14  C   UNL     1     -13.204   9.867  70.850  1.00  0.00    -0.309 C  
BRANCH  14  15
HETATM   15  C   UNL     1     -12.303  11.089  70.943  1.00  0.00    -0.503 C  
BRANCH  15  16
HETATM   16  C   UNL     1     -11.300  11.104  69.797  1.00  0.00    -0.354 C  
BRANCH  16  17
HETATM   17  C   UNL     1     -12.017  11.209  68.456  1.00  0.00    -0.250 C  
BRANCH  17  18
HETATM   18  C   UNL     1     -11.034  11.027  67.305  1.00  0.00    -0.356 C  
BRANCH  18  19
HETATM   19  C   UNL     1     -10.341  12.344  66.971  1.00  0.00    -0.235 C  
BRANCH  19  20
HETATM   20  C   UNL     1      -9.967  12.397  65.494  1.00  0.00    -0.260 C  
BRANCH  20  21
HETATM   21  C   UNL     1     -10.649  13.569  64.799  1.00  0.00    -0.429 C  
BRANCH  21  22
HETATM   22  C   UNL     1     -11.987  13.153  64.200  1.00  0.00    -0.436 C  
HETATM   23  O   UNL     1     -12.334  14.033  63.139  1.00  0.00    -1.133 OA 
HETATM   24  H   UNL     1     -13.168  13.774  62.766  1.00  0.00     0.000 HD 
ENDBRANCH  21  22
ENDBRANCH  20  21
ENDBRANCH  19  20
ENDBRANCH  18  19
ENDBRANCH  17  18
ENDBRANCH  16  17
ENDBRANCH  15  16
ENDBRANCH  14  15
ENDBRANCH  13  14
ENDBRANCH  12  13
ENDBRANCH  11  12
ENDBRANCH  10  11
ENDBRANCH   9  10
ENDBRANCH   8   9
ENDBRANCH   7   8
ENDBRANCH   6   7
ENDBRANCH   5   6
ENDBRANCH   4   5
ENDBRANCH   3   4
ENDBRANCH   2   3
TORSDOF 20
ENDMDL
MODEL      185
REMARK 921   NORMALIZED FREE ENERGY PREDICTED BY IDOCK:   -3.46 KCAL/MOL
REMARK 922        TOTAL FREE ENERGY PREDICTED BY IDOCK:  -10.37 KCAL/MOL
REMARK 923 INTER-LIGAND FREE ENERGY PREDICTED BY IDOCK:   -7.14 KCAL/MOL
REMARK 924 INTRA-LIGAND FREE ENERGY PREDICTED BY IDOCK:   -3.24 KCAL/MOL
REMARK 927      BINDING AFFINITY PREDICTED BY RF-SCORE:    0.00 PKD
ROOT
HETATM    1  C   UNL     1     -12.579  13.145  70.869  1.00  0.00    -0.377 C  
HETATM    2  C   UNL     1     -11.968  11.879  70.292  1.00  0.00    -0.416 C  
ENDROOT
BRANCH   2   3
HETATM    3  C   UNL     1     -12.967  10.727  70.315  1.00  0.00    -0.132 C  
BRANCH   3   4
HETATM    4  C   UNL     1     -13.284  10.301  71.746  1.00  0.00    -0.534 C  
BRANCH   4   5
HETATM    5  C   UNL     1     -13.665   8.825  71.799  1.00  0.00    -0.461 C  
BRANCH   5   6
HETATM    6  C   UNL     1     -12.469   7.942  71.459  1.00  0.00    -0.341 C  
BRANCH   6   7
HETATM    7  C   UNL     1     -11.425   8.001  72.568  1.00  0.00    -0.471 C  
BRANCH   7   8
HETATM    8  C   UNL     1     -10.067   8.398  72.005  1.00  0.00    -0.364 C  
BRANCH   8   9
HETATM    9  C   UNL     1     -10.029   8.190  70.497  1.00  0.00    -0.195 C  
BRANCH   9  10
HETATM   10  C   UNL     1      -8.596   8.003  70.018  1.00  0.00    -0.134 C  
BRANCH  10  11
HETATM   11  C   UNL     1      -7.884   9.346  69.929  1.00  0.00    -0.126 C  
BRANCH  11  12
HETATM   12  C   UNL     1      -8.755  10.365  69.209  1.00  0.00    -0.160 C  
BRANCH  12  13
HETATM   13  C   UNL     1      -7.893  11.337  68.418  1.00  0.00    -0.136 C  
BRANCH  13  14
HETATM   14  C   UNL     1      -8.562  11.693  67.097  1.00  0.00    -0.164 C  
BRANCH  14  15
HETATM   15  C   UNL     1     -10.062  11.456  67.177  1.00  0.00    -0.226 C  
BRANCH  15  16
HETATM   16  C   UNL     1     -10.509  10.483  66.094  1.00  0.00    -0.237 C  
BRANCH  16  17
HETATM   17  C   UNL     1      -9.320   9.698  65.551  1.00  0.00    -0.309 C  
BRANCH  17  18
HETATM   18  C   UNL     1      -9.345   8.263  66.063  1.00  0.00    -0.217 C  
BRANCH  18  19
HETATM   19  C   UNL     1     -10.590   8.009  66.906  1.00  0.00    -0.324 C  
BRANCH  19  20
HETATM   20  C   UNL     1     -10.811   6.513  67.104  1.00  0.00    -0.472 C  
BRANCH  20  21
HETATM   21  C   UNL     1      -9.577   5.719  66.695  1.00  0.00    -0.168 C  
BRANCH  21  22
HETATM   22  C   UNL     1      -9.927   4.638  65.680  1.00  0.00    -0.211 C  
HETATM   23  O   UNL     1     -11.317   4.686  65.387  1.00  0.00    -0.960 OA 
HETATM   24  H   UNL     1     -11.536   4.012  64.754  1.00  0.00     0.000 HD 
ENDBRANCH  21  22
ENDBRANCH  20  21
ENDBRANCH  19  20
ENDBRANCH  18  19
ENDBRANCH  17  18
ENDBRANCH  16  17
ENDBRANCH  15  16
ENDBRANCH  14  15
ENDBRANCH  13  14
ENDBRANCH  12  13
ENDBRANCH  11  12
ENDBRANCH  10  11
ENDBRANCH   9  10
ENDBRANCH   8   9
ENDBRANCH   7   8
ENDBRANCH   6   7
ENDBRANCH   5   6
ENDBRANCH   4   5
ENDBRANCH   3   4
ENDBRANCH   2   3
TORSDOF 20
ENDMDL
MODEL      186
REMARK 921   NORMALIZED FREE ENERGY PREDICTED BY IDOCK:   -3.46 KCAL/MOL
REMARK 922        TOTAL FREE ENERGY PREDICTED BY IDOCK:  -10.37 KCAL/MOL
REMARK 923 INTER-LIGAND FREE ENERGY PREDICTED BY IDOCK:   -7.07 KCAL/MOL
REMARK 924 INTRA-LIGAND FREE ENERGY PREDICTED BY IDOCK:   -3.30 KCAL/MOL
REMARK 927      BINDING AFFINITY PREDICTED BY RF-SCORE:    0.00 PKD
ROOT
HETATM    1  C   UNL     1      -9.825  15.289  69.334  1.00  0.00    -0.253 C  
HETATM    2  C   UNL     1     -11.327  15.104  69.207  1.00  0.00    -0.313 C  
ENDROOT
BRANCH   2   3
HETATM    3  C   UNL     1     -11.752  15.042  67.743  1.00  0.00    -0.294 C  
BRANCH   3   4
HETATM    4  C   UNL     1     -11.084  13.873  67.025  1.00  0.00    -0.311 C  
BRANCH   4   5
HETATM    5  C   UNL     1     -11.605  12.542  67.559  1.00  0.00    -0.424 C  
BRANCH   5   6
HETATM    6  C   UNL     1     -10.451  11.616  67.929  1.00  0.00    -0.217 C  
BRANCH   6   7
HETATM    7  C   UNL     1     -10.658  11.029  69.320  1.00  0.00    -0.236 C  
BRANCH   7   8
HETATM    8  C   UNL     1     -11.936  11.571  69.947  1.00  0.00    -0.426 C  
BRANCH   8   9
HETATM    9  C   UNL     1     -12.594  10.514  70.823  1.00  0.00    -0.474 C  
BRANCH   9  10
HETATM   10  C   UNL     1     -11.540   9.665  71.520  1.00  0.00    -0.451 C  
BRANCH  10  11
HETATM   11  C   UNL     1     -12.157   8.381  72.056  1.00  0.00    -0.417 C  
BRANCH  11  12
HETATM   12  C   UNL     1     -11.087   7.492  72.674  1.00  0.00    -0.398 C  
BRANCH  12  13
HETATM   13  C   UNL     1      -9.712   8.121  72.508  1.00  0.00    -0.357 C  
BRANCH  13  14
HETATM   14  C   UNL     1      -8.629   7.049  72.509  1.00  0.00    -0.132 C  
BRANCH  14  15
HETATM   15  C   UNL     1      -9.242   5.672  72.304  1.00  0.00    -0.154 C  
BRANCH  15  16
HETATM   16  C   UNL     1      -8.576   4.959  71.134  1.00  0.00    -0.131 C  
BRANCH  16  17
HETATM   17  C   UNL     1      -9.108   5.490  69.808  1.00  0.00    -0.157 C  
BRANCH  17  18
HETATM   18  C   UNL     1     -10.626   5.373  69.752  1.00  0.00    -0.347 C  
BRANCH  18  19
HETATM   19  C   UNL     1     -11.250   6.660  69.222  1.00  0.00    -0.326 C  
BRANCH  19  20
HETATM   20  C   UNL     1     -10.187   7.558  68.598  1.00  0.00    -0.210 C  
BRANCH  20  21
HETATM   21  C   UNL     1     -10.583   7.975  67.187  1.00  0.00    -0.367 C  
BRANCH  21  22
HETATM   22  C   UNL     1      -9.362   8.364  66.362  1.00  0.00    -0.214 C  
HETATM   23  O   UNL     1      -9.767   9.139  65.241  1.00  0.00    -0.462 OA 
HETATM   24  H   UNL     1      -9.005   9.382  64.727  1.00  0.00     0.000 HD 
ENDBRANCH  21  22
ENDBRANCH  20  21
ENDBRANCH  19  20
ENDBRANCH  18  19
ENDBRANCH  17  18
ENDBRANCH  16  17
ENDBRANCH  15  16
ENDBRANCH  14  15
ENDBRANCH  13  14
ENDBRANCH  12  13
ENDBRANCH  11  12
ENDBRANCH  10  11
ENDBRANCH   9  10
ENDBRANCH   8   9
ENDBRANCH   7   8
ENDBRANCH   6   7
ENDBRANCH   5   6
ENDBRANCH   4   5
ENDBRANCH   3   4
ENDBRANCH   2   3
TORSDOF 20
ENDMDL
MODEL      187
REMARK 921   NORMALIZED FREE ENERGY PREDICTED BY IDOCK:   -3.46 KCAL/MOL
REMARK 922        TOTAL FREE ENERGY PREDICTED BY IDOCK:  -10.37 KCAL/MOL
REMARK 923 INTER-LIGAND FREE ENERGY PREDICTED BY IDOCK:   -7.48 KCAL/MOL
REMARK 924 INTRA-LIGAND FREE ENERGY PREDICTED BY IDOCK:   -2.89 KCAL/MOL
REMARK 927      BINDING AFFINITY PREDICTED BY RF-SCORE:    0.00 PKD
ROOT
HETATM    1  C   UNL     1     -11.748  13.965  68.110  1.00  0.00    -0.388 C  
HETATM    2  C   UNL     1     -11.679  13.214  69.429  1.00  0.00    -0.386 C  
ENDROOT
BRANCH   2   3
HETATM    3  C   UNL     1     -12.562  13.873  70.484  1.00  0.00    -0.382 C  
BRANCH   3   4
HETATM    4  C   UNL     1     -13.016  12.861  71.532  1.00  0.00    -0.388 C  
BRANCH   4   5
HETATM    5  C   UNL     1     -12.353  11.507  71.298  1.00  0.00    -0.314 C  
BRANCH   5   6
HETATM    6  C   UNL     1     -13.358  10.373  71.476  1.00  0.00    -0.405 C  
BRANCH   6   7
HETATM    7  C   UNL     1     -12.683   9.147  72.079  1.00  0.00    -0.473 C  
BRANCH   7   8
HETATM    8  C   UNL     1     -11.860   8.416  71.027  1.00  0.00    -0.278 C  
BRANCH   8   9
HETATM    9  C   UNL     1     -12.269   6.951  70.948  1.00  0.00    -0.404 C  
BRANCH   9  10
HETATM   10  C   UNL     1     -11.137   6.110  70.376  1.00  0.00    -0.420 C  
BRANCH  10  11
HETATM   11  C   UNL     1     -10.919   6.437  68.906  1.00  0.00    -0.412 C  
BRANCH  11  12
HETATM   12  C   UNL     1      -9.432   6.535  68.597  1.00  0.00    -0.123 C  
BRANCH  12  13
HETATM   13  C   UNL     1      -8.656   6.946  69.838  1.00  0.00    -0.141 C  
BRANCH  13  14
HETATM   14  C   UNL     1      -8.398   8.447  69.837  1.00  0.00    -0.124 C  
BRANCH  14  15
HETATM   15  C   UNL     1      -7.715   8.870  68.545  1.00  0.00    -0.098 C  
BRANCH  15  16
HETATM   16  C   UNL     1      -8.411  10.086  67.945  1.00  0.00    -0.117 C  
BRANCH  16  17
HETATM   17  C   UNL     1      -9.885  10.107  68.331  1.00  0.00    -0.164 C  
BRANCH  17  18
HETATM   18  C   UNL     1     -10.766  10.096  67.087  1.00  0.00    -0.286 C  
BRANCH  18  19
HETATM   19  C   UNL     1      -9.936   9.823  65.837  1.00  0.00    -0.345 C  
BRANCH  19  20
HETATM   20  C   UNL     1     -10.365  10.737  64.694  1.00  0.00    -0.394 C  
BRANCH  20  21
HETATM   21  C   UNL     1     -10.203  12.203  65.075  1.00  0.00    -0.312 C  
BRANCH  21  22
HETATM   22  C   UNL     1     -11.253  13.071  64.395  1.00  0.00    -0.358 C  
HETATM   23  O   UNL     1     -11.450  12.629  63.058  1.00  0.00    -0.763 OA 
HETATM   24  H   UNL     1     -12.106  13.171  62.634  1.00  0.00     0.000 HD 
ENDBRANCH  21  22
ENDBRANCH  20  21
ENDBRANCH  19  20
ENDBRANCH  18  19
ENDBRANCH  17  18
ENDBRANCH  16  17
ENDBRANCH  15  16
ENDBRANCH  14  15
ENDBRANCH  13  14
ENDBRANCH  12  13
ENDBRANCH  11  12
ENDBRANCH  10  11
ENDBRANCH   9  10
ENDBRANCH   8   9
ENDBRANCH   7   8
ENDBRANCH   6   7
ENDBRANCH   5   6
ENDBRANCH   4   5
ENDBRANCH   3   4
ENDBRANCH   2   3
TORSDOF 20
ENDMDL
MODEL      188
REMARK 921   NORMALIZED FREE ENERGY PREDICTED BY IDOCK:   -3.45 KCAL/MOL
REMARK 922        TOTAL FREE ENERGY PREDICTED BY IDOCK:  -10.35 KCAL/MOL
REMARK 923 INTER-LIGAND FREE ENERGY PREDICTED BY IDOCK:   -7.11 KCAL/MOL
REMARK 924 INTRA-LIGAND FREE ENERGY PREDICTED BY IDOCK:   -3.24 KCAL/MOL
REMARK 927      BINDING AFFINITY PREDICTED BY RF-SCORE:    0.00 PKD
ROOT
HETATM    1  C   UNL     1      -8.891   7.559  66.046  1.00  0.00    -0.179 C  
HETATM    2  C   UNL     1      -8.822   9.073  66.146  1.00  0.00    -0.195 C  
ENDROOT
BRANCH   2   3
HETATM    3  C   UNL     1      -9.854   9.732  65.236  1.00  0.00    -0.335 C  
BRANCH   3   4
HETATM    4  C   UNL     1      -9.179  10.577  64.159  1.00  0.00    -0.283 C  
BRANCH   4   5
HETATM    5  C   UNL     1     -10.220  11.283  63.295  1.00  0.00    -0.417 C  
BRANCH   5   6
HETATM    6  C   UNL     1     -11.393  11.763  64.143  1.00  0.00    -0.430 C  
BRANCH   6   7
HETATM    7  C   UNL     1     -12.071  12.963  63.492  1.00  0.00    -0.633 C  
BRANCH   7   8
HETATM    8  C   UNL     1     -12.262  14.085  64.505  1.00  0.00    -0.463 C  
BRANCH   8   9
HETATM    9  C   UNL     1     -10.945  14.805  64.762  1.00  0.00    -0.393 C  
BRANCH   9  10
HETATM   10  C   UNL     1     -10.771  15.087  66.247  1.00  0.00    -0.322 C  
BRANCH  10  11
HETATM   11  C   UNL     1      -9.384  14.665  66.712  1.00  0.00    -0.275 C  
BRANCH  11  12
HETATM   12  C   UNL     1      -9.254  13.148  66.692  1.00  0.00    -0.220 C  
BRANCH  12  13
HETATM   13  C   UNL     1      -8.781  12.637  68.044  1.00  0.00    -0.190 C  
BRANCH  13  14
HETATM   14  C   UNL     1      -9.769  11.626  68.610  1.00  0.00    -0.151 C  
BRANCH  14  15
HETATM   15  C   UNL     1     -11.124  11.768  67.934  1.00  0.00    -0.302 C  
BRANCH  15  16
HETATM   16  C   UNL     1     -12.235  11.271  68.850  1.00  0.00    -0.160 C  
BRANCH  16  17
HETATM   17  C   UNL     1     -11.844  11.446  70.313  1.00  0.00    -0.438 C  
BRANCH  17  18
HETATM   18  C   UNL     1     -12.582  10.441  71.190  1.00  0.00    -0.512 C  
BRANCH  18  19
HETATM   19  C   UNL     1     -11.620   9.395  71.742  1.00  0.00    -0.433 C  
BRANCH  19  20
HETATM   20  C   UNL     1     -11.711   8.101  70.939  1.00  0.00    -0.259 C  
BRANCH  20  21
HETATM   21  C   UNL     1     -10.534   7.969  69.980  1.00  0.00    -0.228 C  
BRANCH  21  22
HETATM   22  C   UNL     1      -9.282   8.625  70.548  1.00  0.00    -0.175 C  
HETATM   23  O   UNL     1      -8.159   8.298  69.740  1.00  0.00    -0.113 OA 
HETATM   24  H   UNL     1      -7.378   8.706  70.095  1.00  0.00     0.000 HD 
ENDBRANCH  21  22
ENDBRANCH  20  21
ENDBRANCH  19  20
ENDBRANCH  18  19
ENDBRANCH  17  18
ENDBRANCH  16  17
ENDBRANCH  15  16
ENDBRANCH  14  15
ENDBRANCH  13  14
ENDBRANCH  12  13
ENDBRANCH  11  12
ENDBRANCH  10  11
ENDBRANCH   9  10
ENDBRANCH   8   9
ENDBRANCH   7   8
ENDBRANCH   6   7
ENDBRANCH   5   6
ENDBRANCH   4   5
ENDBRANCH   3   4
ENDBRANCH   2   3
TORSDOF 20
ENDMDL
MODEL      189
REMARK 921   NORMALIZED FREE ENERGY PREDICTED BY IDOCK:   -3.45 KCAL/MOL
REMARK 922        TOTAL FREE ENERGY PREDICTED BY IDOCK:  -10.35 KCAL/MOL
REMARK 923 INTER-LIGAND FREE ENERGY PREDICTED BY IDOCK:   -8.52 KCAL/MOL
REMARK 924 INTRA-LIGAND FREE ENERGY PREDICTED BY IDOCK:   -1.83 KCAL/MOL
REMARK 927      BINDING AFFINITY PREDICTED BY RF-SCORE:    0.00 PKD
ROOT
HETATM    1  C   UNL     1     -10.383   4.653  66.052  1.00  0.00    -0.318 C  
HETATM    2  C   UNL     1     -10.244   6.081  66.553  1.00  0.00    -0.200 C  
ENDROOT
BRANCH   2   3
HETATM    3  C   UNL     1      -9.808   6.110  68.015  1.00  0.00    -0.134 C  
BRANCH   3   4
HETATM    4  C   UNL     1     -11.006   6.289  68.943  1.00  0.00    -0.435 C  
BRANCH   4   5
HETATM    5  C   UNL     1     -10.830   5.466  70.216  1.00  0.00    -0.214 C  
BRANCH   5   6
HETATM    6  C   UNL     1     -10.926   6.353  71.453  1.00  0.00    -0.316 C  
BRANCH   6   7
HETATM    7  C   UNL     1      -9.630   7.127  71.662  1.00  0.00    -0.163 C  
BRANCH   7   8
HETATM    8  C   UNL     1      -9.917   8.508  72.236  1.00  0.00    -0.385 C  
BRANCH   8   9
HETATM    9  C   UNL     1     -10.917   9.254  71.364  1.00  0.00    -0.429 C  
BRANCH   9  10
HETATM   10  C   UNL     1     -10.242   9.778  70.104  1.00  0.00    -0.328 C  
BRANCH  10  11
HETATM   11  C   UNL     1     -11.279  10.300  69.119  1.00  0.00    -0.268 C  
BRANCH  11  12
HETATM   12  C   UNL     1     -10.727  10.275  67.701  1.00  0.00    -0.339 C  
BRANCH  12  13
HETATM   13  C   UNL     1      -9.794  11.453  67.472  1.00  0.00    -0.194 C  
BRANCH  13  14
HETATM   14  C   UNL     1     -10.320  12.345  66.355  1.00  0.00    -0.255 C  
BRANCH  14  15
HETATM   15  C   UNL     1     -11.726  12.829  66.676  1.00  0.00    -0.459 C  
BRANCH  15  16
HETATM   16  C   UNL     1     -11.679  14.150  67.432  1.00  0.00    -0.422 C  
BRANCH  16  17
HETATM   17  C   UNL     1     -11.851  13.921  68.929  1.00  0.00    -0.393 C  
BRANCH  17  18
HETATM   18  C   UNL     1     -11.641  15.219  69.699  1.00  0.00    -0.340 C  
BRANCH  18  19
HETATM   19  C   UNL     1     -12.779  15.453  70.687  1.00  0.00    -0.490 C  
BRANCH  19  20
HETATM   20  C   UNL     1     -12.565  14.640  71.960  1.00  0.00    -0.408 C  
BRANCH  20  21
HETATM   21  C   UNL     1     -11.684  15.395  72.949  1.00  0.00    -0.508 C  
BRANCH  21  22
HETATM   22  C   UNL     1     -12.475  15.828  74.175  1.00  0.00    -0.655 C  
HETATM   23  O   UNL     1     -13.694  16.438  73.771  1.00  0.00    -0.866 OA 
HETATM   24  H   UNL     1     -14.188  16.709  74.536  1.00  0.00     0.000 HD 
ENDBRANCH  21  22
ENDBRANCH  20  21
ENDBRANCH  19  20
ENDBRANCH  18  19
ENDBRANCH  17  18
ENDBRANCH  16  17
ENDBRANCH  15  16
ENDBRANCH  14  15
ENDBRANCH  13  14
ENDBRANCH  12  13
ENDBRANCH  11  12
ENDBRANCH  10  11
ENDBRANCH   9  10
ENDBRANCH   8   9
ENDBRANCH   7   8
ENDBRANCH   6   7
ENDBRANCH   5   6
ENDBRANCH   4   5
ENDBRANCH   3   4
ENDBRANCH   2   3
TORSDOF 20
ENDMDL
MODEL      190
REMARK 921   NORMALIZED FREE ENERGY PREDICTED BY IDOCK:   -3.44 KCAL/MOL
REMARK 922        TOTAL FREE ENERGY PREDICTED BY IDOCK:  -10.34 KCAL/MOL
REMARK 923 INTER-LIGAND FREE ENERGY PREDICTED BY IDOCK:   -7.52 KCAL/MOL
REMARK 924 INTRA-LIGAND FREE ENERGY PREDICTED BY IDOCK:   -2.82 KCAL/MOL
REMARK 927      BINDING AFFINITY PREDICTED BY RF-SCORE:    0.00 PKD
ROOT
HETATM    1  C   UNL     1     -11.897  13.071  67.166  1.00  0.00    -0.431 C  
HETATM    2  C   UNL     1     -10.706  12.138  67.305  1.00  0.00    -0.264 C  
ENDROOT
BRANCH   2   3
HETATM    3  C   UNL     1     -11.155  10.725  67.663  1.00  0.00    -0.384 C  
BRANCH   3   4
HETATM    4  C   UNL     1     -10.491   9.691  66.759  1.00  0.00    -0.257 C  
BRANCH   4   5
HETATM    5  C   UNL     1     -10.091   8.453  67.556  1.00  0.00    -0.279 C  
BRANCH   5   6
HETATM    6  C   UNL     1     -10.050   7.220  66.659  1.00  0.00    -0.238 C  
BRANCH   6   7
HETATM    7  C   UNL     1     -10.767   6.049  67.322  1.00  0.00    -0.400 C  
BRANCH   7   8
HETATM    8  C   UNL     1     -11.151   6.397  68.754  1.00  0.00    -0.404 C  
BRANCH   8   9
HETATM    9  C   UNL     1     -10.594   5.365  69.725  1.00  0.00    -0.347 C  
BRANCH   9  10
HETATM   10  C   UNL     1      -9.078   5.473  69.807  1.00  0.00    -0.157 C  
BRANCH  10  11
HETATM   11  C   UNL     1      -8.526   4.476  70.817  1.00  0.00    -0.107 C  
BRANCH  11  12
HETATM   12  C   UNL     1      -9.644   3.608  71.375  1.00  0.00    -0.237 C  
BRANCH  12  13
HETATM   13  C   UNL     1      -9.603   3.599  72.895  1.00  0.00    -0.171 C  
BRANCH  13  14
HETATM   14  C   UNL     1     -10.977   3.916  73.470  1.00  0.00    -0.343 C  
BRANCH  14  15
HETATM   15  C   UNL     1     -11.473   5.259  72.956  1.00  0.00    -0.340 C  
BRANCH  15  16
HETATM   16  C   UNL     1     -10.502   6.370  73.335  1.00  0.00    -0.283 C  
BRANCH  16  17
HETATM   17  C   UNL     1     -11.073   7.733  72.964  1.00  0.00    -0.419 C  
BRANCH  17  18
HETATM   18  C   UNL     1     -10.141   8.464  72.004  1.00  0.00    -0.364 C  
BRANCH  18  19
HETATM   19  C   UNL     1     -10.933   9.345  71.044  1.00  0.00    -0.409 C  
BRANCH  19  20
HETATM   20  C   UNL     1     -12.212   9.848  71.704  1.00  0.00    -0.482 C  
BRANCH  20  21
HETATM   21  C   UNL     1     -12.871  10.933  70.862  1.00  0.00    -0.418 C  
BRANCH  21  22
HETATM   22  C   UNL     1     -12.819  12.285  71.563  1.00  0.00    -0.280 C  
HETATM   23  O   UNL     1     -12.033  13.192  70.800  1.00  0.00    -0.504 OA 
HETATM   24  H   UNL     1     -12.001  14.035  71.238  1.00  0.00     0.000 HD 
ENDBRANCH  21  22
ENDBRANCH  20  21
ENDBRANCH  19  20
ENDBRANCH  18  19
ENDBRANCH  17  18
ENDBRANCH  16  17
ENDBRANCH  15  16
ENDBRANCH  14  15
ENDBRANCH  13  14
ENDBRANCH  12  13
ENDBRANCH  11  12
ENDBRANCH  10  11
ENDBRANCH   9  10
ENDBRANCH   8   9
ENDBRANCH   7   8
ENDBRANCH   6   7
ENDBRANCH   5   6
ENDBRANCH   4   5
ENDBRANCH   3   4
ENDBRANCH   2   3
TORSDOF 20
ENDMDL
MODEL      191
REMARK 921   NORMALIZED FREE ENERGY PREDICTED BY IDOCK:   -3.44 KCAL/MOL
REMARK 922        TOTAL FREE ENERGY PREDICTED BY IDOCK:  -10.33 KCAL/MOL
REMARK 923 INTER-LIGAND FREE ENERGY PREDICTED BY IDOCK:   -7.53 KCAL/MOL
REMARK 924 INTRA-LIGAND FREE ENERGY PREDICTED BY IDOCK:   -2.80 KCAL/MOL
REMARK 927      BINDING AFFINITY PREDICTED BY RF-SCORE:    0.00 PKD
ROOT
HETATM    1  C   UNL     1     -13.134  10.850  71.741  1.00  0.00    -0.564 C  
HETATM    2  C   UNL     1     -13.205   9.408  72.212  1.00  0.00    -0.528 C  
ENDROOT
BRANCH   2   3
HETATM    3  C   UNL     1     -11.837   8.738  72.139  1.00  0.00    -0.436 C  
BRANCH   3   4
HETATM    4  C   UNL     1     -10.946   9.416  71.102  1.00  0.00    -0.430 C  
BRANCH   4   5
HETATM    5  C   UNL     1      -9.553   8.793  71.096  1.00  0.00    -0.309 C  
BRANCH   5   6
HETATM    6  C   UNL     1      -9.370   7.885  69.885  1.00  0.00    -0.156 C  
BRANCH   6   7
HETATM    7  C   UNL     1     -10.721   7.440  69.336  1.00  0.00    -0.220 C  
BRANCH   7   8
HETATM    8  C   UNL     1     -10.934   5.952  69.578  1.00  0.00    -0.438 C  
BRANCH   8   9
HETATM    9  C   UNL     1      -9.692   5.161  69.188  1.00  0.00    -0.232 C  
BRANCH   9  10
HETATM   10  C   UNL     1      -9.737   4.789  67.712  1.00  0.00    -0.202 C  
BRANCH  10  11
HETATM   11  C   UNL     1      -8.626   5.497  66.950  1.00  0.00    -0.110 C  
BRANCH  11  12
HETATM   12  C   UNL     1      -9.210   6.493  65.958  1.00  0.00    -0.077 C  
BRANCH  12  13
HETATM   13  C   UNL     1      -8.439   7.803  66.002  1.00  0.00    -0.146 C  
BRANCH  13  14
HETATM   14  C   UNL     1      -9.359   8.953  66.390  1.00  0.00    -0.262 C  
BRANCH  14  15
HETATM   15  C   UNL     1      -8.564  10.079  67.033  1.00  0.00    -0.126 C  
BRANCH  15  16
HETATM   16  C   UNL     1      -9.486  11.010  67.809  1.00  0.00    -0.169 C  
BRANCH  16  17
HETATM   17  C   UNL     1     -10.942  10.595  67.634  1.00  0.00    -0.370 C  
BRANCH  17  18
HETATM   18  C   UNL     1     -11.868  11.790  67.830  1.00  0.00    -0.266 C  
BRANCH  18  19
HETATM   19  C   UNL     1     -11.524  12.909  66.853  1.00  0.00    -0.393 C  
BRANCH  19  20
HETATM   20  C   UNL     1     -11.725  12.449  65.413  1.00  0.00    -0.452 C  
BRANCH  20  21
HETATM   21  C   UNL     1     -11.164  13.469  64.429  1.00  0.00    -0.399 C  
BRANCH  21  22
HETATM   22  C   UNL     1     -11.727  14.859  64.693  1.00  0.00    -0.404 C  
HETATM   23  O   UNL     1     -10.805  15.844  64.246  1.00  0.00    -0.838 OA 
HETATM   24  H   UNL     1     -11.156  16.712  64.411  1.00  0.00     0.000 HD 
ENDBRANCH  21  22
ENDBRANCH  20  21
ENDBRANCH  19  20
ENDBRANCH  18  19
ENDBRANCH  17  18
ENDBRANCH  16  17
ENDBRANCH  15  16
ENDBRANCH  14  15
ENDBRANCH  13  14
ENDBRANCH  12  13
ENDBRANCH  11  12
ENDBRANCH  10  11
ENDBRANCH   9  10
ENDBRANCH   8   9
ENDBRANCH   7   8
ENDBRANCH   6   7
ENDBRANCH   5   6
ENDBRANCH   4   5
ENDBRANCH   3   4
ENDBRANCH   2   3
TORSDOF 20
ENDMDL
MODEL      192
REMARK 921   NORMALIZED FREE ENERGY PREDICTED BY IDOCK:   -3.43 KCAL/MOL
REMARK 922        TOTAL FREE ENERGY PREDICTED BY IDOCK:  -10.30 KCAL/MOL
REMARK 923 INTER-LIGAND FREE ENERGY PREDICTED BY IDOCK:   -8.43 KCAL/MOL
REMARK 924 INTRA-LIGAND FREE ENERGY PREDICTED BY IDOCK:   -1.87 KCAL/MOL
REMARK 927      BINDING AFFINITY PREDICTED BY RF-SCORE:    0.00 PKD
ROOT
HETATM    1  C   UNL     1     -10.795   5.933  66.766  1.00  0.00    -0.347 C  
HETATM    2  C   UNL     1     -10.676   7.404  67.126  1.00  0.00    -0.400 C  
ENDROOT
BRANCH   2   3
HETATM    3  C   UNL     1     -10.417   7.586  68.619  1.00  0.00    -0.207 C  
BRANCH   3   4
HETATM    4  C   UNL     1     -11.002   6.429  69.423  1.00  0.00    -0.421 C  
BRANCH   4   5
HETATM    5  C   UNL     1     -11.635   6.935  70.716  1.00  0.00    -0.397 C  
BRANCH   5   6
HETATM    6  C   UNL     1     -10.594   7.613  71.601  1.00  0.00    -0.233 C  
BRANCH   6   7
HETATM    7  C   UNL     1     -10.982   9.060  71.875  1.00  0.00    -0.423 C  
BRANCH   7   8
HETATM    8  C   UNL     1     -12.496   9.207  71.943  1.00  0.00    -0.459 C  
BRANCH   8   9
HETATM    9  C   UNL     1     -12.996  10.134  70.843  1.00  0.00    -0.432 C  
BRANCH   9  10
HETATM   10  C   UNL     1     -12.480  11.549  71.062  1.00  0.00    -0.458 C  
BRANCH  10  11
HETATM   11  C   UNL     1     -11.651  12.005  69.869  1.00  0.00    -0.315 C  
BRANCH  11  12
HETATM   12  C   UNL     1     -11.935  11.131  68.656  1.00  0.00    -0.289 C  
BRANCH  12  13
HETATM   13  C   UNL     1     -11.348  11.755  67.400  1.00  0.00    -0.376 C  
BRANCH  13  14
HETATM   14  C   UNL     1      -9.945  12.283  67.671  1.00  0.00    -0.199 C  
BRANCH  14  15
HETATM   15  C   UNL     1      -9.643  13.477  66.777  1.00  0.00    -0.268 C  
BRANCH  15  16
HETATM   16  C   UNL     1     -10.927  14.204  66.402  1.00  0.00    -0.311 C  
BRANCH  16  17
HETATM   17  C   UNL     1     -10.618  15.464  65.601  1.00  0.00    -0.379 C  
BRANCH  17  18
HETATM   18  C   UNL     1      -9.534  16.285  66.289  1.00  0.00    -0.347 C  
BRANCH  18  19
HETATM   19  C   UNL     1     -10.094  17.010  67.508  1.00  0.00    -0.294 C  
BRANCH  19  20
HETATM   20  C   UNL     1     -10.651  18.375  67.115  1.00  0.00    -0.416 C  
BRANCH  20  21
HETATM   21  C   UNL     1     -10.339  19.419  68.180  1.00  0.00    -0.525 C  
BRANCH  21  22
HETATM   22  C   UNL     1      -9.293  20.413  67.690  1.00  0.00    -0.320 C  
HETATM   23  O   UNL     1      -9.341  20.501  66.272  1.00  0.00    -0.619 OA 
HETATM   24  H   UNL     1      -8.688  21.121  65.967  1.00  0.00     0.000 HD 
ENDBRANCH  21  22
ENDBRANCH  20  21
ENDBRANCH  19  20
ENDBRANCH  18  19
ENDBRANCH  17  18
ENDBRANCH  16  17
ENDBRANCH  15  16
ENDBRANCH  14  15
ENDBRANCH  13  14
ENDBRANCH  12  13
ENDBRANCH  11  12
ENDBRANCH  10  11
ENDBRANCH   9  10
ENDBRANCH   8   9
ENDBRANCH   7   8
ENDBRANCH   6   7
ENDBRANCH   5   6
ENDBRANCH   4   5
ENDBRANCH   3   4
ENDBRANCH   2   3
TORSDOF 20
ENDMDL
MODEL      193
REMARK 921   NORMALIZED FREE ENERGY PREDICTED BY IDOCK:   -3.43 KCAL/MOL
REMARK 922        TOTAL FREE ENERGY PREDICTED BY IDOCK:  -10.30 KCAL/MOL
REMARK 923 INTER-LIGAND FREE ENERGY PREDICTED BY IDOCK:   -8.24 KCAL/MOL
REMARK 924 INTRA-LIGAND FREE ENERGY PREDICTED BY IDOCK:   -2.06 KCAL/MOL
REMARK 927      BINDING AFFINITY PREDICTED BY RF-SCORE:    0.00 PKD
ROOT
HETATM    1  C   UNL     1      -7.803   7.442  64.237  1.00  0.00    -0.127 C  
HETATM    2  C   UNL     1      -8.083   7.929  65.649  1.00  0.00    -0.130 C  
ENDROOT
BRANCH   2   3
HETATM    3  C   UNL     1      -9.189   7.108  66.305  1.00  0.00    -0.169 C  
BRANCH   3   4
HETATM    4  C   UNL     1     -10.217   8.011  66.981  1.00  0.00    -0.374 C  
BRANCH   4   5
HETATM    5  C   UNL     1     -10.358   7.656  68.458  1.00  0.00    -0.225 C  
BRANCH   5   6
HETATM    6  C   UNL     1     -11.022   6.294  68.628  1.00  0.00    -0.423 C  
BRANCH   6   7
HETATM    7  C   UNL     1     -10.603   5.651  69.944  1.00  0.00    -0.399 C  
BRANCH   7   8
HETATM    8  C   UNL     1     -10.748   6.640  71.094  1.00  0.00    -0.274 C  
BRANCH   8   9
HETATM    9  C   UNL     1     -12.027   6.370  71.875  1.00  0.00    -0.381 C  
BRANCH   9  10
HETATM   10  C   UNL     1     -12.935   7.592  71.851  1.00  0.00    -0.298 C  
BRANCH  10  11
HETATM   11  C   UNL     1     -12.111   8.871  71.913  1.00  0.00    -0.443 C  
BRANCH  11  12
HETATM   12  C   UNL     1     -13.022  10.088  71.995  1.00  0.00    -0.514 C  
BRANCH  12  13
HETATM   13  C   UNL     1     -12.426  11.252  71.218  1.00  0.00    -0.441 C  
BRANCH  13  14
HETATM   14  C   UNL     1     -11.568  10.744  70.066  1.00  0.00    -0.417 C  
BRANCH  14  15
HETATM   15  C   UNL     1     -11.919  11.473  68.778  1.00  0.00    -0.335 C  
BRANCH  15  16
HETATM   16  C   UNL     1     -11.453  12.921  68.838  1.00  0.00    -0.350 C  
BRANCH  16  17
HETATM   17  C   UNL     1     -11.335  13.507  67.436  1.00  0.00    -0.338 C  
BRANCH  17  18
HETATM   18  C   UNL     1      -9.873  13.605  67.016  1.00  0.00    -0.251 C  
BRANCH  18  19
HETATM   19  C   UNL     1      -9.539  12.552  65.965  1.00  0.00    -0.205 C  
BRANCH  19  20
HETATM   20  C   UNL     1     -10.812  11.947  65.384  1.00  0.00    -0.343 C  
BRANCH  20  21
HETATM   21  C   UNL     1     -11.031  12.409  63.948  1.00  0.00    -0.467 C  
BRANCH  21  22
HETATM   22  C   UNL     1     -12.502  12.331  63.560  1.00  0.00    -0.534 C  
HETATM   23  O   UNL     1     -12.695  11.285  62.617  1.00  0.00    -0.801 OA 
HETATM   24  H   UNL     1     -13.613  11.237  62.375  1.00  0.00     0.000 HD 
ENDBRANCH  21  22
ENDBRANCH  20  21
ENDBRANCH  19  20
ENDBRANCH  18  19
ENDBRANCH  17  18
ENDBRANCH  16  17
ENDBRANCH  15  16
ENDBRANCH  14  15
ENDBRANCH  13  14
ENDBRANCH  12  13
ENDBRANCH  11  12
ENDBRANCH  10  11
ENDBRANCH   9  10
ENDBRANCH   8   9
ENDBRANCH   7   8
ENDBRANCH   6   7
ENDBRANCH   5   6
ENDBRANCH   4   5
ENDBRANCH   3   4
ENDBRANCH   2   3
TORSDOF 20
ENDMDL
MODEL      194
REMARK 921   NORMALIZED FREE ENERGY PREDICTED BY IDOCK:   -3.42 KCAL/MOL
REMARK 922        TOTAL FREE ENERGY PREDICTED BY IDOCK:  -10.29 KCAL/MOL
REMARK 923 INTER-LIGAND FREE ENERGY PREDICTED BY IDOCK:   -7.95 KCAL/MOL
REMARK 924 INTRA-LIGAND FREE ENERGY PREDICTED BY IDOCK:   -2.34 KCAL/MOL
REMARK 927      BINDING AFFINITY PREDICTED BY RF-SCORE:    0.00 PKD
ROOT
HETATM    1  C   UNL     1     -10.634   5.162  66.300  1.00  0.00    -0.325 C  
HETATM    2  C   UNL     1     -10.698   6.005  67.563  1.00  0.00    -0.383 C  
ENDROOT
BRANCH   2   3
HETATM    3  C   UNL     1      -9.672   7.133  67.523  1.00  0.00    -0.176 C  
BRANCH   3   4
HETATM    4  C   UNL     1     -10.051   8.186  66.485  1.00  0.00    -0.286 C  
BRANCH   4   5
HETATM    5  C   UNL     1     -10.440   9.496  67.163  1.00  0.00    -0.322 C  
BRANCH   5   6
HETATM    6  C   UNL     1      -9.946   9.530  68.605  1.00  0.00    -0.181 C  
BRANCH   6   7
HETATM    7  C   UNL     1     -10.082  10.931  69.188  1.00  0.00    -0.198 C  
BRANCH   7   8
HETATM    8  C   UNL     1     -11.541  11.245  69.494  1.00  0.00    -0.398 C  
BRANCH   8   9
HETATM    9  C   UNL     1     -11.916  12.622  68.963  1.00  0.00    -0.282 C  
BRANCH   9  10
HETATM   10  C   UNL     1     -12.170  13.587  70.112  1.00  0.00    -0.400 C  
BRANCH  10  11
HETATM   11  C   UNL     1     -12.000  15.027  69.647  1.00  0.00    -0.356 C  
BRANCH  11  12
HETATM   12  C   UNL     1     -10.608  15.538  69.993  1.00  0.00    -0.337 C  
BRANCH  12  13
HETATM   13  C   UNL     1     -10.396  16.931  69.421  1.00  0.00    -0.250 C  
BRANCH  13  14
HETATM   14  C   UNL     1      -9.406  16.890  68.264  1.00  0.00    -0.248 C  
BRANCH  14  15
HETATM   15  C   UNL     1     -10.112  17.183  66.948  1.00  0.00    -0.298 C  
BRANCH  15  16
HETATM   16  C   UNL     1      -9.686  16.185  65.879  1.00  0.00    -0.374 C  
BRANCH  16  17
HETATM   17  C   UNL     1      -9.038  14.960  66.514  1.00  0.00    -0.309 C  
BRANCH  17  18
HETATM   18  C   UNL     1      -9.938  13.740  66.367  1.00  0.00    -0.301 C  
BRANCH  18  19
HETATM   19  C   UNL     1     -10.875  13.896  65.174  1.00  0.00    -0.364 C  
BRANCH  19  20
HETATM   20  C   UNL     1     -11.861  12.735  65.106  1.00  0.00    -0.428 C  
BRANCH  20  21
HETATM   21  C   UNL     1     -11.769  12.017  63.765  1.00  0.00    -0.575 C  
BRANCH  21  22
HETATM   22  C   UNL     1     -10.331  11.629  63.443  1.00  0.00    -0.435 C  
HETATM   23  O   UNL     1     -10.319  10.582  62.482  1.00  0.00    -0.722 OA 
HETATM   24  H   UNL     1      -9.422  10.341  62.282  1.00  0.00     0.000 HD 
ENDBRANCH  21  22
ENDBRANCH  20  21
ENDBRANCH  19  20
ENDBRANCH  18  19
ENDBRANCH  17  18
ENDBRANCH  16  17
ENDBRANCH  15  16
ENDBRANCH  14  15
ENDBRANCH  13  14
ENDBRANCH  12  13
ENDBRANCH  11  12
ENDBRANCH  10  11
ENDBRANCH   9  10
ENDBRANCH   8   9
ENDBRANCH   7   8
ENDBRANCH   6   7
ENDBRANCH   5   6
ENDBRANCH   4   5
ENDBRANCH   3   4
ENDBRANCH   2   3
TORSDOF 20
ENDMDL
MODEL      195
REMARK 921   NORMALIZED FREE ENERGY PREDICTED BY IDOCK:   -3.42 KCAL/MOL
REMARK 922        TOTAL FREE ENERGY PREDICTED BY IDOCK:  -10.28 KCAL/MOL
REMARK 923 INTER-LIGAND FREE ENERGY PREDICTED BY IDOCK:   -7.15 KCAL/MOL
REMARK 924 INTRA-LIGAND FREE ENERGY PREDICTED BY IDOCK:   -3.13 KCAL/MOL
REMARK 927      BINDING AFFINITY PREDICTED BY RF-SCORE:    0.00 PKD
ROOT
HETATM    1  C   UNL     1     -10.901  15.542  65.079  1.00  0.00    -0.468 C  
HETATM    2  C   UNL     1     -10.481  14.084  65.010  1.00  0.00    -0.440 C  
ENDROOT
BRANCH   2   3
HETATM    3  C   UNL     1     -10.681  13.390  66.355  1.00  0.00    -0.289 C  
BRANCH   3   4
HETATM    4  C   UNL     1     -11.932  13.906  67.059  1.00  0.00    -0.459 C  
BRANCH   4   5
HETATM    5  C   UNL     1     -11.895  13.563  68.545  1.00  0.00    -0.398 C  
BRANCH   5   6
HETATM    6  C   UNL     1     -11.053  12.317  68.794  1.00  0.00    -0.295 C  
BRANCH   6   7
HETATM    7  C   UNL     1     -11.941  11.125  69.130  1.00  0.00    -0.413 C  
BRANCH   7   8
HETATM    8  C   UNL     1     -11.664  10.631  70.544  1.00  0.00    -0.451 C  
BRANCH   8   9
HETATM    9  C   UNL     1     -12.925  10.704  71.395  1.00  0.00    -0.545 C  
BRANCH   9  10
HETATM   10  C   UNL     1     -13.107   9.420  72.192  1.00  0.00    -0.526 C  
BRANCH  10  11
HETATM   11  C   UNL     1     -11.952   8.462  71.933  1.00  0.00    -0.397 C  
BRANCH  11  12
HETATM   12  C   UNL     1     -12.463   7.166  71.320  1.00  0.00    -0.425 C  
BRANCH  12  13
HETATM   13  C   UNL     1     -11.572   6.738  70.164  1.00  0.00    -0.397 C  
BRANCH  13  14
HETATM   14  C   UNL     1     -10.104   6.936  70.517  1.00  0.00    -0.201 C  
BRANCH  14  15
HETATM   15  C   UNL     1      -9.427   7.838  69.496  1.00  0.00    -0.160 C  
BRANCH  15  16
HETATM   16  C   UNL     1     -10.278   7.959  68.239  1.00  0.00    -0.240 C  
BRANCH  16  17
HETATM   17  C   UNL     1      -9.595   7.279  67.059  1.00  0.00    -0.213 C  
BRANCH  17  18
HETATM   18  C   UNL     1      -9.507   8.228  65.869  1.00  0.00    -0.125 C  
BRANCH  18  19
HETATM   19  C   UNL     1      -9.797   9.663  66.297  1.00  0.00    -0.323 C  
BRANCH  19  20
HETATM   20  C   UNL     1      -8.561  10.539  66.118  1.00  0.00    -0.155 C  
BRANCH  20  21
HETATM   21  C   UNL     1      -7.969  10.931  67.466  1.00  0.00    -0.115 C  
BRANCH  21  22
HETATM   22  C   UNL     1      -6.809  10.020  67.846  1.00  0.00    -0.075 C  
HETATM   23  O   UNL     1      -6.002  10.654  68.830  1.00  0.00    -0.041 OA 
HETATM   24  H   UNL     1      -5.278  10.086  69.067  1.00  0.00     0.000 HD 
ENDBRANCH  21  22
ENDBRANCH  20  21
ENDBRANCH  19  20
ENDBRANCH  18  19
ENDBRANCH  17  18
ENDBRANCH  16  17
ENDBRANCH  15  16
ENDBRANCH  14  15
ENDBRANCH  13  14
ENDBRANCH  12  13
ENDBRANCH  11  12
ENDBRANCH  10  11
ENDBRANCH   9  10
ENDBRANCH   8   9
ENDBRANCH   7   8
ENDBRANCH   6   7
ENDBRANCH   5   6
ENDBRANCH   4   5
ENDBRANCH   3   4
ENDBRANCH   2   3
TORSDOF 20
ENDMDL
MODEL      196
REMARK 921   NORMALIZED FREE ENERGY PREDICTED BY IDOCK:   -3.41 KCAL/MOL
REMARK 922        TOTAL FREE ENERGY PREDICTED BY IDOCK:  -10.27 KCAL/MOL
REMARK 923 INTER-LIGAND FREE ENERGY PREDICTED BY IDOCK:   -8.06 KCAL/MOL
REMARK 924 INTRA-LIGAND FREE ENERGY PREDICTED BY IDOCK:   -2.21 KCAL/MOL
REMARK 927      BINDING AFFINITY PREDICTED BY RF-SCORE:    0.00 PKD
ROOT
HETATM    1  C   UNL     1     -10.543  19.800  65.878  1.00  0.00    -0.557 C  
HETATM    2  C   UNL     1     -10.721  19.005  67.160  1.00  0.00    -0.541 C  
ENDROOT
BRANCH   2   3
HETATM    3  C   UNL     1     -10.078  19.722  68.344  1.00  0.00    -0.568 C  
BRANCH   3   4
HETATM    4  C   UNL     1      -8.802  19.014  68.789  1.00  0.00    -0.352 C  
BRANCH   4   5
HETATM    5  C   UNL     1      -7.636  19.374  67.873  1.00  0.00    -0.316 C  
BRANCH   5   6
HETATM    6  C   UNL     1      -6.876  18.124  67.444  1.00  0.00    -0.206 C  
BRANCH   6   7
HETATM    7  C   UNL     1      -7.434  17.576  66.136  1.00  0.00    -0.334 C  
BRANCH   7   8
HETATM    8  C   UNL     1      -8.291  16.343  66.393  1.00  0.00    -0.363 C  
BRANCH   8   9
HETATM    9  C   UNL     1      -7.626  15.432  67.416  1.00  0.00    -0.233 C  
BRANCH   9  10
HETATM   10  C   UNL     1      -8.601  15.075  68.529  1.00  0.00    -0.166 C  
BRANCH  10  11
HETATM   11  C   UNL     1     -10.038  15.234  68.050  1.00  0.00    -0.229 C  
BRANCH  11  12
HETATM   12  C   UNL     1     -10.898  15.855  69.141  1.00  0.00    -0.268 C  
BRANCH  12  13
HETATM   13  C   UNL     1     -12.118  14.989  69.414  1.00  0.00    -0.290 C  
BRANCH  13  14
HETATM   14  C   UNL     1     -12.306  14.786  70.912  1.00  0.00    -0.388 C  
BRANCH  14  15
HETATM   15  C   UNL     1     -12.861  13.398  71.197  1.00  0.00    -0.372 C  
BRANCH  15  16
HETATM   16  C   UNL     1     -12.052  12.337  70.464  1.00  0.00    -0.371 C  
BRANCH  16  17
HETATM   17  C   UNL     1     -12.846  11.041  70.344  1.00  0.00    -0.221 C  
BRANCH  17  18
HETATM   18  C   UNL     1     -12.720  10.214  71.618  1.00  0.00    -0.549 C  
BRANCH  18  19
HETATM   19  C   UNL     1     -11.448   9.373  71.594  1.00  0.00    -0.463 C  
BRANCH  19  20
HETATM   20  C   UNL     1     -11.576   8.175  72.530  1.00  0.00    -0.468 C  
BRANCH  20  21
HETATM   21  C   UNL     1     -10.205   7.625  72.904  1.00  0.00    -0.356 C  
BRANCH  21  22
HETATM   22  C   UNL     1     -10.326   6.406  73.809  1.00  0.00    -0.311 C  
HETATM   23  O   UNL     1      -9.628   5.309  73.234  1.00  0.00    -0.141 OA 
HETATM   24  H   UNL     1      -9.704   4.549  73.798  1.00  0.00     0.000 HD 
ENDBRANCH  21  22
ENDBRANCH  20  21
ENDBRANCH  19  20
ENDBRANCH  18  19
ENDBRANCH  17  18
ENDBRANCH  16  17
ENDBRANCH  15  16
ENDBRANCH  14  15
ENDBRANCH  13  14
ENDBRANCH  12  13
ENDBRANCH  11  12
ENDBRANCH  10  11
ENDBRANCH   9  10
ENDBRANCH   8   9
ENDBRANCH   7   8
ENDBRANCH   6   7
ENDBRANCH   5   6
ENDBRANCH   4   5
ENDBRANCH   3   4
ENDBRANCH   2   3
TORSDOF 20
ENDMDL
MODEL      197
REMARK 921   NORMALIZED FREE ENERGY PREDICTED BY IDOCK:   -3.41 KCAL/MOL
REMARK 922        TOTAL FREE ENERGY PREDICTED BY IDOCK:  -10.27 KCAL/MOL
REMARK 923 INTER-LIGAND FREE ENERGY PREDICTED BY IDOCK:   -8.05 KCAL/MOL
REMARK 924 INTRA-LIGAND FREE ENERGY PREDICTED BY IDOCK:   -2.22 KCAL/MOL
REMARK 927      BINDING AFFINITY PREDICTED BY RF-SCORE:    0.00 PKD
ROOT
HETATM    1  C   UNL     1     -10.426  15.232  65.112  1.00  0.00    -0.438 C  
HETATM    2  C   UNL     1     -11.934  15.209  64.927  1.00  0.00    -0.185 C  
ENDROOT
BRANCH   2   3
HETATM    3  C   UNL     1     -12.465  13.779  64.914  1.00  0.00    -0.420 C  
BRANCH   3   4
HETATM    4  C   UNL     1     -12.144  13.085  63.593  1.00  0.00    -0.604 C  
BRANCH   4   5
HETATM    5  C   UNL     1     -11.795  11.618  63.824  1.00  0.00    -0.382 C  
BRANCH   5   6
HETATM    6  C   UNL     1     -10.345  11.339  63.440  1.00  0.00    -0.449 C  
BRANCH   6   7
HETATM    7  C   UNL     1      -9.624  10.605  64.563  1.00  0.00    -0.341 C  
BRANCH   7   8
HETATM    8  C   UNL     1     -10.262  10.922  65.909  1.00  0.00    -0.314 C  
BRANCH   8   9
HETATM    9  C   UNL     1      -9.451  11.975  66.653  1.00  0.00    -0.222 C  
BRANCH   9  10
HETATM   10  C   UNL     1     -10.265  12.570  67.793  1.00  0.00    -0.217 C  
BRANCH  10  11
HETATM   11  C   UNL     1     -11.536  11.764  68.019  1.00  0.00    -0.386 C  
BRANCH  11  12
HETATM   12  C   UNL     1     -11.541  11.155  69.414  1.00  0.00    -0.388 C  
BRANCH  12  13
HETATM   13  C   UNL     1     -12.385  11.997  70.359  1.00  0.00    -0.317 C  
BRANCH  13  14
HETATM   14  C   UNL     1     -12.828  11.172  71.560  1.00  0.00    -0.542 C  
BRANCH  14  15
HETATM   15  C   UNL     1     -12.371   9.728  71.414  1.00  0.00    -0.480 C  
BRANCH  15  16
HETATM   16  C   UNL     1     -13.265   8.799  72.224  1.00  0.00    -0.456 C  
BRANCH  16  17
HETATM   17  C   UNL     1     -13.410   7.450  71.529  1.00  0.00    -0.435 C  
BRANCH  17  18
HETATM   18  C   UNL     1     -12.041   6.835  71.261  1.00  0.00    -0.421 C  
BRANCH  18  19
HETATM   19  C   UNL     1     -11.603   5.957  72.428  1.00  0.00    -0.341 C  
BRANCH  19  20
HETATM   20  C   UNL     1     -10.153   5.518  72.259  1.00  0.00    -0.225 C  
BRANCH  20  21
HETATM   21  C   UNL     1      -9.992   4.621  71.038  1.00  0.00    -0.270 C  
BRANCH  21  22
HETATM   22  C   UNL     1      -8.649   4.849  70.357  1.00  0.00    -0.099 C  
HETATM   23  O   UNL     1      -8.134   6.122  70.724  1.00  0.00    -0.119 OA 
HETATM   24  H   UNL     1      -7.296   6.265  70.299  1.00  0.00     0.000 HD 
ENDBRANCH  21  22
ENDBRANCH  20  21
ENDBRANCH  19  20
ENDBRANCH  18  19
ENDBRANCH  17  18
ENDBRANCH  16  17
ENDBRANCH  15  16
ENDBRANCH  14  15
ENDBRANCH  13  14
ENDBRANCH  12  13
ENDBRANCH  11  12
ENDBRANCH  10  11
ENDBRANCH   9  10
ENDBRANCH   8   9
ENDBRANCH   7   8
ENDBRANCH   6   7
ENDBRANCH   5   6
ENDBRANCH   4   5
ENDBRANCH   3   4
ENDBRANCH   2   3
TORSDOF 20
ENDMDL
MODEL      198
REMARK 921   NORMALIZED FREE ENERGY PREDICTED BY IDOCK:   -3.41 KCAL/MOL
REMARK 922        TOTAL FREE ENERGY PREDICTED BY IDOCK:  -10.26 KCAL/MOL
REMARK 923 INTER-LIGAND FREE ENERGY PREDICTED BY IDOCK:   -7.72 KCAL/MOL
REMARK 924 INTRA-LIGAND FREE ENERGY PREDICTED BY IDOCK:   -2.54 KCAL/MOL
REMARK 927      BINDING AFFINITY PREDICTED BY RF-SCORE:    0.00 PKD
ROOT
HETATM    1  C   UNL     1     -13.216  10.815  71.974  1.00  0.00    -0.466 C  
HETATM    2  C   UNL     1     -13.338   9.344  72.334  1.00  0.00    -0.503 C  
ENDROOT
BRANCH   2   3
HETATM    3  C   UNL     1     -14.015   8.559  71.214  1.00  0.00    -0.240 C  
BRANCH   3   4
HETATM    4  C   UNL     1     -13.845   7.056  71.416  1.00  0.00    -0.307 C  
BRANCH   4   5
HETATM    5  C   UNL     1     -12.374   6.699  71.604  1.00  0.00    -0.382 C  
BRANCH   5   6
HETATM    6  C   UNL     1     -11.634   6.725  70.271  1.00  0.00    -0.417 C  
BRANCH   6   7
HETATM    7  C   UNL     1     -10.296   7.440  70.412  1.00  0.00    -0.215 C  
BRANCH   7   8
HETATM    8  C   UNL     1     -10.163   8.540  69.367  1.00  0.00    -0.211 C  
BRANCH   8   9
HETATM    9  C   UNL     1     -10.322   9.912  70.009  1.00  0.00    -0.320 C  
BRANCH   9  10
HETATM   10  C   UNL     1     -10.335  11.001  68.946  1.00  0.00    -0.223 C  
BRANCH  10  11
HETATM   11  C   UNL     1     -11.765  11.392  68.599  1.00  0.00    -0.394 C  
BRANCH  11  12
HETATM   12  C   UNL     1     -11.882  12.901  68.444  1.00  0.00    -0.357 C  
BRANCH  12  13
HETATM   13  C   UNL     1     -11.948  13.574  69.806  1.00  0.00    -0.405 C  
BRANCH  13  14
HETATM   14  C   UNL     1     -11.477  15.019  69.713  1.00  0.00    -0.324 C  
BRANCH  14  15
HETATM   15  C   UNL     1     -10.190  15.111  68.908  1.00  0.00    -0.236 C  
BRANCH  15  16
HETATM   16  C   UNL     1     -10.167  16.389  68.078  1.00  0.00    -0.264 C  
BRANCH  16  17
HETATM   17  C   UNL     1     -10.550  16.098  66.632  1.00  0.00    -0.274 C  
BRANCH  17  18
HETATM   18  C   UNL     1     -10.088  14.705  66.223  1.00  0.00    -0.307 C  
BRANCH  18  19
HETATM   19  C   UNL     1     -10.665  14.319  64.866  1.00  0.00    -0.448 C  
BRANCH  19  20
HETATM   20  C   UNL     1     -11.218  12.898  64.899  1.00  0.00    -0.331 C  
BRANCH  20  21
HETATM   21  C   UNL     1     -10.807  12.122  63.653  1.00  0.00    -0.523 C  
BRANCH  21  22
HETATM   22  C   UNL     1     -10.050  10.852  64.017  1.00  0.00    -0.358 C  
HETATM   23  O   UNL     1      -9.728  10.864  65.402  1.00  0.00    -0.210 OA 
HETATM   24  H   UNL     1      -9.256  10.071  65.629  1.00  0.00     0.000 HD 
ENDBRANCH  21  22
ENDBRANCH  20  21
ENDBRANCH  19  20
ENDBRANCH  18  19
ENDBRANCH  17  18
ENDBRANCH  16  17
ENDBRANCH  15  16
ENDBRANCH  14  15
ENDBRANCH  13  14
ENDBRANCH  12  13
ENDBRANCH  11  12
ENDBRANCH  10  11
ENDBRANCH   9  10
ENDBRANCH   8   9
ENDBRANCH   7   8
ENDBRANCH   6   7
ENDBRANCH   5   6
ENDBRANCH   4   5
ENDBRANCH   3   4
ENDBRANCH   2   3
TORSDOF 20
ENDMDL
MODEL      199
REMARK 921   NORMALIZED FREE ENERGY PREDICTED BY IDOCK:   -3.40 KCAL/MOL
REMARK 922        TOTAL FREE ENERGY PREDICTED BY IDOCK:  -10.24 KCAL/MOL
REMARK 923 INTER-LIGAND FREE ENERGY PREDICTED BY IDOCK:   -7.31 KCAL/MOL
REMARK 924 INTRA-LIGAND FREE ENERGY PREDICTED BY IDOCK:   -2.93 KCAL/MOL
REMARK 927      BINDING AFFINITY PREDICTED BY RF-SCORE:    0.00 PKD
ROOT
HETATM    1  C   UNL     1      -9.050   8.647  69.672  1.00  0.00    -0.149 C  
HETATM    2  C   UNL     1      -8.906   9.091  71.118  1.00  0.00    -0.282 C  
ENDROOT
BRANCH   2   3
HETATM    3  C   UNL     1      -8.297   7.984  71.974  1.00  0.00    -0.179 C  
BRANCH   3   4
HETATM    4  C   UNL     1      -8.987   7.897  73.333  1.00  0.00    -0.339 C  
BRANCH   4   5
HETATM    5  C   UNL     1      -9.933   6.701  73.382  1.00  0.00    -0.231 C  
BRANCH   5   6
HETATM    6  C   UNL     1      -9.865   5.901  72.086  1.00  0.00    -0.185 C  
BRANCH   6   7
HETATM    7  C   UNL     1     -11.201   5.945  71.355  1.00  0.00    -0.285 C  
BRANCH   7   8
HETATM    8  C   UNL     1     -12.148   6.929  72.029  1.00  0.00    -0.331 C  
BRANCH   8   9
HETATM    9  C   UNL     1     -12.505   8.066  71.081  1.00  0.00    -0.206 C  
BRANCH   9  10
HETATM   10  C   UNL     1     -12.422   9.406  71.797  1.00  0.00    -0.471 C  
BRANCH  10  11
HETATM   11  C   UNL     1     -12.943  10.523  70.904  1.00  0.00    -0.455 C  
BRANCH  11  12
HETATM   12  C   UNL     1     -11.788  11.248  70.228  1.00  0.00    -0.446 C  
BRANCH  12  13
HETATM   13  C   UNL     1     -11.967  11.242  68.718  1.00  0.00    -0.350 C  
BRANCH  13  14
HETATM   14  C   UNL     1     -10.641  11.520  68.020  1.00  0.00    -0.222 C  
BRANCH  14  15
HETATM   15  C   UNL     1     -10.714  12.820  67.234  1.00  0.00    -0.256 C  
BRANCH  15  16
HETATM   16  C   UNL     1     -12.163  13.246  67.037  1.00  0.00    -0.310 C  
BRANCH  16  17
HETATM   17  C   UNL     1     -12.509  13.308  65.554  1.00  0.00    -0.531 C  
BRANCH  17  18
HETATM   18  C   UNL     1     -11.258  13.130  64.702  1.00  0.00    -0.366 C  
BRANCH  18  19
HETATM   19  C   UNL     1     -11.500  12.117  63.588  1.00  0.00    -0.566 C  
BRANCH  19  20
HETATM   20  C   UNL     1     -10.266  11.248  63.371  1.00  0.00    -0.454 C  
BRANCH  20  21
HETATM   21  C   UNL     1      -9.995  10.371  64.588  1.00  0.00    -0.408 C  
BRANCH  21  22
HETATM   22  C   UNL     1      -8.516  10.378  64.956  1.00  0.00    -0.176 C  
HETATM   23  O   UNL     1      -8.311   9.617  66.139  1.00  0.00    -0.117 OA 
HETATM   24  H   UNL     1      -7.389   9.621  66.368  1.00  0.00     0.000 HD 
ENDBRANCH  21  22
ENDBRANCH  20  21
ENDBRANCH  19  20
ENDBRANCH  18  19
ENDBRANCH  17  18
ENDBRANCH  16  17
ENDBRANCH  15  16
ENDBRANCH  14  15
ENDBRANCH  13  14
ENDBRANCH  12  13
ENDBRANCH  11  12
ENDBRANCH  10  11
ENDBRANCH   9  10
ENDBRANCH   8   9
ENDBRANCH   7   8
ENDBRANCH   6   7
ENDBRANCH   5   6
ENDBRANCH   4   5
ENDBRANCH   3   4
ENDBRANCH   2   3
TORSDOF 20
ENDMDL
MODEL      200
REMARK 921   NORMALIZED FREE ENERGY PREDICTED BY IDOCK:   -3.40 KCAL/MOL
REMARK 922        TOTAL FREE ENERGY PREDICTED BY IDOCK:  -10.24 KCAL/MOL
REMARK 923 INTER-LIGAND FREE ENERGY PREDICTED BY IDOCK:   -8.43 KCAL/MOL
REMARK 924 INTRA-LIGAND FREE ENERGY PREDICTED BY IDOCK:   -1.81 KCAL/MOL
REMARK 927      BINDING AFFINITY PREDICTED BY RF-SCORE:    0.00 PKD
ROOT
HETATM    1  C   UNL     1     -13.194  10.453  71.742  1.00  0.00    -0.529 C  
HETATM    2  C   UNL     1     -13.071   8.974  72.069  1.00  0.00    -0.474 C  
ENDROOT
BRANCH   2   3
HETATM    3  C   UNL     1     -11.609   8.539  72.106  1.00  0.00    -0.447 C  
BRANCH   3   4
HETATM    4  C   UNL     1     -11.484   7.022  71.994  1.00  0.00    -0.308 C  
BRANCH   4   5
HETATM    5  C   UNL     1     -10.448   6.642  70.940  1.00  0.00    -0.249 C  
BRANCH   5   6
HETATM    6  C   UNL     1     -10.716   7.370  69.628  1.00  0.00    -0.245 C  
BRANCH   6   7
HETATM    7  C   UNL     1     -10.948   6.375  68.498  1.00  0.00    -0.396 C  
BRANCH   7   8
HETATM    8  C   UNL     1     -10.550   6.982  67.159  1.00  0.00    -0.412 C  
BRANCH   8   9
HETATM    9  C   UNL     1      -9.135   6.566  66.780  1.00  0.00    -0.153 C  
BRANCH   9  10
HETATM   10  C   UNL     1      -8.519   7.574  65.821  1.00  0.00    -0.151 C  
BRANCH  10  11
HETATM   11  C   UNL     1      -9.199   8.929  65.962  1.00  0.00    -0.287 C  
BRANCH  11  12
HETATM   12  C   UNL     1      -9.105   9.711  64.660  1.00  0.00    -0.286 C  
BRANCH  12  13
HETATM   13  C   UNL     1     -10.372  10.522  64.433  1.00  0.00    -0.244 C  
BRANCH  13  14
HETATM   14  C   UNL     1     -10.348  11.796  65.268  1.00  0.00    -0.317 C  
BRANCH  14  15
HETATM   15  C   UNL     1     -11.727  12.439  65.300  1.00  0.00    -0.437 C  
BRANCH  15  16
HETATM   16  C   UNL     1     -12.017  13.015  66.679  1.00  0.00    -0.453 C  
BRANCH  16  17
HETATM   17  C   UNL     1     -11.712  11.990  67.766  1.00  0.00    -0.379 C  
BRANCH  17  18
HETATM   18  C   UNL     1     -11.770  12.636  69.145  1.00  0.00    -0.375 C  
BRANCH  18  19
HETATM   19  C   UNL     1     -11.328  14.094  69.081  1.00  0.00    -0.318 C  
BRANCH  19  20
HETATM   20  C   UNL     1     -12.246  14.974  69.923  1.00  0.00    -0.351 C  
BRANCH  20  21
HETATM   21  C   UNL     1     -12.438  14.388  71.316  1.00  0.00    -0.423 C  
BRANCH  21  22
HETATM   22  C   UNL     1     -13.854  14.623  71.825  1.00  0.00    -0.443 C  
HETATM   23  O   UNL     1     -14.235  13.564  72.694  1.00  0.00    -0.751 OA 
HETATM   24  H   UNL     1     -15.119  13.711  73.011  1.00  0.00     0.000 HD 
ENDBRANCH  21  22
ENDBRANCH  20  21
ENDBRANCH  19  20
ENDBRANCH  18  19
ENDBRANCH  17  18
ENDBRANCH  16  17
ENDBRANCH  15  16
ENDBRANCH  14  15
ENDBRANCH  13  14
ENDBRANCH  12  13
ENDBRANCH  11  12
ENDBRANCH  10  11
ENDBRANCH   9  10
ENDBRANCH   8   9
ENDBRANCH   7   8
ENDBRANCH   6   7
ENDBRANCH   5   6
ENDBRANCH   4   5
ENDBRANCH   3   4
ENDBRANCH   2   3
TORSDOF 20
ENDMDL
MODEL      201
REMARK 921   NORMALIZED FREE ENERGY PREDICTED BY IDOCK:   -3.39 KCAL/MOL
REMARK 922        TOTAL FREE ENERGY PREDICTED BY IDOCK:  -10.22 KCAL/MOL
REMARK 923 INTER-LIGAND FREE ENERGY PREDICTED BY IDOCK:   -6.50 KCAL/MOL
REMARK 924 INTRA-LIGAND FREE ENERGY PREDICTED BY IDOCK:   -3.72 KCAL/MOL
REMARK 927      BINDING AFFINITY PREDICTED BY RF-SCORE:    0.00 PKD
ROOT
HETATM    1  C   UNL     1     -12.571  12.072  63.611  1.00  0.00    -0.605 C  
HETATM    2  C   UNL     1     -11.173  12.661  63.686  1.00  0.00    -0.525 C  
ENDROOT
BRANCH   2   3
HETATM    3  C   UNL     1     -10.884  13.218  65.076  1.00  0.00    -0.335 C  
BRANCH   3   4
HETATM    4  C   UNL     1     -12.101  13.080  65.988  1.00  0.00    -0.493 C  
BRANCH   4   5
HETATM    5  C   UNL     1     -11.764  12.237  67.214  1.00  0.00    -0.394 C  
BRANCH   5   6
HETATM    6  C   UNL     1     -11.414  13.124  68.404  1.00  0.00    -0.350 C  
BRANCH   6   7
HETATM    7  C   UNL     1     -12.059  14.497  68.259  1.00  0.00    -0.234 C  
BRANCH   7   8
HETATM    8  C   UNL     1     -11.120  15.587  68.759  1.00  0.00    -0.291 C  
BRANCH   8   9
HETATM    9  C   UNL     1      -9.788  15.525  68.023  1.00  0.00    -0.212 C  
BRANCH   9  10
HETATM   10  C   UNL     1      -8.633  15.473  69.013  1.00  0.00    -0.234 C  
BRANCH  10  11
HETATM   11  C   UNL     1      -7.777  14.237  68.771  1.00  0.00    -0.134 C  
BRANCH  11  12
HETATM   12  C   UNL     1      -7.986  13.713  67.357  1.00  0.00    -0.177 C  
BRANCH  12  13
HETATM   13  C   UNL     1      -8.011  12.193  67.351  1.00  0.00    -0.168 C  
BRANCH  13  14
HETATM   14  C   UNL     1      -7.313  11.640  68.587  1.00  0.00    -0.111 C  
BRANCH  14  15
HETATM   15  C   UNL     1      -7.790  10.227  68.883  1.00  0.00    -0.106 C  
BRANCH  15  16
HETATM   16  C   UNL     1      -9.227  10.242  69.388  1.00  0.00    -0.206 C  
BRANCH  16  17
HETATM   17  C   UNL     1      -9.955   8.967  68.978  1.00  0.00    -0.191 C  
BRANCH  17  18
HETATM   18  C   UNL     1     -10.437   9.065  67.535  1.00  0.00    -0.338 C  
BRANCH  18  19
HETATM   19  C   UNL     1      -9.810   7.970  66.679  1.00  0.00    -0.322 C  
BRANCH  19  20
HETATM   20  C   UNL     1      -8.833   8.566  65.671  1.00  0.00    -0.214 C  
BRANCH  20  21
HETATM   21  C   UNL     1      -9.498   9.661  64.846  1.00  0.00    -0.288 C  
BRANCH  21  22
HETATM   22  C   UNL     1      -8.697   9.970  63.588  1.00  0.00    -0.218 C  
HETATM   23  O   UNL     1      -7.470  10.595  63.941  1.00  0.00    -0.351 OA 
HETATM   24  H   UNL     1      -6.970  10.788  63.156  1.00  0.00     0.000 HD 
ENDBRANCH  21  22
ENDBRANCH  20  21
ENDBRANCH  19  20
ENDBRANCH  18  19
ENDBRANCH  17  18
ENDBRANCH  16  17
ENDBRANCH  15  16
ENDBRANCH  14  15
ENDBRANCH  13  14
ENDBRANCH  12  13
ENDBRANCH  11  12
ENDBRANCH  10  11
ENDBRANCH   9  10
ENDBRANCH   8   9
ENDBRANCH   7   8
ENDBRANCH   6   7
ENDBRANCH   5   6
ENDBRANCH   4   5
ENDBRANCH   3   4
ENDBRANCH   2   3
TORSDOF 20
ENDMDL
MODEL      202
REMARK 921   NORMALIZED FREE ENERGY PREDICTED BY IDOCK:   -3.38 KCAL/MOL
REMARK 922        TOTAL FREE ENERGY PREDICTED BY IDOCK:  -10.19 KCAL/MOL
REMARK 923 INTER-LIGAND FREE ENERGY PREDICTED BY IDOCK:   -7.81 KCAL/MOL
REMARK 924 INTRA-LIGAND FREE ENERGY PREDICTED BY IDOCK:   -2.38 KCAL/MOL
REMARK 927      BINDING AFFINITY PREDICTED BY RF-SCORE:    0.00 PKD
ROOT
HETATM    1  C   UNL     1     -12.049  13.999  70.288  1.00  0.00    -0.425 C  
HETATM    2  C   UNL     1     -11.898  14.563  68.886  1.00  0.00    -0.359 C  
ENDROOT
BRANCH   2   3
HETATM    3  C   UNL     1     -11.037  13.652  68.017  1.00  0.00    -0.285 C  
BRANCH   3   4
HETATM    4  C   UNL     1     -11.867  12.994  66.918  1.00  0.00    -0.442 C  
BRANCH   4   5
HETATM    5  C   UNL     1     -12.371  14.036  65.925  1.00  0.00    -0.515 C  
BRANCH   5   6
HETATM    6  C   UNL     1     -11.491  14.069  64.680  1.00  0.00    -0.389 C  
BRANCH   6   7
HETATM    7  C   UNL     1     -12.195  13.400  63.506  1.00  0.00    -0.468 C  
BRANCH   7   8
HETATM    8  C   UNL     1     -11.886  11.909  63.475  1.00  0.00    -0.560 C  
BRANCH   8   9
HETATM    9  C   UNL     1     -10.413  11.660  63.769  1.00  0.00    -0.454 C  
BRANCH   9  10
HETATM   10  C   UNL     1     -10.255  10.664  64.909  1.00  0.00    -0.395 C  
BRANCH  10  11
HETATM   11  C   UNL     1      -9.058   9.757  64.664  1.00  0.00    -0.294 C  
BRANCH  11  12
HETATM   12  C   UNL     1      -8.924   8.735  65.784  1.00  0.00    -0.253 C  
BRANCH  12  13
HETATM   13  C   UNL     1      -8.248   9.358  66.995  1.00  0.00    -0.116 C  
BRANCH  13  14
HETATM   14  C   UNL     1      -9.040   9.063  68.262  1.00  0.00    -0.133 C  
BRANCH  14  15
HETATM   15  C   UNL     1     -10.498   8.782  67.927  1.00  0.00    -0.275 C  
BRANCH  15  16
HETATM   16  C   UNL     1     -11.395   9.883  68.477  1.00  0.00    -0.049 C  
BRANCH  16  17
HETATM   17  C   UNL     1     -11.003  10.232  69.908  1.00  0.00    -0.358 C  
BRANCH  17  18
HETATM   18  C   UNL     1     -12.189  10.058  70.848  1.00  0.00    -0.441 C  
BRANCH  18  19
HETATM   19  C   UNL     1     -11.887   9.010  71.914  1.00  0.00    -0.447 C  
BRANCH  19  20
HETATM   20  C   UNL     1     -10.702   8.144  71.499  1.00  0.00    -0.286 C  
BRANCH  20  21
HETATM   21  C   UNL     1      -9.678   8.044  72.623  1.00  0.00    -0.332 C  
BRANCH  21  22
HETATM   22  C   UNL     1     -10.192   7.175  73.764  1.00  0.00    -0.352 C  
HETATM   23  O   UNL     1     -10.261   5.819  73.343  1.00  0.00    -0.184 OA 
HETATM   24  H   UNL     1     -10.582   5.278  74.054  1.00  0.00     0.000 HD 
ENDBRANCH  21  22
ENDBRANCH  20  21
ENDBRANCH  19  20
ENDBRANCH  18  19
ENDBRANCH  17  18
ENDBRANCH  16  17
ENDBRANCH  15  16
ENDBRANCH  14  15
ENDBRANCH  13  14
ENDBRANCH  12  13
ENDBRANCH  11  12
ENDBRANCH  10  11
ENDBRANCH   9  10
ENDBRANCH   8   9
ENDBRANCH   7   8
ENDBRANCH   6   7
ENDBRANCH   5   6
ENDBRANCH   4   5
ENDBRANCH   3   4
ENDBRANCH   2   3
TORSDOF 20
ENDMDL
MODEL      203
REMARK 921   NORMALIZED FREE ENERGY PREDICTED BY IDOCK:   -3.38 KCAL/MOL
REMARK 922        TOTAL FREE ENERGY PREDICTED BY IDOCK:  -10.19 KCAL/MOL
REMARK 923 INTER-LIGAND FREE ENERGY PREDICTED BY IDOCK:   -8.35 KCAL/MOL
REMARK 924 INTRA-LIGAND FREE ENERGY PREDICTED BY IDOCK:   -1.84 KCAL/MOL
REMARK 927      BINDING AFFINITY PREDICTED BY RF-SCORE:    0.00 PKD
ROOT
HETATM    1  C   UNL     1     -10.136   5.092  70.487  1.00  0.00    -0.326 C  
HETATM    2  C   UNL     1     -10.365   6.594  70.458  1.00  0.00    -0.231 C  
ENDROOT
BRANCH   2   3
HETATM    3  C   UNL     1     -10.021   7.228  71.803  1.00  0.00    -0.186 C  
BRANCH   3   4
HETATM    4  C   UNL     1     -11.278   7.464  72.637  1.00  0.00    -0.379 C  
BRANCH   4   5
HETATM    5  C   UNL     1     -12.525   7.421  71.758  1.00  0.00    -0.367 C  
BRANCH   5   6
HETATM    6  C   UNL     1     -13.570   8.415  72.252  1.00  0.00    -0.312 C  
BRANCH   6   7
HETATM    7  C   UNL     1     -13.163   9.842  71.905  1.00  0.00    -0.545 C  
BRANCH   7   8
HETATM    8  C   UNL     1     -12.372   9.872  70.603  1.00  0.00    -0.299 C  
BRANCH   8   9
HETATM    9  C   UNL     1     -12.402  11.265  69.989  1.00  0.00    -0.330 C  
BRANCH   9  10
HETATM   10  C   UNL     1     -12.574  12.323  71.070  1.00  0.00    -0.352 C  
BRANCH  10  11
HETATM   11  C   UNL     1     -12.125  13.685  70.560  1.00  0.00    -0.411 C  
BRANCH  11  12
HETATM   12  C   UNL     1     -11.988  13.669  69.045  1.00  0.00    -0.392 C  
BRANCH  12  13
HETATM   13  C   UNL     1     -12.157  15.071  68.480  1.00  0.00    -0.177 C  
BRANCH  13  14
HETATM   14  C   UNL     1     -11.439  16.090  69.355  1.00  0.00    -0.336 C  
BRANCH  14  15
HETATM   15  C   UNL     1     -10.494  16.940  68.519  1.00  0.00    -0.361 C  
BRANCH  15  16
HETATM   16  C   UNL     1      -9.143  16.253  68.373  1.00  0.00    -0.203 C  
BRANCH  16  17
HETATM   17  C   UNL     1      -9.008  15.618  66.993  1.00  0.00    -0.244 C  
BRANCH  17  18
HETATM   18  C   UNL     1      -9.568  16.543  65.919  1.00  0.00    -0.284 C  
BRANCH  18  19
HETATM   19  C   UNL     1     -10.757  15.899  65.214  1.00  0.00    -0.442 C  
BRANCH  19  20
HETATM   20  C   UNL     1     -10.493  14.419  64.955  1.00  0.00    -0.448 C  
BRANCH  20  21
HETATM   21  C   UNL     1     -11.800  13.646  64.825  1.00  0.00    -0.414 C  
BRANCH  21  22
HETATM   22  C   UNL     1     -11.907  12.966  63.467  1.00  0.00    -0.536 C  
HETATM   23  O   UNL     1     -12.927  11.976  63.504  1.00  0.00    -0.774 OA 
HETATM   24  H   UNL     1     -12.994  11.552  62.656  1.00  0.00     0.000 HD 
ENDBRANCH  21  22
ENDBRANCH  20  21
ENDBRANCH  19  20
ENDBRANCH  18  19
ENDBRANCH  17  18
ENDBRANCH  16  17
ENDBRANCH  15  16
ENDBRANCH  14  15
ENDBRANCH  13  14
ENDBRANCH  12  13
ENDBRANCH  11  12
ENDBRANCH  10  11
ENDBRANCH   9  10
ENDBRANCH   8   9
ENDBRANCH   7   8
ENDBRANCH   6   7
ENDBRANCH   5   6
ENDBRANCH   4   5
ENDBRANCH   3   4
ENDBRANCH   2   3
TORSDOF 20
ENDMDL
MODEL      204
REMARK 921   NORMALIZED FREE ENERGY PREDICTED BY IDOCK:   -3.38 KCAL/MOL
REMARK 922        TOTAL FREE ENERGY PREDICTED BY IDOCK:  -10.19 KCAL/MOL
REMARK 923 INTER-LIGAND FREE ENERGY PREDICTED BY IDOCK:   -7.40 KCAL/MOL
REMARK 924 INTRA-LIGAND FREE ENERGY PREDICTED BY IDOCK:   -2.79 KCAL/MOL
REMARK 927      BINDING AFFINITY PREDICTED BY RF-SCORE:    0.00 PKD
ROOT
HETATM    1  C   UNL     1      -8.259  16.289  66.536  1.00  0.00    -0.344 C  
HETATM    2  C   UNL     1      -9.515  15.934  65.758  1.00  0.00    -0.316 C  
ENDROOT
BRANCH   2   3
HETATM    3  C   UNL     1     -10.766  16.161  66.600  1.00  0.00    -0.226 C  
BRANCH   3   4
HETATM    4  C   UNL     1     -11.608  14.892  66.688  1.00  0.00    -0.265 C  
BRANCH   4   5
HETATM    5  C   UNL     1     -11.837  14.495  68.144  1.00  0.00    -0.348 C  
BRANCH   5   6
HETATM    6  C   UNL     1     -10.550  13.974  68.773  1.00  0.00    -0.260 C  
BRANCH   6   7
HETATM    7  C   UNL     1     -10.449  12.461  68.619  1.00  0.00    -0.224 C  
BRANCH   7   8
HETATM    8  C   UNL     1     -11.835  11.840  68.508  1.00  0.00    -0.365 C  
BRANCH   8   9
HETATM    9  C   UNL     1     -12.119  10.945  69.707  1.00  0.00    -0.409 C  
BRANCH   9  10
HETATM   10  C   UNL     1     -12.501  11.781  70.920  1.00  0.00    -0.416 C  
BRANCH  10  11
HETATM   11  C   UNL     1     -13.244  10.930  71.942  1.00  0.00    -0.508 C  
BRANCH  11  12
HETATM   12  C   UNL     1     -13.526   9.545  71.379  1.00  0.00    -0.405 C  
BRANCH  12  13
HETATM   13  C   UNL     1     -13.063   8.471  72.351  1.00  0.00    -0.338 C  
BRANCH  13  14
HETATM   14  C   UNL     1     -12.634   7.217  71.600  1.00  0.00    -0.410 C  
BRANCH  14  15
HETATM   15  C   UNL     1     -11.231   6.799  72.014  1.00  0.00    -0.297 C  
BRANCH  15  16
HETATM   16  C   UNL     1     -10.490   7.969  72.650  1.00  0.00    -0.408 C  
BRANCH  16  17
HETATM   17  C   UNL     1      -9.204   8.268  71.889  1.00  0.00    -0.272 C  
BRANCH  17  18
HETATM   18  C   UNL     1      -9.451   9.312  70.807  1.00  0.00    -0.336 C  
BRANCH  18  19
HETATM   19  C   UNL     1      -8.930   8.829  69.458  1.00  0.00    -0.145 C  
BRANCH  19  20
HETATM   20  C   UNL     1      -9.935   7.891  68.796  1.00  0.00    -0.194 C  
BRANCH  20  21
HETATM   21  C   UNL     1     -10.318   8.391  67.408  1.00  0.00    -0.355 C  
BRANCH  21  22
HETATM   22  C   UNL     1      -9.106   8.445  66.487  1.00  0.00    -0.176 C  
HETATM   23  O   UNL     1      -9.144   7.351  65.579  1.00  0.00    -0.383 OA 
HETATM   24  H   UNL     1      -8.388   7.385  65.004  1.00  0.00     0.000 HD 
ENDBRANCH  21  22
ENDBRANCH  20  21
ENDBRANCH  19  20
ENDBRANCH  18  19
ENDBRANCH  17  18
ENDBRANCH  16  17
ENDBRANCH  15  16
ENDBRANCH  14  15
ENDBRANCH  13  14
ENDBRANCH  12  13
ENDBRANCH  11  12
ENDBRANCH  10  11
ENDBRANCH   9  10
ENDBRANCH   8   9
ENDBRANCH   7   8
ENDBRANCH   6   7
ENDBRANCH   5   6
ENDBRANCH   4   5
ENDBRANCH   3   4
ENDBRANCH   2   3
TORSDOF 20
ENDMDL
MODEL      205
REMARK 921   NORMALIZED FREE ENERGY PREDICTED BY IDOCK:   -3.37 KCAL/MOL
REMARK 922        TOTAL FREE ENERGY PREDICTED BY IDOCK:  -10.19 KCAL/MOL
REMARK 923 INTER-LIGAND FREE ENERGY PREDICTED BY IDOCK:   -7.65 KCAL/MOL
REMARK 924 INTRA-LIGAND FREE ENERGY PREDICTED BY IDOCK:   -2.54 KCAL/MOL
REMARK 927      BINDING AFFINITY PREDICTED BY RF-SCORE:    0.00 PKD
ROOT
HETATM    1  C   UNL     1     -10.504   8.870  67.755  1.00  0.00    -0.300 C  
HETATM    2  C   UNL     1      -9.881  10.035  68.504  1.00  0.00    -0.168 C  
ENDROOT
BRANCH   2   3
HETATM    3  C   UNL     1      -9.949  11.318  67.681  1.00  0.00    -0.197 C  
BRANCH   3   4
HETATM    4  C   UNL     1     -11.338  11.513  67.080  1.00  0.00    -0.354 C  
BRANCH   4   5
HETATM    5  C   UNL     1     -11.239  11.952  65.622  1.00  0.00    -0.360 C  
BRANCH   5   6
HETATM    6  C   UNL     1     -11.039  13.460  65.522  1.00  0.00    -0.296 C  
BRANCH   6   7
HETATM    7  C   UNL     1     -11.964  14.191  66.487  1.00  0.00    -0.466 C  
BRANCH   7   8
HETATM    8  C   UNL     1     -11.202  15.266  67.251  1.00  0.00    -0.306 C  
BRANCH   8   9
HETATM    9  C   UNL     1     -10.934  14.818  68.682  1.00  0.00    -0.262 C  
BRANCH   9  10
HETATM   10  C   UNL     1     -12.230  14.401  69.363  1.00  0.00    -0.305 C  
BRANCH  10  11
HETATM   11  C   UNL     1     -11.943  13.789  70.727  1.00  0.00    -0.318 C  
BRANCH  11  12
HETATM   12  C   UNL     1     -13.177  13.863  71.615  1.00  0.00    -0.446 C  
BRANCH  12  13
HETATM   13  C   UNL     1     -13.586  12.472  72.075  1.00  0.00    -0.387 C  
BRANCH  13  14
HETATM   14  C   UNL     1     -12.667  11.417  71.474  1.00  0.00    -0.462 C  
BRANCH  14  15
HETATM   15  C   UNL     1     -12.832  10.090  72.199  1.00  0.00    -0.414 C  
BRANCH  15  16
HETATM   16  C   UNL     1     -13.605   9.101  71.336  1.00  0.00    -0.348 C  
BRANCH  16  17
HETATM   17  C   UNL     1     -13.308   7.668  71.762  1.00  0.00    -0.364 C  
BRANCH  17  18
HETATM   18  C   UNL     1     -12.446   6.966  70.720  1.00  0.00    -0.251 C  
BRANCH  18  19
HETATM   19  C   UNL     1     -11.097   6.569  71.311  1.00  0.00    -0.321 C  
BRANCH  19  20
HETATM   20  C   UNL     1     -11.057   6.860  72.808  1.00  0.00    -0.304 C  
BRANCH  20  21
HETATM   21  C   UNL     1      -9.885   7.769  73.157  1.00  0.00    -0.361 C  
BRANCH  21  22
HETATM   22  C   UNL     1      -9.495   8.647  71.975  1.00  0.00    -0.300 C  
HETATM   23  O   UNL     1      -8.126   9.016  72.081  1.00  0.00    -0.359 OA 
HETATM   24  H   UNL     1      -7.884   9.564  71.344  1.00  0.00     0.000 HD 
ENDBRANCH  21  22
ENDBRANCH  20  21
ENDBRANCH  19  20
ENDBRANCH  18  19
ENDBRANCH  17  18
ENDBRANCH  16  17
ENDBRANCH  15  16
ENDBRANCH  14  15
ENDBRANCH  13  14
ENDBRANCH  12  13
ENDBRANCH  11  12
ENDBRANCH  10  11
ENDBRANCH   9  10
ENDBRANCH   8   9
ENDBRANCH   7   8
ENDBRANCH   6   7
ENDBRANCH   5   6
ENDBRANCH   4   5
ENDBRANCH   3   4
ENDBRANCH   2   3
TORSDOF 20
ENDMDL
MODEL      206
REMARK 921   NORMALIZED FREE ENERGY PREDICTED BY IDOCK:   -3.37 KCAL/MOL
REMARK 922        TOTAL FREE ENERGY PREDICTED BY IDOCK:  -10.19 KCAL/MOL
REMARK 923 INTER-LIGAND FREE ENERGY PREDICTED BY IDOCK:   -7.33 KCAL/MOL
REMARK 924 INTRA-LIGAND FREE ENERGY PREDICTED BY IDOCK:   -2.86 KCAL/MOL
REMARK 927      BINDING AFFINITY PREDICTED BY RF-SCORE:    0.00 PKD
ROOT
HETATM    1  C   UNL     1     -14.347   7.550  71.470  1.00  0.00    -0.603 C  
HETATM    2  C   UNL     1     -14.291   8.869  72.221  1.00  0.00    -0.418 C  
ENDROOT
BRANCH   2   3
HETATM    3  C   UNL     1     -13.046   9.666  71.841  1.00  0.00    -0.530 C  
BRANCH   3   4
HETATM    4  C   UNL     1     -12.028   8.785  71.122  1.00  0.00    -0.331 C  
BRANCH   4   5
HETATM    5  C   UNL     1     -10.607   9.272  71.393  1.00  0.00    -0.417 C  
BRANCH   5   6
HETATM    6  C   UNL     1      -9.822   8.238  72.194  1.00  0.00    -0.342 C  
BRANCH   6   7
HETATM    7  C   UNL     1     -10.681   7.011  72.476  1.00  0.00    -0.273 C  
BRANCH   7   8
HETATM    8  C   UNL     1     -10.110   5.785  71.774  1.00  0.00    -0.233 C  
BRANCH   8   9
HETATM    9  C   UNL     1     -10.885   5.489  70.497  1.00  0.00    -0.266 C  
BRANCH   9  10
HETATM   10  C   UNL     1     -10.086   5.921  69.275  1.00  0.00    -0.251 C  
BRANCH  10  11
HETATM   11  C   UNL     1     -10.985   6.633  68.274  1.00  0.00    -0.321 C  
BRANCH  11  12
HETATM   12  C   UNL     1     -10.183   7.636  67.457  1.00  0.00    -0.294 C  
BRANCH  12  13
HETATM   13  C   UNL     1     -10.754   9.036  67.623  1.00  0.00    -0.232 C  
BRANCH  13  14
HETATM   14  C   UNL     1      -9.636  10.051  67.820  1.00  0.00    -0.168 C  
BRANCH  14  15
HETATM   15  C   UNL     1     -10.155  11.283  68.546  1.00  0.00    -0.210 C  
BRANCH  15  16
HETATM   16  C   UNL     1     -11.676  11.343  68.479  1.00  0.00    -0.386 C  
BRANCH  16  17
HETATM   17  C   UNL     1     -12.218  12.369  69.468  1.00  0.00    -0.145 C  
BRANCH  17  18
HETATM   18  C   UNL     1     -11.727  13.768  69.113  1.00  0.00    -0.379 C  
BRANCH  18  19
HETATM   19  C   UNL     1     -11.569  14.621  70.367  1.00  0.00    -0.326 C  
BRANCH  19  20
HETATM   20  C   UNL     1     -11.227  16.061  70.000  1.00  0.00    -0.362 C  
BRANCH  20  21
HETATM   21  C   UNL     1     -11.514  16.333  68.528  1.00  0.00    -0.272 C  
BRANCH  21  22
HETATM   22  C   UNL     1     -10.402  17.157  67.892  1.00  0.00    -0.350 C  
HETATM   23  O   UNL     1      -9.405  16.292  67.362  1.00  0.00    -0.218 OA 
HETATM   24  H   UNL     1      -8.712  16.806  66.965  1.00  0.00     0.000 HD 
ENDBRANCH  21  22
ENDBRANCH  20  21
ENDBRANCH  19  20
ENDBRANCH  18  19
ENDBRANCH  17  18
ENDBRANCH  16  17
ENDBRANCH  15  16
ENDBRANCH  14  15
ENDBRANCH  13  14
ENDBRANCH  12  13
ENDBRANCH  11  12
ENDBRANCH  10  11
ENDBRANCH   9  10
ENDBRANCH   8   9
ENDBRANCH   7   8
ENDBRANCH   6   7
ENDBRANCH   5   6
ENDBRANCH   4   5
ENDBRANCH   3   4
ENDBRANCH   2   3
TORSDOF 20
ENDMDL
MODEL      207
REMARK 921   NORMALIZED FREE ENERGY PREDICTED BY IDOCK:   -3.36 KCAL/MOL
REMARK 922        TOTAL FREE ENERGY PREDICTED BY IDOCK:  -10.16 KCAL/MOL
REMARK 923 INTER-LIGAND FREE ENERGY PREDICTED BY IDOCK:   -7.44 KCAL/MOL
REMARK 924 INTRA-LIGAND FREE ENERGY PREDICTED BY IDOCK:   -2.72 KCAL/MOL
REMARK 927      BINDING AFFINITY PREDICTED BY RF-SCORE:    0.00 PKD
ROOT
HETATM    1  C   UNL     1     -10.604   9.187  67.493  1.00  0.00    -0.317 C  
HETATM    2  C   UNL     1      -9.774  10.123  68.356  1.00  0.00    -0.157 C  
ENDROOT
BRANCH   2   3
HETATM    3  C   UNL     1      -9.950  11.574  67.918  1.00  0.00    -0.193 C  
BRANCH   3   4
HETATM    4  C   UNL     1     -11.364  11.826  67.402  1.00  0.00    -0.376 C  
BRANCH   4   5
HETATM    5  C   UNL     1     -11.330  12.608  66.093  1.00  0.00    -0.375 C  
BRANCH   5   6
HETATM    6  C   UNL     1     -10.950  14.064  66.340  1.00  0.00    -0.308 C  
BRANCH   6   7
HETATM    7  C   UNL     1     -11.875  14.694  67.373  1.00  0.00    -0.374 C  
BRANCH   7   8
HETATM    8  C   UNL     1     -11.141  15.766  68.168  1.00  0.00    -0.341 C  
BRANCH   8   9
HETATM    9  C   UNL     1     -11.052  15.378  69.638  1.00  0.00    -0.280 C  
BRANCH   9  10
HETATM   10  C   UNL     1     -12.397  14.871  70.140  1.00  0.00    -0.376 C  
BRANCH  10  11
HETATM   11  C   UNL     1     -12.286  13.424  70.597  1.00  0.00    -0.427 C  
BRANCH  11  12
HETATM   12  C   UNL     1     -13.191  13.171  71.793  1.00  0.00    -0.494 C  
BRANCH  12  13
HETATM   13  C   UNL     1     -13.379  11.678  72.014  1.00  0.00    -0.405 C  
BRANCH  13  14
HETATM   14  C   UNL     1     -12.741  10.885  70.880  1.00  0.00    -0.464 C  
BRANCH  14  15
HETATM   15  C   UNL     1     -11.784   9.840  71.433  1.00  0.00    -0.475 C  
BRANCH  15  16
HETATM   16  C   UNL     1     -12.541   8.795  72.243  1.00  0.00    -0.460 C  
BRANCH  16  17
HETATM   17  C   UNL     1     -11.822   7.452  72.193  1.00  0.00    -0.323 C  
BRANCH  17  18
HETATM   18  C   UNL     1     -12.295   6.633  70.998  1.00  0.00    -0.289 C  
BRANCH  18  19
HETATM   19  C   UNL     1     -11.162   6.427  70.000  1.00  0.00    -0.475 C  
BRANCH  19  20
HETATM   20  C   UNL     1      -9.836   6.904  70.582  1.00  0.00    -0.191 C  
BRANCH  20  21
HETATM   21  C   UNL     1      -8.659   6.236  69.882  1.00  0.00    -0.134 C  
BRANCH  21  22
HETATM   22  C   UNL     1      -9.043   5.760  68.487  1.00  0.00    -0.114 C  
HETATM   23  O   UNL     1      -8.238   4.648  68.118  1.00  0.00    -0.091 OA 
HETATM   24  H   UNL     1      -8.478   4.352  67.248  1.00  0.00     0.000 HD 
ENDBRANCH  21  22
ENDBRANCH  20  21
ENDBRANCH  19  20
ENDBRANCH  18  19
ENDBRANCH  17  18
ENDBRANCH  16  17
ENDBRANCH  15  16
ENDBRANCH  14  15
ENDBRANCH  13  14
ENDBRANCH  12  13
ENDBRANCH  11  12
ENDBRANCH  10  11
ENDBRANCH   9  10
ENDBRANCH   8   9
ENDBRANCH   7   8
ENDBRANCH   6   7
ENDBRANCH   5   6
ENDBRANCH   4   5
ENDBRANCH   3   4
ENDBRANCH   2   3
TORSDOF 20
ENDMDL
MODEL      208
REMARK 921   NORMALIZED FREE ENERGY PREDICTED BY IDOCK:   -3.36 KCAL/MOL
REMARK 922        TOTAL FREE ENERGY PREDICTED BY IDOCK:  -10.15 KCAL/MOL
REMARK 923 INTER-LIGAND FREE ENERGY PREDICTED BY IDOCK:   -8.15 KCAL/MOL
REMARK 924 INTRA-LIGAND FREE ENERGY PREDICTED BY IDOCK:   -2.00 KCAL/MOL
REMARK 927      BINDING AFFINITY PREDICTED BY RF-SCORE:    0.00 PKD
ROOT
HETATM    1  C   UNL     1      -7.884   8.086  64.447  1.00  0.00    -0.139 C  
HETATM    2  C   UNL     1      -8.592   8.650  65.666  1.00  0.00    -0.191 C  
ENDROOT
BRANCH   2   3
HETATM    3  C   UNL     1      -9.399   7.571  66.382  1.00  0.00    -0.211 C  
BRANCH   3   4
HETATM    4  C   UNL     1     -10.555   8.180  67.170  1.00  0.00    -0.355 C  
BRANCH   4   5
HETATM    5  C   UNL     1     -10.459   7.806  68.646  1.00  0.00    -0.199 C  
BRANCH   5   6
HETATM    6  C   UNL     1     -10.927   6.373  68.875  1.00  0.00    -0.412 C  
BRANCH   6   7
HETATM    7  C   UNL     1     -10.395   5.838  70.198  1.00  0.00    -0.324 C  
BRANCH   7   8
HETATM    8  C   UNL     1     -10.774   6.766  71.344  1.00  0.00    -0.253 C  
BRANCH   8   9
HETATM    9  C   UNL     1     -12.186   6.468  71.831  1.00  0.00    -0.373 C  
BRANCH   9  10
HETATM   10  C   UNL     1     -13.086   7.680  71.637  1.00  0.00    -0.392 C  
BRANCH  10  11
HETATM   11  C   UNL     1     -12.252   8.936  71.426  1.00  0.00    -0.374 C  
BRANCH  11  12
HETATM   12  C   UNL     1     -13.148  10.127  71.121  1.00  0.00    -0.480 C  
BRANCH  12  13
HETATM   13  C   UNL     1     -12.314  11.380  70.902  1.00  0.00    -0.483 C  
BRANCH  13  14
HETATM   14  C   UNL     1     -11.288  11.154  69.799  1.00  0.00    -0.354 C  
BRANCH  14  15
HETATM   15  C   UNL     1     -11.752  11.794  68.499  1.00  0.00    -0.390 C  
BRANCH  15  16
HETATM   16  C   UNL     1     -12.131  13.251  68.725  1.00  0.00    -0.254 C  
BRANCH  16  17
HETATM   17  C   UNL     1     -10.909  14.069  69.126  1.00  0.00    -0.235 C  
BRANCH  17  18
HETATM   18  C   UNL     1     -11.330  15.403  69.731  1.00  0.00    -0.317 C  
BRANCH  18  19
HETATM   19  C   UNL     1     -11.012  15.448  71.222  1.00  0.00    -0.240 C  
BRANCH  19  20
HETATM   20  C   UNL     1     -12.133  16.136  71.993  1.00  0.00    -0.572 C  
BRANCH  20  21
HETATM   21  C   UNL     1     -13.494  15.583  71.589  1.00  0.00    -0.584 C  
BRANCH  21  22
HETATM   22  C   UNL     1     -13.837  14.328  72.381  1.00  0.00    -0.518 C  
HETATM   23  O   UNL     1     -13.026  14.257  73.547  1.00  0.00    -0.494 OA 
HETATM   24  H   UNL     1     -13.240  13.474  74.040  1.00  0.00     0.000 HD 
ENDBRANCH  21  22
ENDBRANCH  20  21
ENDBRANCH  19  20
ENDBRANCH  18  19
ENDBRANCH  17  18
ENDBRANCH  16  17
ENDBRANCH  15  16
ENDBRANCH  14  15
ENDBRANCH  13  14
ENDBRANCH  12  13
ENDBRANCH  11  12
ENDBRANCH  10  11
ENDBRANCH   9  10
ENDBRANCH   8   9
ENDBRANCH   7   8
ENDBRANCH   6   7
ENDBRANCH   5   6
ENDBRANCH   4   5
ENDBRANCH   3   4
ENDBRANCH   2   3
TORSDOF 20
ENDMDL
MODEL      209
REMARK 921   NORMALIZED FREE ENERGY PREDICTED BY IDOCK:   -3.35 KCAL/MOL
REMARK 922        TOTAL FREE ENERGY PREDICTED BY IDOCK:  -10.14 KCAL/MOL
REMARK 923 INTER-LIGAND FREE ENERGY PREDICTED BY IDOCK:   -7.65 KCAL/MOL
REMARK 924 INTRA-LIGAND FREE ENERGY PREDICTED BY IDOCK:   -2.49 KCAL/MOL
REMARK 927      BINDING AFFINITY PREDICTED BY RF-SCORE:    0.00 PKD
ROOT
HETATM    1  C   UNL     1     -10.498   9.427  67.315  1.00  0.00    -0.332 C  
HETATM    2  C   UNL     1      -9.497  10.556  67.489  1.00  0.00    -0.166 C  
ENDROOT
BRANCH   2   3
HETATM    3  C   UNL     1      -9.685  11.628  66.420  1.00  0.00    -0.236 C  
BRANCH   3   4
HETATM    4  C   UNL     1     -11.130  11.668  65.929  1.00  0.00    -0.320 C  
BRANCH   4   5
HETATM    5  C   UNL     1     -11.194  12.130  64.476  1.00  0.00    -0.385 C  
BRANCH   5   6
HETATM    6  C   UNL     1     -10.795  13.597  64.356  1.00  0.00    -0.374 C  
BRANCH   6   7
HETATM    7  C   UNL     1     -11.597  14.455  65.326  1.00  0.00    -0.353 C  
BRANCH   7   8
HETATM    8  C   UNL     1     -10.738  15.584  65.881  1.00  0.00    -0.346 C  
BRANCH   8   9
HETATM    9  C   UNL     1     -10.663  15.504  67.400  1.00  0.00    -0.301 C  
BRANCH   9  10
HETATM   10  C   UNL     1     -11.775  14.620  67.944  1.00  0.00    -0.379 C  
BRANCH  10  11
HETATM   11  C   UNL     1     -11.254  13.738  69.071  1.00  0.00    -0.313 C  
BRANCH  11  12
HETATM   12  C   UNL     1     -12.088  13.933  70.329  1.00  0.00    -0.423 C  
BRANCH  12  13
HETATM   13  C   UNL     1     -12.422  12.589  70.959  1.00  0.00    -0.353 C  
BRANCH  13  14
HETATM   14  C   UNL     1     -12.034  11.449  70.027  1.00  0.00    -0.442 C  
BRANCH  14  15
HETATM   15  C   UNL     1     -11.451  10.288  70.818  1.00  0.00    -0.438 C  
BRANCH  15  16
HETATM   16  C   UNL     1     -12.511   9.670  71.721  1.00  0.00    -0.487 C  
BRANCH  16  17
HETATM   17  C   UNL     1     -12.066   8.296  72.209  1.00  0.00    -0.439 C  
BRANCH  17  18
HETATM   18  C   UNL     1     -12.680   7.196  71.351  1.00  0.00    -0.433 C  
BRANCH  18  19
HETATM   19  C   UNL     1     -11.609   6.495  70.521  1.00  0.00    -0.455 C  
BRANCH  19  20
HETATM   20  C   UNL     1     -10.215   6.888  70.997  1.00  0.00    -0.213 C  
BRANCH  20  21
HETATM   21  C   UNL     1      -9.596   5.784  71.847  1.00  0.00    -0.172 C  
BRANCH  21  22
HETATM   22  C   UNL     1     -10.382   4.485  71.723  1.00  0.00    -0.105 C  
HETATM   23  O   UNL     1     -10.797   4.049  73.011  1.00  0.00    -0.180 OA 
HETATM   24  H   UNL     1     -11.287   3.239  72.934  1.00  0.00     0.000 HD 
ENDBRANCH  21  22
ENDBRANCH  20  21
ENDBRANCH  19  20
ENDBRANCH  18  19
ENDBRANCH  17  18
ENDBRANCH  16  17
ENDBRANCH  15  16
ENDBRANCH  14  15
ENDBRANCH  13  14
ENDBRANCH  12  13
ENDBRANCH  11  12
ENDBRANCH  10  11
ENDBRANCH   9  10
ENDBRANCH   8   9
ENDBRANCH   7   8
ENDBRANCH   6   7
ENDBRANCH   5   6
ENDBRANCH   4   5
ENDBRANCH   3   4
ENDBRANCH   2   3
TORSDOF 20
ENDMDL
MODEL      210
REMARK 921   NORMALIZED FREE ENERGY PREDICTED BY IDOCK:   -3.35 KCAL/MOL
REMARK 922        TOTAL FREE ENERGY PREDICTED BY IDOCK:  -10.13 KCAL/MOL
REMARK 923 INTER-LIGAND FREE ENERGY PREDICTED BY IDOCK:   -7.60 KCAL/MOL
REMARK 924 INTRA-LIGAND FREE ENERGY PREDICTED BY IDOCK:   -2.53 KCAL/MOL
REMARK 927      BINDING AFFINITY PREDICTED BY RF-SCORE:    0.00 PKD
ROOT
HETATM    1  C   UNL     1      -9.575   3.999  67.617  1.00  0.00    -0.210 C  
HETATM    2  C   UNL     1     -10.208   4.800  66.492  1.00  0.00    -0.294 C  
ENDROOT
BRANCH   2   3
HETATM    3  C   UNL     1      -9.655   6.221  66.450  1.00  0.00    -0.159 C  
BRANCH   3   4
HETATM    4  C   UNL     1     -10.650   7.217  67.038  1.00  0.00    -0.415 C  
BRANCH   4   5
HETATM    5  C   UNL     1      -9.951   8.176  67.997  1.00  0.00    -0.222 C  
BRANCH   5   6
HETATM    6  C   UNL     1      -8.436   8.070  67.863  1.00  0.00    -0.125 C  
BRANCH   6   7
HETATM    7  C   UNL     1      -7.798   9.454  67.869  1.00  0.00    -0.091 C  
BRANCH   7   8
HETATM    8  C   UNL     1      -8.852  10.530  68.090  1.00  0.00    -0.134 C  
BRANCH   8   9
HETATM    9  C   UNL     1      -8.766  11.596  67.005  1.00  0.00    -0.173 C  
BRANCH   9  10
HETATM   10  C   UNL     1      -8.818  10.958  65.624  1.00  0.00    -0.201 C  
BRANCH  10  11
HETATM   11  C   UNL     1     -10.261  10.753  65.184  1.00  0.00    -0.365 C  
BRANCH  11  12
HETATM   12  C   UNL     1     -10.462  11.258  63.762  1.00  0.00    -0.459 C  
BRANCH  12  13
HETATM   13  C   UNL     1     -11.489  12.379  63.735  1.00  0.00    -0.544 C  
BRANCH  13  14
HETATM   14  C   UNL     1     -12.043  12.632  65.131  1.00  0.00    -0.508 C  
BRANCH  14  15
HETATM   15  C   UNL     1     -11.795  14.073  65.551  1.00  0.00    -0.370 C  
BRANCH  15  16
HETATM   16  C   UNL     1     -10.491  14.587  64.956  1.00  0.00    -0.454 C  
BRANCH  16  17
HETATM   17  C   UNL     1      -9.561  15.092  66.053  1.00  0.00    -0.365 C  
BRANCH  17  18
HETATM   18  C   UNL     1     -10.217  16.223  66.836  1.00  0.00    -0.288 C  
BRANCH  18  19
HETATM   19  C   UNL     1     -10.314  15.873  68.317  1.00  0.00    -0.242 C  
BRANCH  19  20
HETATM   20  C   UNL     1     -11.770  15.842  68.770  1.00  0.00    -0.387 C  
BRANCH  20  21
HETATM   21  C   UNL     1     -12.033  14.650  69.683  1.00  0.00    -0.368 C  
BRANCH  21  22
HETATM   22  C   UNL     1     -12.576  15.097  71.034  1.00  0.00    -0.377 C  
HETATM   23  O   UNL     1     -13.925  15.523  70.893  1.00  0.00    -0.847 OA 
HETATM   24  H   UNL     1     -14.263  15.802  71.736  1.00  0.00     0.000 HD 
ENDBRANCH  21  22
ENDBRANCH  20  21
ENDBRANCH  19  20
ENDBRANCH  18  19
ENDBRANCH  17  18
ENDBRANCH  16  17
ENDBRANCH  15  16
ENDBRANCH  14  15
ENDBRANCH  13  14
ENDBRANCH  12  13
ENDBRANCH  11  12
ENDBRANCH  10  11
ENDBRANCH   9  10
ENDBRANCH   8   9
ENDBRANCH   7   8
ENDBRANCH   6   7
ENDBRANCH   5   6
ENDBRANCH   4   5
ENDBRANCH   3   4
ENDBRANCH   2   3
TORSDOF 20
ENDMDL
MODEL      211
REMARK 921   NORMALIZED FREE ENERGY PREDICTED BY IDOCK:   -3.34 KCAL/MOL
REMARK 922        TOTAL FREE ENERGY PREDICTED BY IDOCK:  -10.12 KCAL/MOL
REMARK 923 INTER-LIGAND FREE ENERGY PREDICTED BY IDOCK:   -7.34 KCAL/MOL
REMARK 924 INTRA-LIGAND FREE ENERGY PREDICTED BY IDOCK:   -2.77 KCAL/MOL
REMARK 927      BINDING AFFINITY PREDICTED BY RF-SCORE:    0.00 PKD
ROOT
HETATM    1  C   UNL     1     -11.345   9.244  71.244  1.00  0.00    -0.423 C  
HETATM    2  C   UNL     1     -10.057   8.609  71.738  1.00  0.00    -0.380 C  
ENDROOT
BRANCH   2   3
HETATM    3  C   UNL     1      -9.091   8.356  70.585  1.00  0.00    -0.174 C  
BRANCH   3   4
HETATM    4  C   UNL     1      -8.640   9.667  69.947  1.00  0.00    -0.218 C  
BRANCH   4   5
HETATM    5  C   UNL     1      -8.602   9.544  68.427  1.00  0.00    -0.120 C  
BRANCH   5   6
HETATM    6  C   UNL     1      -9.894   8.929  67.900  1.00  0.00    -0.205 C  
BRANCH   6   7
HETATM    7  C   UNL     1     -10.188   9.421  66.488  1.00  0.00    -0.308 C  
BRANCH   7   8
HETATM    8  C   UNL     1      -9.121   8.932  65.517  1.00  0.00    -0.248 C  
BRANCH   8   9
HETATM    9  C   UNL     1      -9.118   9.779  64.252  1.00  0.00    -0.293 C  
BRANCH   9  10
HETATM   10  C   UNL     1      -9.645  11.177  64.543  1.00  0.00    -0.288 C  
BRANCH  10  11
HETATM   11  C   UNL     1     -10.672  11.589  63.498  1.00  0.00    -0.483 C  
BRANCH  11  12
HETATM   12  C   UNL     1     -11.275  12.942  63.847  1.00  0.00    -0.471 C  
BRANCH  12  13
HETATM   13  C   UNL     1     -12.557  12.764  64.645  1.00  0.00    -0.491 C  
BRANCH  13  14
HETATM   14  C   UNL     1     -12.477  13.523  65.963  1.00  0.00    -0.456 C  
BRANCH  14  15
HETATM   15  C   UNL     1     -11.336  12.991  66.817  1.00  0.00    -0.365 C  
BRANCH  15  16
HETATM   16  C   UNL     1     -11.874  12.160  67.974  1.00  0.00    -0.351 C  
BRANCH  16  17
HETATM   17  C   UNL     1     -11.189  12.547  69.279  1.00  0.00    -0.256 C  
BRANCH  17  18
HETATM   18  C   UNL     1     -12.193  13.145  70.257  1.00  0.00    -0.376 C  
BRANCH  18  19
HETATM   19  C   UNL     1     -12.392  14.633  69.987  1.00  0.00    -0.365 C  
BRANCH  19  20
HETATM   20  C   UNL     1     -11.052  15.359  69.954  1.00  0.00    -0.304 C  
BRANCH  20  21
HETATM   21  C   UNL     1     -10.941  16.246  68.720  1.00  0.00    -0.343 C  
BRANCH  21  22
HETATM   22  C   UNL     1      -9.502  16.332  68.228  1.00  0.00    -0.214 C  
HETATM   23  O   UNL     1      -8.787  17.289  68.997  1.00  0.00    -0.207 OA 
HETATM   24  H   UNL     1      -7.889  17.342  68.689  1.00  0.00     0.000 HD 
ENDBRANCH  21  22
ENDBRANCH  20  21
ENDBRANCH  19  20
ENDBRANCH  18  19
ENDBRANCH  17  18
ENDBRANCH  16  17
ENDBRANCH  15  16
ENDBRANCH  14  15
ENDBRANCH  13  14
ENDBRANCH  12  13
ENDBRANCH  11  12
ENDBRANCH  10  11
ENDBRANCH   9  10
ENDBRANCH   8   9
ENDBRANCH   7   8
ENDBRANCH   6   7
ENDBRANCH   5   6
ENDBRANCH   4   5
ENDBRANCH   3   4
ENDBRANCH   2   3
TORSDOF 20
ENDMDL
MODEL      212
REMARK 921   NORMALIZED FREE ENERGY PREDICTED BY IDOCK:   -3.34 KCAL/MOL
REMARK 922        TOTAL FREE ENERGY PREDICTED BY IDOCK:  -10.11 KCAL/MOL
REMARK 923 INTER-LIGAND FREE ENERGY PREDICTED BY IDOCK:   -6.62 KCAL/MOL
REMARK 924 INTRA-LIGAND FREE ENERGY PREDICTED BY IDOCK:   -3.50 KCAL/MOL
REMARK 927      BINDING AFFINITY PREDICTED BY RF-SCORE:    0.00 PKD
ROOT
HETATM    1  C   UNL     1     -13.148  10.400  71.383  1.00  0.00    -0.512 C  
HETATM    2  C   UNL     1     -13.647   9.297  72.300  1.00  0.00    -0.544 C  
ENDROOT
BRANCH   2   3
HETATM    3  C   UNL     1     -13.431   7.922  71.675  1.00  0.00    -0.386 C  
BRANCH   3   4
HETATM    4  C   UNL     1     -11.951   7.668  71.401  1.00  0.00    -0.336 C  
BRANCH   4   5
HETATM    5  C   UNL     1     -11.154   7.667  72.702  1.00  0.00    -0.412 C  
BRANCH   5   6
HETATM    6  C   UNL     1      -9.787   8.314  72.502  1.00  0.00    -0.368 C  
BRANCH   6   7
HETATM    7  C   UNL     1      -9.724   9.034  71.160  1.00  0.00    -0.369 C  
BRANCH   7   8
HETATM    8  C   UNL     1      -8.279   9.325  70.775  1.00  0.00    -0.210 C  
BRANCH   8   9
HETATM    9  C   UNL     1      -8.222  10.187  69.521  1.00  0.00    -0.176 C  
BRANCH   9  10
HETATM   10  C   UNL     1      -7.122   9.701  68.588  1.00  0.00    -0.072 C  
BRANCH  10  11
HETATM   11  C   UNL     1      -6.729   8.270  68.925  1.00  0.00    -0.053 C  
BRANCH  11  12
HETATM   12  C   UNL     1      -6.997   7.350  67.743  1.00  0.00    -0.076 C  
BRANCH  12  13
HETATM   13  C   UNL     1      -8.214   6.478  68.011  1.00  0.00    -0.116 C  
BRANCH  13  14
HETATM   14  C   UNL     1      -9.309   6.759  66.991  1.00  0.00    -0.165 C  
BRANCH  14  15
HETATM   15  C   UNL     1     -10.568   7.259  67.683  1.00  0.00    -0.316 C  
BRANCH  15  16
HETATM   16  C   UNL     1     -10.712   8.765  67.511  1.00  0.00    -0.213 C  
BRANCH  16  17
HETATM   17  C   UNL     1     -10.031   9.228  66.229  1.00  0.00    -0.357 C  
BRANCH  17  18
HETATM   18  C   UNL     1      -9.856  10.742  66.230  1.00  0.00    -0.262 C  
BRANCH  18  19
HETATM   19  C   UNL     1     -11.078  11.429  66.830  1.00  0.00    -0.356 C  
BRANCH  19  20
HETATM   20  C   UNL     1     -10.659  12.451  67.882  1.00  0.00    -0.231 C  
BRANCH  20  21
HETATM   21  C   UNL     1     -11.706  12.561  68.984  1.00  0.00    -0.368 C  
BRANCH  21  22
HETATM   22  C   UNL     1     -11.627  13.908  69.690  1.00  0.00    -0.286 C  
HETATM   23  O   UNL     1     -10.285  14.379  69.678  1.00  0.00    -0.433 OA 
HETATM   24  H   UNL     1     -10.236  15.219  70.119  1.00  0.00     0.000 HD 
ENDBRANCH  21  22
ENDBRANCH  20  21
ENDBRANCH  19  20
ENDBRANCH  18  19
ENDBRANCH  17  18
ENDBRANCH  16  17
ENDBRANCH  15  16
ENDBRANCH  14  15
ENDBRANCH  13  14
ENDBRANCH  12  13
ENDBRANCH  11  12
ENDBRANCH  10  11
ENDBRANCH   9  10
ENDBRANCH   8   9
ENDBRANCH   7   8
ENDBRANCH   6   7
ENDBRANCH   5   6
ENDBRANCH   4   5
ENDBRANCH   3   4
ENDBRANCH   2   3
TORSDOF 20
ENDMDL
MODEL      213
REMARK 921   NORMALIZED FREE ENERGY PREDICTED BY IDOCK:   -3.34 KCAL/MOL
REMARK 922        TOTAL FREE ENERGY PREDICTED BY IDOCK:  -10.11 KCAL/MOL
REMARK 923 INTER-LIGAND FREE ENERGY PREDICTED BY IDOCK:   -7.53 KCAL/MOL
REMARK 924 INTRA-LIGAND FREE ENERGY PREDICTED BY IDOCK:   -2.58 KCAL/MOL
REMARK 927      BINDING AFFINITY PREDICTED BY RF-SCORE:    0.00 PKD
ROOT
HETATM    1  C   UNL     1     -11.031   6.437  68.568  1.00  0.00    -0.396 C  
HETATM    2  C   UNL     1     -10.748   6.800  67.120  1.00  0.00    -0.441 C  
ENDROOT
BRANCH   2   3
HETATM    3  C   UNL     1     -10.419   8.283  66.981  1.00  0.00    -0.384 C  
BRANCH   3   4
HETATM    4  C   UNL     1     -10.036   8.891  68.327  1.00  0.00    -0.219 C  
BRANCH   4   5
HETATM    5  C   UNL     1      -9.698  10.372  68.175  1.00  0.00    -0.165 C  
BRANCH   5   6
HETATM    6  C   UNL     1     -10.357  10.953  66.928  1.00  0.00    -0.285 C  
BRANCH   6   7
HETATM    7  C   UNL     1      -9.306  11.506  65.973  1.00  0.00    -0.239 C  
BRANCH   7   8
HETATM    8  C   UNL     1      -9.379  10.797  64.627  1.00  0.00    -0.271 C  
BRANCH   8   9
HETATM    9  C   UNL     1      -9.839  11.757  63.539  1.00  0.00    -0.386 C  
BRANCH   9  10
HETATM   10  C   UNL     1     -11.315  11.546  63.229  1.00  0.00    -0.208 C  
BRANCH  10  11
HETATM   11  C   UNL     1     -12.106  12.816  63.508  1.00  0.00    -0.642 C  
BRANCH  11  12
HETATM   12  C   UNL     1     -12.751  12.750  64.885  1.00  0.00    -0.479 C  
BRANCH  12  13
HETATM   13  C   UNL     1     -12.551  14.061  65.630  1.00  0.00    -0.542 C  
BRANCH  13  14
HETATM   14  C   UNL     1     -11.659  15.001  64.830  1.00  0.00    -0.395 C  
BRANCH  14  15
HETATM   15  C   UNL     1     -10.452  15.422  65.654  1.00  0.00    -0.391 C  
BRANCH  15  16
HETATM   16  C   UNL     1     -10.885  15.901  67.033  1.00  0.00    -0.252 C  
BRANCH  16  17
HETATM   17  C   UNL     1      -9.847  15.526  68.084  1.00  0.00    -0.216 C  
BRANCH  17  18
HETATM   18  C   UNL     1      -8.745  14.672  67.469  1.00  0.00    -0.194 C  
BRANCH  18  19
HETATM   19  C   UNL     1      -7.474  15.489  67.268  1.00  0.00    -0.258 C  
BRANCH  19  20
HETATM   20  C   UNL     1      -7.440  16.679  68.222  1.00  0.00    -0.182 C  
BRANCH  20  21
HETATM   21  C   UNL     1      -7.147  17.973  67.472  1.00  0.00    -0.201 C  
BRANCH  21  22
HETATM   22  C   UNL     1      -7.086  17.738  65.968  1.00  0.00    -0.300 C  
HETATM   23  O   UNL     1      -7.147  18.983  65.285  1.00  0.00    -0.485 OA 
HETATM   24  H   UNL     1      -7.110  18.837  64.347  1.00  0.00     0.000 HD 
ENDBRANCH  21  22
ENDBRANCH  20  21
ENDBRANCH  19  20
ENDBRANCH  18  19
ENDBRANCH  17  18
ENDBRANCH  16  17
ENDBRANCH  15  16
ENDBRANCH  14  15
ENDBRANCH  13  14
ENDBRANCH  12  13
ENDBRANCH  11  12
ENDBRANCH  10  11
ENDBRANCH   9  10
ENDBRANCH   8   9
ENDBRANCH   7   8
ENDBRANCH   6   7
ENDBRANCH   5   6
ENDBRANCH   4   5
ENDBRANCH   3   4
ENDBRANCH   2   3
TORSDOF 20
ENDMDL
MODEL      214
REMARK 921   NORMALIZED FREE ENERGY PREDICTED BY IDOCK:   -3.34 KCAL/MOL
REMARK 922        TOTAL FREE ENERGY PREDICTED BY IDOCK:  -10.11 KCAL/MOL
REMARK 923 INTER-LIGAND FREE ENERGY PREDICTED BY IDOCK:   -7.28 KCAL/MOL
REMARK 924 INTRA-LIGAND FREE ENERGY PREDICTED BY IDOCK:   -2.83 KCAL/MOL
REMARK 927      BINDING AFFINITY PREDICTED BY RF-SCORE:    0.00 PKD
ROOT
HETATM    1  C   UNL     1     -10.330   5.225  66.343  1.00  0.00    -0.315 C  
HETATM    2  C   UNL     1     -11.154   6.351  66.944  1.00  0.00    -0.346 C  
ENDROOT
BRANCH   2   3
HETATM    3  C   UNL     1     -10.588   6.788  68.292  1.00  0.00    -0.276 C  
BRANCH   3   4
HETATM    4  C   UNL     1     -10.896   5.760  69.377  1.00  0.00    -0.393 C  
BRANCH   4   5
HETATM    5  C   UNL     1      -9.607   5.197  69.969  1.00  0.00    -0.247 C  
BRANCH   5   6
HETATM    6  C   UNL     1      -9.872   4.541  71.320  1.00  0.00    -0.260 C  
BRANCH   6   7
HETATM    7  C   UNL     1      -8.911   5.077  72.375  1.00  0.00    -0.139 C  
BRANCH   7   8
HETATM    8  C   UNL     1      -9.668   5.481  73.634  1.00  0.00    -0.153 C  
BRANCH   8   9
HETATM    9  C   UNL     1     -11.028   6.064  73.277  1.00  0.00    -0.244 C  
BRANCH   9  10
HETATM   10  C   UNL     1     -10.980   7.586  73.297  1.00  0.00    -0.362 C  
BRANCH  10  11
HETATM   11  C   UNL     1     -11.928   8.164  72.257  1.00  0.00    -0.434 C  
BRANCH  11  12
HETATM   12  C   UNL     1     -11.218   9.212  71.411  1.00  0.00    -0.419 C  
BRANCH  12  13
HETATM   13  C   UNL     1      -9.736   8.891  71.300  1.00  0.00    -0.359 C  
BRANCH  13  14
HETATM   14  C   UNL     1      -9.117   9.621  70.116  1.00  0.00    -0.280 C  
BRANCH  14  15
HETATM   15  C   UNL     1     -10.156  10.490  69.423  1.00  0.00    -0.233 C  
BRANCH  15  16
HETATM   16  C   UNL     1      -9.727  10.801  67.995  1.00  0.00    -0.174 C  
BRANCH  16  17
HETATM   17  C   UNL     1     -10.925  10.761  67.053  1.00  0.00    -0.292 C  
BRANCH  17  18
HETATM   18  C   UNL     1     -11.628  12.113  67.020  1.00  0.00    -0.406 C  
BRANCH  18  19
HETATM   19  C   UNL     1     -10.628  13.239  66.781  1.00  0.00    -0.276 C  
BRANCH  19  20
HETATM   20  C   UNL     1     -10.623  14.215  67.953  1.00  0.00    -0.244 C  
BRANCH  20  21
HETATM   21  C   UNL     1     -11.901  14.089  68.774  1.00  0.00    -0.396 C  
BRANCH  21  22
HETATM   22  C   UNL     1     -11.953  15.136  69.879  1.00  0.00    -0.337 C  
HETATM   23  O   UNL     1     -13.306  15.469  70.162  1.00  0.00    -0.691 OA 
HETATM   24  H   UNL     1     -13.339  16.123  70.851  1.00  0.00     0.000 HD 
ENDBRANCH  21  22
ENDBRANCH  20  21
ENDBRANCH  19  20
ENDBRANCH  18  19
ENDBRANCH  17  18
ENDBRANCH  16  17
ENDBRANCH  15  16
ENDBRANCH  14  15
ENDBRANCH  13  14
ENDBRANCH  12  13
ENDBRANCH  11  12
ENDBRANCH  10  11
ENDBRANCH   9  10
ENDBRANCH   8   9
ENDBRANCH   7   8
ENDBRANCH   6   7
ENDBRANCH   5   6
ENDBRANCH   4   5
ENDBRANCH   3   4
ENDBRANCH   2   3
TORSDOF 20
ENDMDL
MODEL      215
REMARK 921   NORMALIZED FREE ENERGY PREDICTED BY IDOCK:   -3.34 KCAL/MOL
REMARK 922        TOTAL FREE ENERGY PREDICTED BY IDOCK:  -10.11 KCAL/MOL
REMARK 923 INTER-LIGAND FREE ENERGY PREDICTED BY IDOCK:   -7.40 KCAL/MOL
REMARK 924 INTRA-LIGAND FREE ENERGY PREDICTED BY IDOCK:   -2.71 KCAL/MOL
REMARK 927      BINDING AFFINITY PREDICTED BY RF-SCORE:    0.00 PKD
ROOT
HETATM    1  C   UNL     1      -9.017  15.403  66.388  1.00  0.00    -0.351 C  
HETATM    2  C   UNL     1     -10.134  16.205  65.743  1.00  0.00    -0.390 C  
ENDROOT
BRANCH   2   3
HETATM    3  C   UNL     1     -10.980  15.328  64.825  1.00  0.00    -0.403 C  
BRANCH   3   4
HETATM    4  C   UNL     1     -11.146  13.925  65.404  1.00  0.00    -0.310 C  
BRANCH   4   5
HETATM    5  C   UNL     1     -12.172  13.129  64.603  1.00  0.00    -0.471 C  
BRANCH   5   6
HETATM    6  C   UNL     1     -11.508  11.963  63.877  1.00  0.00    -0.511 C  
BRANCH   6   7
HETATM    7  C   UNL     1     -10.087  11.753  64.384  1.00  0.00    -0.319 C  
BRANCH   7   8
HETATM    8  C   UNL     1      -9.616  10.336  64.086  1.00  0.00    -0.376 C  
BRANCH   8   9
HETATM    9  C   UNL     1      -9.075   9.674  65.346  1.00  0.00    -0.265 C  
BRANCH   9  10
HETATM   10  C   UNL     1     -10.217   9.194  66.230  1.00  0.00    -0.257 C  
BRANCH  10  11
HETATM   11  C   UNL     1      -9.839   7.900  66.936  1.00  0.00    -0.309 C  
BRANCH  11  12
HETATM   12  C   UNL     1     -11.021   6.942  66.965  1.00  0.00    -0.404 C  
BRANCH  12  13
HETATM   13  C   UNL     1     -10.649   5.658  67.689  1.00  0.00    -0.279 C  
BRANCH  13  14
HETATM   14  C   UNL     1      -9.980   5.969  69.021  1.00  0.00    -0.199 C  
BRANCH  14  15
HETATM   15  C   UNL     1     -11.023   6.292  70.080  1.00  0.00    -0.411 C  
BRANCH  15  16
HETATM   16  C   UNL     1     -10.607   7.516  70.886  1.00  0.00    -0.227 C  
BRANCH  16  17
HETATM   17  C   UNL     1      -9.122   7.803  70.700  1.00  0.00    -0.153 C  
BRANCH  17  18
HETATM   18  C   UNL     1      -8.856   9.304  70.739  1.00  0.00    -0.282 C  
BRANCH  18  19
HETATM   19  C   UNL     1      -9.837  10.051  69.842  1.00  0.00    -0.266 C  
BRANCH  19  20
HETATM   20  C   UNL     1      -9.096  10.979  68.886  1.00  0.00    -0.132 C  
BRANCH  20  21
HETATM   21  C   UNL     1      -9.948  12.190  68.528  1.00  0.00    -0.180 C  
BRANCH  21  22
HETATM   22  C   UNL     1     -11.403  11.979  68.924  1.00  0.00    -0.278 C  
HETATM   23  O   UNL     1     -12.156  11.570  67.789  1.00  0.00    -0.626 OA 
HETATM   24  H   UNL     1     -13.064  11.439  68.036  1.00  0.00     0.000 HD 
ENDBRANCH  21  22
ENDBRANCH  20  21
ENDBRANCH  19  20
ENDBRANCH  18  19
ENDBRANCH  17  18
ENDBRANCH  16  17
ENDBRANCH  15  16
ENDBRANCH  14  15
ENDBRANCH  13  14
ENDBRANCH  12  13
ENDBRANCH  11  12
ENDBRANCH  10  11
ENDBRANCH   9  10
ENDBRANCH   8   9
ENDBRANCH   7   8
ENDBRANCH   6   7
ENDBRANCH   5   6
ENDBRANCH   4   5
ENDBRANCH   3   4
ENDBRANCH   2   3
TORSDOF 20
ENDMDL
MODEL      216
REMARK 921   NORMALIZED FREE ENERGY PREDICTED BY IDOCK:   -3.34 KCAL/MOL
REMARK 922        TOTAL FREE ENERGY PREDICTED BY IDOCK:  -10.11 KCAL/MOL
REMARK 923 INTER-LIGAND FREE ENERGY PREDICTED BY IDOCK:   -7.69 KCAL/MOL
REMARK 924 INTRA-LIGAND FREE ENERGY PREDICTED BY IDOCK:   -2.41 KCAL/MOL
REMARK 927      BINDING AFFINITY PREDICTED BY RF-SCORE:    0.00 PKD
ROOT
HETATM    1  C   UNL     1     -10.120   5.171  71.620  1.00  0.00    -0.262 C  
HETATM    2  C   UNL     1     -11.245   6.191  71.656  1.00  0.00    -0.342 C  
ENDROOT
BRANCH   2   3
HETATM    3  C   UNL     1     -11.713   6.543  70.247  1.00  0.00    -0.430 C  
BRANCH   3   4
HETATM    4  C   UNL     1     -10.856   5.849  69.193  1.00  0.00    -0.406 C  
BRANCH   4   5
HETATM    5  C   UNL     1     -11.086   6.466  67.817  1.00  0.00    -0.376 C  
BRANCH   5   6
HETATM    6  C   UNL     1      -9.769   6.929  67.203  1.00  0.00    -0.197 C  
BRANCH   6   7
HETATM    7  C   UNL     1      -9.911   8.328  66.617  1.00  0.00    -0.348 C  
BRANCH   7   8
HETATM    8  C   UNL     1      -8.862   9.264  67.203  1.00  0.00    -0.137 C  
BRANCH   8   9
HETATM    9  C   UNL     1      -8.641   8.965  68.680  1.00  0.00    -0.133 C  
BRANCH   9  10
HETATM   10  C   UNL     1      -9.049  10.157  69.533  1.00  0.00    -0.213 C  
BRANCH  10  11
HETATM   11  C   UNL     1     -10.277   9.821  70.368  1.00  0.00    -0.343 C  
BRANCH  11  12
HETATM   12  C   UNL     1     -11.526  10.433  69.749  1.00  0.00    -0.348 C  
BRANCH  12  13
HETATM   13  C   UNL     1     -11.198  11.766  69.095  1.00  0.00    -0.324 C  
BRANCH  13  14
HETATM   14  C   UNL     1     -11.883  11.881  67.740  1.00  0.00    -0.289 C  
BRANCH  14  15
HETATM   15  C   UNL     1     -11.091  12.794  66.816  1.00  0.00    -0.314 C  
BRANCH  15  16
HETATM   16  C   UNL     1     -11.921  14.010  66.426  1.00  0.00    -0.462 C  
BRANCH  16  17
HETATM   17  C   UNL     1     -11.126  15.294  66.639  1.00  0.00    -0.276 C  
BRANCH  17  18
HETATM   18  C   UNL     1     -11.002  15.608  68.125  1.00  0.00    -0.314 C  
BRANCH  18  19
HETATM   19  C   UNL     1     -10.684  17.084  68.342  1.00  0.00    -0.361 C  
BRANCH  19  20
HETATM   20  C   UNL     1     -10.221  17.733  67.042  1.00  0.00    -0.346 C  
BRANCH  20  21
HETATM   21  C   UNL     1     -10.815  19.128  66.886  1.00  0.00    -0.440 C  
BRANCH  21  22
HETATM   22  C   UNL     1      -9.834  20.074  66.206  1.00  0.00    -0.462 C  
HETATM   23  O   UNL     1      -9.054  20.745  67.186  1.00  0.00    -0.570 OA 
HETATM   24  H   UNL     1      -8.442  21.335  66.762  1.00  0.00     0.000 HD 
ENDBRANCH  21  22
ENDBRANCH  20  21
ENDBRANCH  19  20
ENDBRANCH  18  19
ENDBRANCH  17  18
ENDBRANCH  16  17
ENDBRANCH  15  16
ENDBRANCH  14  15
ENDBRANCH  13  14
ENDBRANCH  12  13
ENDBRANCH  11  12
ENDBRANCH  10  11
ENDBRANCH   9  10
ENDBRANCH   8   9
ENDBRANCH   7   8
ENDBRANCH   6   7
ENDBRANCH   5   6
ENDBRANCH   4   5
ENDBRANCH   3   4
ENDBRANCH   2   3
TORSDOF 20
ENDMDL
MODEL      217
REMARK 921   NORMALIZED FREE ENERGY PREDICTED BY IDOCK:   -3.33 KCAL/MOL
REMARK 922        TOTAL FREE ENERGY PREDICTED BY IDOCK:  -10.09 KCAL/MOL
REMARK 923 INTER-LIGAND FREE ENERGY PREDICTED BY IDOCK:   -6.50 KCAL/MOL
REMARK 924 INTRA-LIGAND FREE ENERGY PREDICTED BY IDOCK:   -3.59 KCAL/MOL
REMARK 927      BINDING AFFINITY PREDICTED BY RF-SCORE:    0.00 PKD
ROOT
HETATM    1  C   UNL     1      -6.676  13.815  68.829  1.00  0.00    -0.103 C  
HETATM    2  C   UNL     1      -7.635  12.675  68.532  1.00  0.00    -0.121 C  
ENDROOT
BRANCH   2   3
HETATM    3  C   UNL     1      -6.962  11.594  67.692  1.00  0.00    -0.095 C  
BRANCH   3   4
HETATM    4  C   UNL     1      -6.954  10.255  68.423  1.00  0.00    -0.069 C  
BRANCH   4   5
HETATM    5  C   UNL     1      -7.820  10.319  69.678  1.00  0.00    -0.168 C  
BRANCH   5   6
HETATM    6  C   UNL     1      -7.528   9.139  70.599  1.00  0.00    -0.129 C  
BRANCH   6   7
HETATM    7  C   UNL     1      -8.805   8.657  71.277  1.00  0.00    -0.263 C  
BRANCH   7   8
HETATM    8  C   UNL     1      -9.987   9.527  70.873  1.00  0.00    -0.308 C  
BRANCH   8   9
HETATM    9  C   UNL     1     -11.301   8.858  71.256  1.00  0.00    -0.371 C  
BRANCH   9  10
HETATM   10  C   UNL     1     -11.063   7.415  71.676  1.00  0.00    -0.264 C  
BRANCH  10  11
HETATM   11  C   UNL     1     -11.554   6.457  70.599  1.00  0.00    -0.412 C  
BRANCH  11  12
HETATM   12  C   UNL     1     -10.378   5.764  69.926  1.00  0.00    -0.330 C  
BRANCH  12  13
HETATM   13  C   UNL     1     -10.342   6.097  68.443  1.00  0.00    -0.240 C  
BRANCH  13  14
HETATM   14  C   UNL     1      -9.044   6.810  68.085  1.00  0.00    -0.123 C  
BRANCH  14  15
HETATM   15  C   UNL     1      -9.291   7.863  67.015  1.00  0.00    -0.200 C  
BRANCH  15  16
HETATM   16  C   UNL     1     -10.648   8.525  67.218  1.00  0.00    -0.315 C  
BRANCH  16  17
HETATM   17  C   UNL     1     -10.574  10.013  66.899  1.00  0.00    -0.261 C  
BRANCH  17  18
HETATM   18  C   UNL     1     -11.279  10.829  67.976  1.00  0.00    -0.372 C  
BRANCH  18  19
HETATM   19  C   UNL     1     -11.324  12.305  67.597  1.00  0.00    -0.374 C  
BRANCH  19  20
HETATM   20  C   UNL     1     -11.856  12.482  66.179  1.00  0.00    -0.459 C  
BRANCH  20  21
HETATM   21  C   UNL     1     -12.370  13.900  65.961  1.00  0.00    -0.511 C  
BRANCH  21  22
HETATM   22  C   UNL     1     -11.891  14.463  64.629  1.00  0.00    -0.451 C  
HETATM   23  O   UNL     1     -10.821  13.672  64.129  1.00  0.00    -0.560 OA 
HETATM   24  H   UNL     1     -10.522  14.023  63.298  1.00  0.00     0.000 HD 
ENDBRANCH  21  22
ENDBRANCH  20  21
ENDBRANCH  19  20
ENDBRANCH  18  19
ENDBRANCH  17  18
ENDBRANCH  16  17
ENDBRANCH  15  16
ENDBRANCH  14  15
ENDBRANCH  13  14
ENDBRANCH  12  13
ENDBRANCH  11  12
ENDBRANCH  10  11
ENDBRANCH   9  10
ENDBRANCH   8   9
ENDBRANCH   7   8
ENDBRANCH   6   7
ENDBRANCH   5   6
ENDBRANCH   4   5
ENDBRANCH   3   4
ENDBRANCH   2   3
TORSDOF 20
ENDMDL
MODEL      218
REMARK 921   NORMALIZED FREE ENERGY PREDICTED BY IDOCK:   -3.33 KCAL/MOL
REMARK 922        TOTAL FREE ENERGY PREDICTED BY IDOCK:  -10.09 KCAL/MOL
REMARK 923 INTER-LIGAND FREE ENERGY PREDICTED BY IDOCK:   -6.89 KCAL/MOL
REMARK 924 INTRA-LIGAND FREE ENERGY PREDICTED BY IDOCK:   -3.20 KCAL/MOL
REMARK 927      BINDING AFFINITY PREDICTED BY RF-SCORE:    0.00 PKD
ROOT
HETATM    1  C   UNL     1     -13.029  10.212  71.659  1.00  0.00    -0.561 C  
HETATM    2  C   UNL     1     -12.948   8.820  72.262  1.00  0.00    -0.462 C  
ENDROOT
BRANCH   2   3
HETATM    3  C   UNL     1     -11.511   8.307  72.269  1.00  0.00    -0.452 C  
BRANCH   3   4
HETATM    4  C   UNL     1     -11.470   6.784  72.186  1.00  0.00    -0.319 C  
BRANCH   4   5
HETATM    5  C   UNL     1     -10.682   6.331  70.961  1.00  0.00    -0.313 C  
BRANCH   5   6
HETATM    6  C   UNL     1     -11.378   6.767  69.676  1.00  0.00    -0.326 C  
BRANCH   6   7
HETATM    7  C   UNL     1     -10.899   5.932  68.495  1.00  0.00    -0.323 C  
BRANCH   7   8
HETATM    8  C   UNL     1     -10.826   6.781  67.232  1.00  0.00    -0.443 C  
BRANCH   8   9
HETATM    9  C   UNL     1      -9.496   6.570  66.520  1.00  0.00    -0.190 C  
BRANCH   9  10
HETATM   10  C   UNL     1      -8.756   7.891  66.369  1.00  0.00    -0.170 C  
BRANCH  10  11
HETATM   11  C   UNL     1      -8.088   8.282  67.680  1.00  0.00    -0.126 C  
BRANCH  11  12
HETATM   12  C   UNL     1      -7.593   9.720  67.618  1.00  0.00    -0.091 C  
BRANCH  12  13
HETATM   13  C   UNL     1      -8.197  10.539  68.748  1.00  0.00    -0.134 C  
BRANCH  13  14
HETATM   14  C   UNL     1      -9.492   9.904  69.237  1.00  0.00    -0.218 C  
BRANCH  14  15
HETATM   15  C   UNL     1     -10.679  10.801  68.921  1.00  0.00    -0.259 C  
BRANCH  15  16
HETATM   16  C   UNL     1     -11.253  10.467  67.550  1.00  0.00    -0.254 C  
BRANCH  16  17
HETATM   17  C   UNL     1     -11.397  11.727  66.705  1.00  0.00    -0.381 C  
BRANCH  17  18
HETATM   18  C   UNL     1     -10.116  12.000  65.926  1.00  0.00    -0.264 C  
BRANCH  18  19
HETATM   19  C   UNL     1      -9.441  13.275  66.422  1.00  0.00    -0.225 C  
BRANCH  19  20
HETATM   20  C   UNL     1     -10.421  14.129  67.218  1.00  0.00    -0.272 C  
BRANCH  20  21
HETATM   21  C   UNL     1      -9.824  15.495  67.535  1.00  0.00    -0.220 C  
BRANCH  21  22
HETATM   22  C   UNL     1      -9.074  16.061  66.336  1.00  0.00    -0.319 C  
HETATM   23  O   UNL     1      -9.967  16.803  65.516  1.00  0.00    -0.567 OA 
HETATM   24  H   UNL     1      -9.499  17.156  64.768  1.00  0.00     0.000 HD 
ENDBRANCH  21  22
ENDBRANCH  20  21
ENDBRANCH  19  20
ENDBRANCH  18  19
ENDBRANCH  17  18
ENDBRANCH  16  17
ENDBRANCH  15  16
ENDBRANCH  14  15
ENDBRANCH  13  14
ENDBRANCH  12  13
ENDBRANCH  11  12
ENDBRANCH  10  11
ENDBRANCH   9  10
ENDBRANCH   8   9
ENDBRANCH   7   8
ENDBRANCH   6   7
ENDBRANCH   5   6
ENDBRANCH   4   5
ENDBRANCH   3   4
ENDBRANCH   2   3
TORSDOF 20
ENDMDL
MODEL      219
REMARK 921   NORMALIZED FREE ENERGY PREDICTED BY IDOCK:   -3.33 KCAL/MOL
REMARK 922        TOTAL FREE ENERGY PREDICTED BY IDOCK:  -10.09 KCAL/MOL
REMARK 923 INTER-LIGAND FREE ENERGY PREDICTED BY IDOCK:   -7.71 KCAL/MOL
REMARK 924 INTRA-LIGAND FREE ENERGY PREDICTED BY IDOCK:   -2.38 KCAL/MOL
REMARK 927      BINDING AFFINITY PREDICTED BY RF-SCORE:    0.00 PKD
ROOT
HETATM    1  C   UNL     1     -10.349   4.515  65.910  1.00  0.00    -0.289 C  
HETATM    2  C   UNL     1      -9.893   5.585  66.887  1.00  0.00    -0.181 C  
ENDROOT
BRANCH   2   3
HETATM    3  C   UNL     1     -11.044   6.511  67.266  1.00  0.00    -0.429 C  
BRANCH   3   4
HETATM    4  C   UNL     1     -10.582   7.964  67.333  1.00  0.00    -0.342 C  
BRANCH   4   5
HETATM    5  C   UNL     1      -9.519   8.242  66.275  1.00  0.00    -0.271 C  
BRANCH   5   6
HETATM    6  C   UNL     1      -9.701   9.633  65.675  1.00  0.00    -0.363 C  
BRANCH   6   7
HETATM    7  C   UNL     1     -10.389  10.561  66.669  1.00  0.00    -0.295 C  
BRANCH   7   8
HETATM    8  C   UNL     1     -10.828  11.849  65.984  1.00  0.00    -0.342 C  
BRANCH   8   9
HETATM    9  C   UNL     1     -11.838  12.597  66.844  1.00  0.00    -0.425 C  
BRANCH   9  10
HETATM   10  C   UNL     1     -11.617  14.099  66.743  1.00  0.00    -0.409 C  
BRANCH  10  11
HETATM   11  C   UNL     1     -12.029  14.787  68.037  1.00  0.00    -0.261 C  
BRANCH  11  12
HETATM   12  C   UNL     1     -11.467  14.043  69.240  1.00  0.00    -0.344 C  
BRANCH  12  13
HETATM   13  C   UNL     1     -12.435  14.112  70.410  1.00  0.00    -0.424 C  
BRANCH  13  14
HETATM   14  C   UNL     1     -12.623  12.735  71.032  1.00  0.00    -0.362 C  
BRANCH  14  15
HETATM   15  C   UNL     1     -11.886  11.678  70.223  1.00  0.00    -0.414 C  
BRANCH  15  16
HETATM   16  C   UNL     1     -12.643  10.357  70.252  1.00  0.00    -0.262 C  
BRANCH  16  17
HETATM   17  C   UNL     1     -13.048  10.000  71.678  1.00  0.00    -0.547 C  
BRANCH  17  18
HETATM   18  C   UNL     1     -12.753   8.534  71.969  1.00  0.00    -0.421 C  
BRANCH  18  19
HETATM   19  C   UNL     1     -11.251   8.294  72.077  1.00  0.00    -0.389 C  
BRANCH  19  20
HETATM   20  C   UNL     1     -10.740   7.518  70.868  1.00  0.00    -0.244 C  
BRANCH  20  21
HETATM   21  C   UNL     1      -9.217   7.548  70.803  1.00  0.00    -0.158 C  
BRANCH  21  22
HETATM   22  C   UNL     1      -8.662   8.817  71.436  1.00  0.00    -0.214 C  
HETATM   23  O   UNL     1      -8.654   9.869  70.479  1.00  0.00    -0.328 OA 
HETATM   24  H   UNL     1      -8.307  10.660  70.875  1.00  0.00     0.000 HD 
ENDBRANCH  21  22
ENDBRANCH  20  21
ENDBRANCH  19  20
ENDBRANCH  18  19
ENDBRANCH  17  18
ENDBRANCH  16  17
ENDBRANCH  15  16
ENDBRANCH  14  15
ENDBRANCH  13  14
ENDBRANCH  12  13
ENDBRANCH  11  12
ENDBRANCH  10  11
ENDBRANCH   9  10
ENDBRANCH   8   9
ENDBRANCH   7   8
ENDBRANCH   6   7
ENDBRANCH   5   6
ENDBRANCH   4   5
ENDBRANCH   3   4
ENDBRANCH   2   3
TORSDOF 20
ENDMDL
MODEL      220
REMARK 921   NORMALIZED FREE ENERGY PREDICTED BY IDOCK:   -3.32 KCAL/MOL
REMARK 922        TOTAL FREE ENERGY PREDICTED BY IDOCK:  -10.08 KCAL/MOL
REMARK 923 INTER-LIGAND FREE ENERGY PREDICTED BY IDOCK:   -7.19 KCAL/MOL
REMARK 924 INTRA-LIGAND FREE ENERGY PREDICTED BY IDOCK:   -2.89 KCAL/MOL
REMARK 927      BINDING AFFINITY PREDICTED BY RF-SCORE:    0.00 PKD
ROOT
HETATM    1  C   UNL     1     -12.449   9.222  71.970  1.00  0.00    -0.451 C  
HETATM    2  C   UNL     1     -11.456   8.100  72.220  1.00  0.00    -0.435 C  
ENDROOT
BRANCH   2   3
HETATM    3  C   UNL     1     -12.078   6.739  71.923  1.00  0.00    -0.375 C  
BRANCH   3   4
HETATM    4  C   UNL     1     -11.531   5.668  72.862  1.00  0.00    -0.297 C  
BRANCH   4   5
HETATM    5  C   UNL     1     -10.006   5.644  72.826  1.00  0.00    -0.195 C  
BRANCH   5   6
HETATM    6  C   UNL     1      -9.504   4.978  71.549  1.00  0.00    -0.203 C  
BRANCH   6   7
HETATM    7  C   UNL     1      -8.549   5.900  70.801  1.00  0.00    -0.130 C  
BRANCH   7   8
HETATM    8  C   UNL     1      -8.840   5.875  69.306  1.00  0.00    -0.118 C  
BRANCH   8   9
HETATM    9  C   UNL     1     -10.244   5.346  69.042  1.00  0.00    -0.291 C  
BRANCH   9  10
HETATM   10  C   UNL     1     -11.155   6.464  68.557  1.00  0.00    -0.385 C  
BRANCH  10  11
HETATM   11  C   UNL     1     -10.735   6.931  67.170  1.00  0.00    -0.436 C  
BRANCH  11  12
HETATM   12  C   UNL     1     -10.403   8.416  67.185  1.00  0.00    -0.381 C  
BRANCH  12  13
HETATM   13  C   UNL     1     -10.621   8.997  68.573  1.00  0.00    -0.196 C  
BRANCH  13  14
HETATM   14  C   UNL     1      -9.360   9.695  69.066  1.00  0.00    -0.159 C  
BRANCH  14  15
HETATM   15  C   UNL     1      -8.212   9.474  68.093  1.00  0.00    -0.114 C  
BRANCH  15  16
HETATM   16  C   UNL     1      -7.504  10.788  67.792  1.00  0.00    -0.094 C  
BRANCH  16  17
HETATM   17  C   UNL     1      -8.481  11.808  67.221  1.00  0.00    -0.160 C  
BRANCH  17  18
HETATM   18  C   UNL     1      -8.986  11.361  65.854  1.00  0.00    -0.184 C  
BRANCH  18  19
HETATM   19  C   UNL     1     -10.175  12.207  65.412  1.00  0.00    -0.299 C  
BRANCH  19  20
HETATM   20  C   UNL     1     -10.590  11.853  63.988  1.00  0.00    -0.422 C  
BRANCH  20  21
HETATM   21  C   UNL     1     -12.102  11.940  63.821  1.00  0.00    -0.547 C  
BRANCH  21  22
HETATM   22  C   UNL     1     -12.633  13.289  64.289  1.00  0.00    -0.182 C  
HETATM   23  O   UNL     1     -12.459  14.257  63.263  1.00  0.00    -1.133 OA 
HETATM   24  H   UNL     1     -12.790  15.098  63.555  1.00  0.00     0.000 HD 
ENDBRANCH  21  22
ENDBRANCH  20  21
ENDBRANCH  19  20
ENDBRANCH  18  19
ENDBRANCH  17  18
ENDBRANCH  16  17
ENDBRANCH  15  16
ENDBRANCH  14  15
ENDBRANCH  13  14
ENDBRANCH  12  13
ENDBRANCH  11  12
ENDBRANCH  10  11
ENDBRANCH   9  10
ENDBRANCH   8   9
ENDBRANCH   7   8
ENDBRANCH   6   7
ENDBRANCH   5   6
ENDBRANCH   4   5
ENDBRANCH   3   4
ENDBRANCH   2   3
TORSDOF 20
ENDMDL
MODEL      221
REMARK 921   NORMALIZED FREE ENERGY PREDICTED BY IDOCK:   -3.32 KCAL/MOL
REMARK 922        TOTAL FREE ENERGY PREDICTED BY IDOCK:  -10.08 KCAL/MOL
REMARK 923 INTER-LIGAND FREE ENERGY PREDICTED BY IDOCK:   -6.11 KCAL/MOL
REMARK 924 INTRA-LIGAND FREE ENERGY PREDICTED BY IDOCK:   -3.96 KCAL/MOL
REMARK 927      BINDING AFFINITY PREDICTED BY RF-SCORE:    0.00 PKD
ROOT
HETATM    1  C   UNL     1      -6.351  13.606  69.020  1.00  0.00    -0.102 C  
HETATM    2  C   UNL     1      -7.384  12.665  68.424  1.00  0.00    -0.118 C  
ENDROOT
BRANCH   2   3
HETATM    3  C   UNL     1      -6.714  11.509  67.687  1.00  0.00    -0.079 C  
BRANCH   3   4
HETATM    4  C   UNL     1      -6.899  10.195  68.440  1.00  0.00    -0.061 C  
BRANCH   4   5
HETATM    5  C   UNL     1      -8.134  10.255  69.334  1.00  0.00    -0.167 C  
BRANCH   5   6
HETATM    6  C   UNL     1      -7.974   9.337  70.542  1.00  0.00    -0.188 C  
BRANCH   6   7
HETATM    7  C   UNL     1      -9.298   9.184  71.281  1.00  0.00    -0.285 C  
BRANCH   7   8
HETATM    8  C   UNL     1     -10.439   9.780  70.466  1.00  0.00    -0.366 C  
BRANCH   8   9
HETATM    9  C   UNL     1     -11.778   9.226  70.933  1.00  0.00    -0.360 C  
BRANCH   9  10
HETATM   10  C   UNL     1     -11.584   8.274  72.105  1.00  0.00    -0.428 C  
BRANCH  10  11
HETATM   11  C   UNL     1     -12.095   6.884  71.754  1.00  0.00    -0.385 C  
BRANCH  11  12
HETATM   12  C   UNL     1     -10.997   5.848  71.947  1.00  0.00    -0.321 C  
BRANCH  12  13
HETATM   13  C   UNL     1     -10.592   5.246  70.611  1.00  0.00    -0.263 C  
BRANCH  13  14
HETATM   14  C   UNL     1      -9.282   5.853  70.125  1.00  0.00    -0.169 C  
BRANCH  14  15
HETATM   15  C   UNL     1      -9.343   6.129  68.630  1.00  0.00    -0.121 C  
BRANCH  15  16
HETATM   16  C   UNL     1     -10.745   6.565  68.223  1.00  0.00    -0.341 C  
BRANCH  16  17
HETATM   17  C   UNL     1     -10.685   7.778  67.303  1.00  0.00    -0.326 C  
BRANCH  17  18
HETATM   18  C   UNL     1      -9.309   7.896  66.658  1.00  0.00    -0.244 C  
BRANCH  18  19
HETATM   19  C   UNL     1      -9.251   9.097  65.720  1.00  0.00    -0.294 C  
BRANCH  19  20
HETATM   20  C   UNL     1     -10.142  10.225  66.232  1.00  0.00    -0.300 C  
BRANCH  20  21
HETATM   21  C   UNL     1      -9.983  11.477  65.378  1.00  0.00    -0.288 C  
BRANCH  21  22
HETATM   22  C   UNL     1     -10.870  11.418  64.141  1.00  0.00    -0.365 C  
HETATM   23  O   UNL     1     -10.074  11.561  62.971  1.00  0.00    -0.539 OA 
HETATM   24  H   UNL     1     -10.627  11.525  62.200  1.00  0.00     0.000 HD 
ENDBRANCH  21  22
ENDBRANCH  20  21
ENDBRANCH  19  20
ENDBRANCH  18  19
ENDBRANCH  17  18
ENDBRANCH  16  17
ENDBRANCH  15  16
ENDBRANCH  14  15
ENDBRANCH  13  14
ENDBRANCH  12  13
ENDBRANCH  11  12
ENDBRANCH  10  11
ENDBRANCH   9  10
ENDBRANCH   8   9
ENDBRANCH   7   8
ENDBRANCH   6   7
ENDBRANCH   5   6
ENDBRANCH   4   5
ENDBRANCH   3   4
ENDBRANCH   2   3
TORSDOF 20
ENDMDL
MODEL      222
REMARK 921   NORMALIZED FREE ENERGY PREDICTED BY IDOCK:   -3.32 KCAL/MOL
REMARK 922        TOTAL FREE ENERGY PREDICTED BY IDOCK:  -10.08 KCAL/MOL
REMARK 923 INTER-LIGAND FREE ENERGY PREDICTED BY IDOCK:   -7.57 KCAL/MOL
REMARK 924 INTRA-LIGAND FREE ENERGY PREDICTED BY IDOCK:   -2.51 KCAL/MOL
REMARK 927      BINDING AFFINITY PREDICTED BY RF-SCORE:    0.00 PKD
ROOT
HETATM    1  C   UNL     1     -11.260  15.253  64.815  1.00  0.00    -0.405 C  
HETATM    2  C   UNL     1     -12.252  14.103  64.790  1.00  0.00    -0.457 C  
ENDROOT
BRANCH   2   3
HETATM    3  C   UNL     1     -12.043  13.224  63.560  1.00  0.00    -0.550 C  
BRANCH   3   4
HETATM    4  C   UNL     1     -11.461  11.867  63.946  1.00  0.00    -0.511 C  
BRANCH   4   5
HETATM    5  C   UNL     1     -10.036  11.722  63.422  1.00  0.00    -0.446 C  
BRANCH   5   6
HETATM    6  C   UNL     1      -9.527  10.298  63.621  1.00  0.00    -0.348 C  
BRANCH   6   7
HETATM    7  C   UNL     1      -9.016  10.103  65.044  1.00  0.00    -0.227 C  
BRANCH   7   8
HETATM    8  C   UNL     1     -10.000   9.272  65.857  1.00  0.00    -0.289 C  
BRANCH   8   9
HETATM    9  C   UNL     1      -9.309   8.049  66.446  1.00  0.00    -0.259 C  
BRANCH   9  10
HETATM   10  C   UNL     1      -8.894   8.311  67.887  1.00  0.00    -0.138 C  
BRANCH  10  11
HETATM   11  C   UNL     1     -10.096   8.736  68.719  1.00  0.00    -0.213 C  
BRANCH  11  12
HETATM   12  C   UNL     1      -9.786  10.011  69.491  1.00  0.00    -0.253 C  
BRANCH  12  13
HETATM   13  C   UNL     1     -10.399  11.216  68.795  1.00  0.00    -0.222 C  
BRANCH  13  14
HETATM   14  C   UNL     1      -9.319  12.050  68.118  1.00  0.00    -0.199 C  
BRANCH  14  15
HETATM   15  C   UNL     1      -9.874  13.403  67.697  1.00  0.00    -0.226 C  
BRANCH  15  16
HETATM   16  C   UNL     1     -10.383  14.173  68.909  1.00  0.00    -0.204 C  
BRANCH  16  17
HETATM   17  C   UNL     1     -11.747  14.789  68.621  1.00  0.00    -0.356 C  
BRANCH  17  18
HETATM   18  C   UNL     1     -11.617  16.287  68.370  1.00  0.00    -0.154 C  
BRANCH  18  19
HETATM   19  C   UNL     1     -10.473  16.877  69.187  1.00  0.00    -0.335 C  
BRANCH  19  20
HETATM   20  C   UNL     1      -9.701  17.906  68.369  1.00  0.00    -0.340 C  
BRANCH  20  21
HETATM   21  C   UNL     1     -10.650  18.820  67.603  1.00  0.00    -0.481 C  
BRANCH  21  22
HETATM   22  C   UNL     1     -10.173  19.041  66.174  1.00  0.00    -0.446 C  
HETATM   23  O   UNL     1      -9.129  18.126  65.869  1.00  0.00    -0.509 OA 
HETATM   24  H   UNL     1      -8.831  18.263  64.977  1.00  0.00     0.000 HD 
ENDBRANCH  21  22
ENDBRANCH  20  21
ENDBRANCH  19  20
ENDBRANCH  18  19
ENDBRANCH  17  18
ENDBRANCH  16  17
ENDBRANCH  15  16
ENDBRANCH  14  15
ENDBRANCH  13  14
ENDBRANCH  12  13
ENDBRANCH  11  12
ENDBRANCH  10  11
ENDBRANCH   9  10
ENDBRANCH   8   9
ENDBRANCH   7   8
ENDBRANCH   6   7
ENDBRANCH   5   6
ENDBRANCH   4   5
ENDBRANCH   3   4
ENDBRANCH   2   3
TORSDOF 20
ENDMDL
MODEL      223
REMARK 921   NORMALIZED FREE ENERGY PREDICTED BY IDOCK:   -3.32 KCAL/MOL
REMARK 922        TOTAL FREE ENERGY PREDICTED BY IDOCK:  -10.06 KCAL/MOL
REMARK 923 INTER-LIGAND FREE ENERGY PREDICTED BY IDOCK:   -7.59 KCAL/MOL
REMARK 924 INTRA-LIGAND FREE ENERGY PREDICTED BY IDOCK:   -2.47 KCAL/MOL
REMARK 927      BINDING AFFINITY PREDICTED BY RF-SCORE:    0.00 PKD
ROOT
HETATM    1  C   UNL     1     -12.945  10.924  71.451  1.00  0.00    -0.527 C  
HETATM    2  C   UNL     1     -13.493   9.643  72.059  1.00  0.00    -0.514 C  
ENDROOT
BRANCH   2   3
HETATM    3  C   UNL     1     -12.366   8.679  72.416  1.00  0.00    -0.426 C  
BRANCH   3   4
HETATM    4  C   UNL     1     -11.053   9.101  71.764  1.00  0.00    -0.437 C  
BRANCH   4   5
HETATM    5  C   UNL     1      -9.897   8.246  72.274  1.00  0.00    -0.364 C  
BRANCH   5   6
HETATM    6  C   UNL     1      -9.442   7.255  71.208  1.00  0.00    -0.156 C  
BRANCH   6   7
HETATM    7  C   UNL     1     -10.620   6.805  70.354  1.00  0.00    -0.262 C  
BRANCH   7   8
HETATM    8  C   UNL     1     -10.429   5.367  69.891  1.00  0.00    -0.378 C  
BRANCH   8   9
HETATM    9  C   UNL     1      -9.462   5.305  68.716  1.00  0.00    -0.171 C  
BRANCH   9  10
HETATM   10  C   UNL     1     -10.206   5.481  67.401  1.00  0.00    -0.253 C  
BRANCH  10  11
HETATM   11  C   UNL     1      -9.461   6.448  66.491  1.00  0.00    -0.189 C  
BRANCH  11  12
HETATM   12  C   UNL     1      -9.935   7.875  66.727  1.00  0.00    -0.333 C  
BRANCH  12  13
HETATM   13  C   UNL     1      -8.811   8.721  67.303  1.00  0.00    -0.141 C  
BRANCH  13  14
HETATM   14  C   UNL     1      -9.354   9.707  68.329  1.00  0.00    -0.138 C  
BRANCH  14  15
HETATM   15  C   UNL     1     -10.860   9.860  68.177  1.00  0.00    -0.282 C  
BRANCH  15  16
HETATM   16  C   UNL     1     -11.261  11.327  68.267  1.00  0.00    -0.331 C  
BRANCH  16  17
HETATM   17  C   UNL     1     -10.746  12.100  67.058  1.00  0.00    -0.272 C  
BRANCH  17  18
HETATM   18  C   UNL     1     -11.888  12.831  66.362  1.00  0.00    -0.472 C  
BRANCH  18  19
HETATM   19  C   UNL     1     -11.708  14.342  66.467  1.00  0.00    -0.409 C  
BRANCH  19  20
HETATM   20  C   UNL     1     -10.852  14.700  67.677  1.00  0.00    -0.284 C  
BRANCH  20  21
HETATM   21  C   UNL     1     -11.499  15.811  68.495  1.00  0.00    -0.381 C  
BRANCH  21  22
HETATM   22  C   UNL     1     -11.833  15.337  69.904  1.00  0.00    -0.335 C  
HETATM   23  O   UNL     1     -13.013  14.546  69.878  1.00  0.00    -0.533 OA 
HETATM   24  H   UNL     1     -13.221  14.250  70.757  1.00  0.00     0.000 HD 
ENDBRANCH  21  22
ENDBRANCH  20  21
ENDBRANCH  19  20
ENDBRANCH  18  19
ENDBRANCH  17  18
ENDBRANCH  16  17
ENDBRANCH  15  16
ENDBRANCH  14  15
ENDBRANCH  13  14
ENDBRANCH  12  13
ENDBRANCH  11  12
ENDBRANCH  10  11
ENDBRANCH   9  10
ENDBRANCH   8   9
ENDBRANCH   7   8
ENDBRANCH   6   7
ENDBRANCH   5   6
ENDBRANCH   4   5
ENDBRANCH   3   4
ENDBRANCH   2   3
TORSDOF 20
ENDMDL
MODEL      224
REMARK 921   NORMALIZED FREE ENERGY PREDICTED BY IDOCK:   -3.32 KCAL/MOL
REMARK 922        TOTAL FREE ENERGY PREDICTED BY IDOCK:  -10.06 KCAL/MOL
REMARK 923 INTER-LIGAND FREE ENERGY PREDICTED BY IDOCK:   -7.60 KCAL/MOL
REMARK 924 INTRA-LIGAND FREE ENERGY PREDICTED BY IDOCK:   -2.46 KCAL/MOL
REMARK 927      BINDING AFFINITY PREDICTED BY RF-SCORE:    0.00 PKD
ROOT
HETATM    1  C   UNL     1      -8.880   9.929  68.395  1.00  0.00    -0.120 C  
HETATM    2  C   UNL     1      -9.472   8.881  69.322  1.00  0.00    -0.161 C  
ENDROOT
BRANCH   2   3
HETATM    3  C   UNL     1      -9.153   9.195  70.781  1.00  0.00    -0.313 C  
BRANCH   3   4
HETATM    4  C   UNL     1      -9.054   7.917  71.609  1.00  0.00    -0.175 C  
BRANCH   4   5
HETATM    5  C   UNL     1      -9.964   7.994  72.831  1.00  0.00    -0.360 C  
BRANCH   5   6
HETATM    6  C   UNL     1     -10.861   6.764  72.919  1.00  0.00    -0.304 C  
BRANCH   6   7
HETATM    7  C   UNL     1     -11.152   6.210  71.530  1.00  0.00    -0.342 C  
BRANCH   7   8
HETATM    8  C   UNL     1     -12.294   6.976  70.876  1.00  0.00    -0.361 C  
BRANCH   8   9
HETATM    9  C   UNL     1     -13.489   7.063  71.815  1.00  0.00    -0.307 C  
BRANCH   9  10
HETATM   10  C   UNL     1     -13.991   8.497  71.910  1.00  0.00    -0.498 C  
BRANCH  10  11
HETATM   11  C   UNL     1     -13.105   9.428  71.094  1.00  0.00    -0.294 C  
BRANCH  11  12
HETATM   12  C   UNL     1     -13.054  10.809  71.732  1.00  0.00    -0.573 C  
BRANCH  12  13
HETATM   13  C   UNL     1     -12.386  11.804  70.796  1.00  0.00    -0.433 C  
BRANCH  13  14
HETATM   14  C   UNL     1     -12.198  11.194  69.413  1.00  0.00    -0.329 C  
BRANCH  14  15
HETATM   15  C   UNL     1     -11.863  12.274  68.394  1.00  0.00    -0.358 C  
BRANCH  15  16
HETATM   16  C   UNL     1     -11.965  13.656  69.026  1.00  0.00    -0.392 C  
BRANCH  16  17
HETATM   17  C   UNL     1     -10.723  14.483  68.714  1.00  0.00    -0.257 C  
BRANCH  17  18
HETATM   18  C   UNL     1     -10.947  15.343  67.476  1.00  0.00    -0.315 C  
BRANCH  18  19
HETATM   19  C   UNL     1     -10.718  16.817  67.792  1.00  0.00    -0.321 C  
BRANCH  19  20
HETATM   20  C   UNL     1      -9.233  17.160  67.720  1.00  0.00    -0.241 C  
BRANCH  20  21
HETATM   21  C   UNL     1      -8.687  16.933  66.316  1.00  0.00    -0.321 C  
BRANCH  21  22
HETATM   22  C   UNL     1      -7.270  17.475  66.179  1.00  0.00    -0.308 C  
HETATM   23  O   UNL     1      -7.285  18.673  65.414  1.00  0.00    -0.520 OA 
HETATM   24  H   UNL     1      -6.401  19.010  65.329  1.00  0.00     0.000 HD 
ENDBRANCH  21  22
ENDBRANCH  20  21
ENDBRANCH  19  20
ENDBRANCH  18  19
ENDBRANCH  17  18
ENDBRANCH  16  17
ENDBRANCH  15  16
ENDBRANCH  14  15
ENDBRANCH  13  14
ENDBRANCH  12  13
ENDBRANCH  11  12
ENDBRANCH  10  11
ENDBRANCH   9  10
ENDBRANCH   8   9
ENDBRANCH   7   8
ENDBRANCH   6   7
ENDBRANCH   5   6
ENDBRANCH   4   5
ENDBRANCH   3   4
ENDBRANCH   2   3
TORSDOF 20
ENDMDL
MODEL      225
REMARK 921   NORMALIZED FREE ENERGY PREDICTED BY IDOCK:   -3.30 KCAL/MOL
REMARK 922        TOTAL FREE ENERGY PREDICTED BY IDOCK:  -10.02 KCAL/MOL
REMARK 923 INTER-LIGAND FREE ENERGY PREDICTED BY IDOCK:   -7.34 KCAL/MOL
REMARK 924 INTRA-LIGAND FREE ENERGY PREDICTED BY IDOCK:   -2.68 KCAL/MOL
REMARK 927      BINDING AFFINITY PREDICTED BY RF-SCORE:    0.00 PKD
ROOT
HETATM    1  C   UNL     1     -12.109   9.901  71.403  1.00  0.00    -0.501 C  
HETATM    2  C   UNL     1     -12.240   8.699  72.322  1.00  0.00    -0.447 C  
ENDROOT
BRANCH   2   3
HETATM    3  C   UNL     1     -11.142   7.676  72.050  1.00  0.00    -0.300 C  
BRANCH   3   4
HETATM    4  C   UNL     1     -11.725   6.278  71.868  1.00  0.00    -0.370 C  
BRANCH   4   5
HETATM    5  C   UNL     1     -11.173   5.623  70.605  1.00  0.00    -0.089 C  
BRANCH   5   6
HETATM    6  C   UNL     1     -10.997   6.651  69.492  1.00  0.00    -0.367 C  
BRANCH   6   7
HETATM    7  C   UNL     1     -10.396   6.003  68.251  1.00  0.00    -0.252 C  
BRANCH   7   8
HETATM    8  C   UNL     1     -10.304   7.010  67.112  1.00  0.00    -0.351 C  
BRANCH   8   9
HETATM    9  C   UNL     1      -9.163   6.651  66.170  1.00  0.00    -0.120 C  
BRANCH   9  10
HETATM   10  C   UNL     1      -8.032   7.663  66.287  1.00  0.00    -0.105 C  
BRANCH  10  11
HETATM   11  C   UNL     1      -7.880   8.128  67.729  1.00  0.00    -0.118 C  
BRANCH  11  12
HETATM   12  C   UNL     1      -7.234   9.505  67.779  1.00  0.00    -0.082 C  
BRANCH  12  13
HETATM   13  C   UNL     1      -7.925  10.380  68.814  1.00  0.00    -0.122 C  
BRANCH  13  14
HETATM   14  C   UNL     1      -9.384   9.973  68.972  1.00  0.00    -0.183 C  
BRANCH  14  15
HETATM   15  C   UNL     1     -10.303  11.068  68.454  1.00  0.00    -0.200 C  
BRANCH  15  16
HETATM   16  C   UNL     1     -10.889  10.682  67.103  1.00  0.00    -0.328 C  
BRANCH  16  17
HETATM   17  C   UNL     1     -10.109  11.339  65.970  1.00  0.00    -0.283 C  
BRANCH  17  18
HETATM   18  C   UNL     1      -9.973  10.387  64.788  1.00  0.00    -0.409 C  
BRANCH  18  19
HETATM   19  C   UNL     1     -10.441  11.052  63.499  1.00  0.00    -0.365 C  
BRANCH  19  20
HETATM   20  C   UNL     1     -10.579  12.559  63.689  1.00  0.00    -0.446 C  
BRANCH  20  21
HETATM   21  C   UNL     1     -12.043  12.983  63.652  1.00  0.00    -0.604 C  
BRANCH  21  22
HETATM   22  C   UNL     1     -12.288  14.200  64.534  1.00  0.00    -0.392 C  
HETATM   23  O   UNL     1     -11.810  15.370  63.884  1.00  0.00    -0.909 OA 
HETATM   24  H   UNL     1     -11.964  16.129  64.435  1.00  0.00     0.000 HD 
ENDBRANCH  21  22
ENDBRANCH  20  21
ENDBRANCH  19  20
ENDBRANCH  18  19
ENDBRANCH  17  18
ENDBRANCH  16  17
ENDBRANCH  15  16
ENDBRANCH  14  15
ENDBRANCH  13  14
ENDBRANCH  12  13
ENDBRANCH  11  12
ENDBRANCH  10  11
ENDBRANCH   9  10
ENDBRANCH   8   9
ENDBRANCH   7   8
ENDBRANCH   6   7
ENDBRANCH   5   6
ENDBRANCH   4   5
ENDBRANCH   3   4
ENDBRANCH   2   3
TORSDOF 20
ENDMDL
MODEL      226
REMARK 921   NORMALIZED FREE ENERGY PREDICTED BY IDOCK:   -3.29 KCAL/MOL
REMARK 922        TOTAL FREE ENERGY PREDICTED BY IDOCK:  -10.01 KCAL/MOL
REMARK 923 INTER-LIGAND FREE ENERGY PREDICTED BY IDOCK:   -7.89 KCAL/MOL
REMARK 924 INTRA-LIGAND FREE ENERGY PREDICTED BY IDOCK:   -2.12 KCAL/MOL
REMARK 927      BINDING AFFINITY PREDICTED BY RF-SCORE:    0.00 PKD
ROOT
HETATM    1  C   UNL     1      -7.006  18.713  66.306  1.00  0.00    -0.267 C  
HETATM    2  C   UNL     1      -7.134  20.170  66.715  1.00  0.00    -0.281 C  
ENDROOT
BRANCH   2   3
HETATM    3  C   UNL     1      -8.509  20.454  67.314  1.00  0.00    -0.405 C  
BRANCH   3   4
HETATM    4  C   UNL     1      -9.622  20.060  66.347  1.00  0.00    -0.536 C  
BRANCH   4   5
HETATM    5  C   UNL     1     -10.714  19.278  67.071  1.00  0.00    -0.565 C  
BRANCH   5   6
HETATM    6  C   UNL     1     -10.282  18.930  68.492  1.00  0.00    -0.407 C  
BRANCH   6   7
HETATM    7  C   UNL     1     -10.147  17.422  68.659  1.00  0.00    -0.355 C  
BRANCH   7   8
HETATM    8  C   UNL     1     -10.569  16.701  67.385  1.00  0.00    -0.295 C  
BRANCH   8   9
HETATM    9  C   UNL     1      -9.416  15.877  66.827  1.00  0.00    -0.254 C  
BRANCH   9  10
HETATM   10  C   UNL     1      -9.695  15.474  65.387  1.00  0.00    -0.232 C  
BRANCH  10  11
HETATM   11  C   UNL     1     -11.158  15.714  65.038  1.00  0.00    -0.399 C  
BRANCH  11  12
HETATM   12  C   UNL     1     -11.849  14.400  64.706  1.00  0.00    -0.439 C  
BRANCH  12  13
HETATM   13  C   UNL     1     -12.189  13.640  65.979  1.00  0.00    -0.492 C  
BRANCH  13  14
HETATM   14  C   UNL     1     -11.604  12.234  65.936  1.00  0.00    -0.450 C  
BRANCH  14  15
HETATM   15  C   UNL     1     -10.206  12.220  66.536  1.00  0.00    -0.235 C  
BRANCH  15  16
HETATM   16  C   UNL     1     -10.217  11.549  67.903  1.00  0.00    -0.200 C  
BRANCH  16  17
HETATM   17  C   UNL     1     -11.258  10.437  67.949  1.00  0.00    -0.332 C  
BRANCH  17  18
HETATM   18  C   UNL     1     -10.591   9.071  67.835  1.00  0.00    -0.256 C  
BRANCH  18  19
HETATM   19  C   UNL     1      -9.415   9.121  66.867  1.00  0.00    -0.222 C  
BRANCH  19  20
HETATM   20  C   UNL     1      -9.201   7.762  66.207  1.00  0.00    -0.217 C  
BRANCH  20  21
HETATM   21  C   UNL     1      -9.255   6.640  67.237  1.00  0.00    -0.129 C  
BRANCH  21  22
HETATM   22  C   UNL     1      -9.939   5.403  66.671  1.00  0.00    -0.195 C  
HETATM   23  O   UNL     1     -11.284   5.710  66.330  1.00  0.00    -0.725 OA 
HETATM   24  H   UNL     1     -11.711   4.938  65.977  1.00  0.00     0.000 HD 
ENDBRANCH  21  22
ENDBRANCH  20  21
ENDBRANCH  19  20
ENDBRANCH  18  19
ENDBRANCH  17  18
ENDBRANCH  16  17
ENDBRANCH  15  16
ENDBRANCH  14  15
ENDBRANCH  13  14
ENDBRANCH  12  13
ENDBRANCH  11  12
ENDBRANCH  10  11
ENDBRANCH   9  10
ENDBRANCH   8   9
ENDBRANCH   7   8
ENDBRANCH   6   7
ENDBRANCH   5   6
ENDBRANCH   4   5
ENDBRANCH   3   4
ENDBRANCH   2   3
TORSDOF 20
ENDMDL
MODEL      227
REMARK 921   NORMALIZED FREE ENERGY PREDICTED BY IDOCK:   -3.29 KCAL/MOL
REMARK 922        TOTAL FREE ENERGY PREDICTED BY IDOCK:  -10.00 KCAL/MOL
REMARK 923 INTER-LIGAND FREE ENERGY PREDICTED BY IDOCK:   -7.14 KCAL/MOL
REMARK 924 INTRA-LIGAND FREE ENERGY PREDICTED BY IDOCK:   -2.86 KCAL/MOL
REMARK 927      BINDING AFFINITY PREDICTED BY RF-SCORE:    0.00 PKD
ROOT
HETATM    1  C   UNL     1      -9.442   8.656  69.547  1.00  0.00    -0.162 C  
HETATM    2  C   UNL     1      -9.039   9.249  70.886  1.00  0.00    -0.288 C  
ENDROOT
BRANCH   2   3
HETATM    3  C   UNL     1      -8.267   8.236  71.725  1.00  0.00    -0.186 C  
BRANCH   3   4
HETATM    4  C   UNL     1      -8.824   8.157  73.144  1.00  0.00    -0.325 C  
BRANCH   4   5
HETATM    5  C   UNL     1      -9.522   6.820  73.376  1.00  0.00    -0.177 C  
BRANCH   5   6
HETATM    6  C   UNL     1      -9.315   5.886  72.189  1.00  0.00    -0.155 C  
BRANCH   6   7
HETATM    7  C   UNL     1     -10.626   5.665  71.444  1.00  0.00    -0.317 C  
BRANCH   7   8
HETATM    8  C   UNL     1     -11.792   6.262  72.221  1.00  0.00    -0.326 C  
BRANCH   8   9
HETATM    9  C   UNL     1     -12.480   7.349  71.406  1.00  0.00    -0.402 C  
BRANCH   9  10
HETATM   10  C   UNL     1     -12.429   8.681  72.142  1.00  0.00    -0.453 C  
BRANCH  10  11
HETATM   11  C   UNL     1     -13.599   9.564  71.729  1.00  0.00    -0.447 C  
BRANCH  11  12
HETATM   12  C   UNL     1     -13.159  11.017  71.623  1.00  0.00    -0.543 C  
BRANCH  12  13
HETATM   13  C   UNL     1     -12.082  11.171  70.561  1.00  0.00    -0.474 C  
BRANCH  13  14
HETATM   14  C   UNL     1     -11.984  12.621  70.104  1.00  0.00    -0.375 C  
BRANCH  14  15
HETATM   15  C   UNL     1     -11.989  12.704  68.585  1.00  0.00    -0.264 C  
BRANCH  15  16
HETATM   16  C   UNL     1     -10.978  11.731  67.992  1.00  0.00    -0.274 C  
BRANCH  16  17
HETATM   17  C   UNL     1      -9.721  12.468  67.544  1.00  0.00    -0.196 C  
BRANCH  17  18
HETATM   18  C   UNL     1     -10.081  13.802  66.902  1.00  0.00    -0.260 C  
BRANCH  18  19
HETATM   19  C   UNL     1      -9.147  14.906  67.385  1.00  0.00    -0.196 C  
BRANCH  19  20
HETATM   20  C   UNL     1      -9.647  15.501  68.698  1.00  0.00    -0.203 C  
BRANCH  20  21
HETATM   21  C   UNL     1     -10.918  16.314  68.480  1.00  0.00    -0.345 C  
BRANCH  21  22
HETATM   22  C   UNL     1     -10.603  17.686  67.899  1.00  0.00    -0.387 C  
HETATM   23  O   UNL     1     -10.051  18.521  68.909  1.00  0.00    -0.386 OA 
HETATM   24  H   UNL     1      -9.855  19.377  68.546  1.00  0.00     0.000 HD 
ENDBRANCH  21  22
ENDBRANCH  20  21
ENDBRANCH  19  20
ENDBRANCH  18  19
ENDBRANCH  17  18
ENDBRANCH  16  17
ENDBRANCH  15  16
ENDBRANCH  14  15
ENDBRANCH  13  14
ENDBRANCH  12  13
ENDBRANCH  11  12
ENDBRANCH  10  11
ENDBRANCH   9  10
ENDBRANCH   8   9
ENDBRANCH   7   8
ENDBRANCH   6   7
ENDBRANCH   5   6
ENDBRANCH   4   5
ENDBRANCH   3   4
ENDBRANCH   2   3
TORSDOF 20
ENDMDL
MODEL      228
REMARK 921   NORMALIZED FREE ENERGY PREDICTED BY IDOCK:   -3.28 KCAL/MOL
REMARK 922        TOTAL FREE ENERGY PREDICTED BY IDOCK:   -9.99 KCAL/MOL
REMARK 923 INTER-LIGAND FREE ENERGY PREDICTED BY IDOCK:   -6.67 KCAL/MOL
REMARK 924 INTRA-LIGAND FREE ENERGY PREDICTED BY IDOCK:   -3.32 KCAL/MOL
REMARK 927      BINDING AFFINITY PREDICTED BY RF-SCORE:    0.00 PKD
ROOT
HETATM    1  C   UNL     1     -11.562   6.418  70.012  1.00  0.00    -0.446 C  
HETATM    2  C   UNL     1     -12.010   6.499  71.461  1.00  0.00    -0.383 C  
ENDROOT
BRANCH   2   3
HETATM    3  C   UNL     1     -13.135   7.515  71.633  1.00  0.00    -0.401 C  
BRANCH   3   4
HETATM    4  C   UNL     1     -12.592   8.865  72.095  1.00  0.00    -0.467 C  
BRANCH   4   5
HETATM    5  C   UNL     1     -13.271  10.006  71.344  1.00  0.00    -0.486 C  
BRANCH   5   6
HETATM    6  C   UNL     1     -12.289  10.697  70.404  1.00  0.00    -0.428 C  
BRANCH   6   7
HETATM    7  C   UNL     1     -10.898  10.092  70.540  1.00  0.00    -0.380 C  
BRANCH   7   8
HETATM    8  C   UNL     1     -10.195  10.054  69.189  1.00  0.00    -0.224 C  
BRANCH   8   9
HETATM    9  C   UNL     1      -8.833   9.384  69.311  1.00  0.00    -0.150 C  
BRANCH   9  10
HETATM   10  C   UNL     1      -8.565   8.493  68.106  1.00  0.00    -0.138 C  
BRANCH  10  11
HETATM   11  C   UNL     1      -9.864   8.171  67.381  1.00  0.00    -0.242 C  
BRANCH  11  12
HETATM   12  C   UNL     1      -9.687   6.954  66.485  1.00  0.00    -0.185 C  
BRANCH  12  13
HETATM   13  C   UNL     1      -8.219   6.569  66.393  1.00  0.00    -0.116 C  
BRANCH  13  14
HETATM   14  C   UNL     1      -7.754   6.570  64.943  1.00  0.00    -0.105 C  
BRANCH  14  15
HETATM   15  C   UNL     1      -7.278   7.957  64.536  1.00  0.00    -0.080 C  
BRANCH  15  16
HETATM   16  C   UNL     1      -8.152   8.518  63.422  1.00  0.00    -0.160 C  
BRANCH  16  17
HETATM   17  C   UNL     1      -8.912   9.748  63.902  1.00  0.00    -0.277 C  
BRANCH  17  18
HETATM   18  C   UNL     1      -8.140  10.460  65.006  1.00  0.00    -0.136 C  
BRANCH  18  19
HETATM   19  C   UNL     1      -9.060  11.372  65.810  1.00  0.00    -0.195 C  
BRANCH  19  20
HETATM   20  C   UNL     1     -10.513  11.179  65.391  1.00  0.00    -0.321 C  
BRANCH  20  21
HETATM   21  C   UNL     1     -11.136  12.498  64.951  1.00  0.00    -0.336 C  
BRANCH  21  22
HETATM   22  C   UNL     1     -12.027  13.079  66.041  1.00  0.00    -0.440 C  
HETATM   23  O   UNL     1     -12.131  12.159  67.119  1.00  0.00    -0.575 OA 
HETATM   24  H   UNL     1     -12.687  12.521  67.799  1.00  0.00     0.000 HD 
ENDBRANCH  21  22
ENDBRANCH  20  21
ENDBRANCH  19  20
ENDBRANCH  18  19
ENDBRANCH  17  18
ENDBRANCH  16  17
ENDBRANCH  15  16
ENDBRANCH  14  15
ENDBRANCH  13  14
ENDBRANCH  12  13
ENDBRANCH  11  12
ENDBRANCH  10  11
ENDBRANCH   9  10
ENDBRANCH   8   9
ENDBRANCH   7   8
ENDBRANCH   6   7
ENDBRANCH   5   6
ENDBRANCH   4   5
ENDBRANCH   3   4
ENDBRANCH   2   3
TORSDOF 20
ENDMDL
MODEL      229
REMARK 921   NORMALIZED FREE ENERGY PREDICTED BY IDOCK:   -3.27 KCAL/MOL
REMARK 922        TOTAL FREE ENERGY PREDICTED BY IDOCK:   -9.96 KCAL/MOL
REMARK 923 INTER-LIGAND FREE ENERGY PREDICTED BY IDOCK:   -7.59 KCAL/MOL
REMARK 924 INTRA-LIGAND FREE ENERGY PREDICTED BY IDOCK:   -2.37 KCAL/MOL
REMARK 927      BINDING AFFINITY PREDICTED BY RF-SCORE:    0.00 PKD
ROOT
HETATM    1  C   UNL     1     -12.897  10.516  71.710  1.00  0.00    -0.559 C  
HETATM    2  C   UNL     1     -12.882   9.071  72.177  1.00  0.00    -0.478 C  
ENDROOT
BRANCH   2   3
HETATM    3  C   UNL     1     -11.676   8.324  71.614  1.00  0.00    -0.341 C  
BRANCH   3   4
HETATM    4  C   UNL     1     -12.105   7.042  70.906  1.00  0.00    -0.403 C  
BRANCH   4   5
HETATM    5  C   UNL     1     -11.092   6.653  69.833  1.00  0.00    -0.403 C  
BRANCH   5   6
HETATM    6  C   UNL     1     -10.650   7.875  69.035  1.00  0.00    -0.177 C  
BRANCH   6   7
HETATM    7  C   UNL     1     -10.333   7.491  67.595  1.00  0.00    -0.295 C  
BRANCH   7   8
HETATM    8  C   UNL     1     -10.217   8.734  66.722  1.00  0.00    -0.354 C  
BRANCH   8   9
HETATM    9  C   UNL     1      -8.937   8.692  65.898  1.00  0.00    -0.245 C  
BRANCH   9  10
HETATM   10  C   UNL     1      -8.229  10.039  65.941  1.00  0.00    -0.128 C  
BRANCH  10  11
HETATM   11  C   UNL     1      -8.268  10.618  67.348  1.00  0.00    -0.115 C  
BRANCH  11  12
HETATM   12  C   UNL     1      -8.277  12.139  67.299  1.00  0.00    -0.180 C  
BRANCH  12  13
HETATM   13  C   UNL     1      -9.286  12.698  68.290  1.00  0.00    -0.195 C  
BRANCH  13  14
HETATM   14  C   UNL     1     -10.518  11.805  68.360  1.00  0.00    -0.231 C  
BRANCH  14  15
HETATM   15  C   UNL     1     -11.731  12.524  67.787  1.00  0.00    -0.419 C  
BRANCH  15  16
HETATM   16  C   UNL     1     -11.794  12.346  66.276  1.00  0.00    -0.431 C  
BRANCH  16  17
HETATM   17  C   UNL     1     -12.138  13.665  65.593  1.00  0.00    -0.457 C  
BRANCH  17  18
HETATM   18  C   UNL     1     -10.999  14.111  64.683  1.00  0.00    -0.393 C  
BRANCH  18  19
HETATM   19  C   UNL     1      -9.941  14.873  65.473  1.00  0.00    -0.392 C  
BRANCH  19  20
HETATM   20  C   UNL     1     -10.398  16.301  65.751  1.00  0.00    -0.393 C  
BRANCH  20  21
HETATM   21  C   UNL     1      -9.270  17.128  66.356  1.00  0.00    -0.285 C  
BRANCH  21  22
HETATM   22  C   UNL     1      -9.733  17.861  67.608  1.00  0.00    -0.280 C  
HETATM   23  O   UNL     1     -10.772  18.772  67.276  1.00  0.00    -0.437 OA 
HETATM   24  H   UNL     1     -11.060  19.230  68.058  1.00  0.00     0.000 HD 
ENDBRANCH  21  22
ENDBRANCH  20  21
ENDBRANCH  19  20
ENDBRANCH  18  19
ENDBRANCH  17  18
ENDBRANCH  16  17
ENDBRANCH  15  16
ENDBRANCH  14  15
ENDBRANCH  13  14
ENDBRANCH  12  13
ENDBRANCH  11  12
ENDBRANCH  10  11
ENDBRANCH   9  10
ENDBRANCH   8   9
ENDBRANCH   7   8
ENDBRANCH   6   7
ENDBRANCH   5   6
ENDBRANCH   4   5
ENDBRANCH   3   4
ENDBRANCH   2   3
TORSDOF 20
ENDMDL
MODEL      230
REMARK 921   NORMALIZED FREE ENERGY PREDICTED BY IDOCK:   -3.27 KCAL/MOL
REMARK 922        TOTAL FREE ENERGY PREDICTED BY IDOCK:   -9.96 KCAL/MOL
REMARK 923 INTER-LIGAND FREE ENERGY PREDICTED BY IDOCK:   -8.31 KCAL/MOL
REMARK 924 INTRA-LIGAND FREE ENERGY PREDICTED BY IDOCK:   -1.65 KCAL/MOL
REMARK 927      BINDING AFFINITY PREDICTED BY RF-SCORE:    0.00 PKD
ROOT
HETATM    1  C   UNL     1     -11.056   6.497  67.343  1.00  0.00    -0.411 C  
HETATM    2  C   UNL     1     -11.240   6.401  68.848  1.00  0.00    -0.385 C  
ENDROOT
BRANCH   2   3
HETATM    3  C   UNL     1     -10.407   5.264  69.432  1.00  0.00    -0.313 C  
BRANCH   3   4
HETATM    4  C   UNL     1     -10.156   5.476  70.923  1.00  0.00    -0.276 C  
BRANCH   4   5
HETATM    5  C   UNL     1     -11.358   6.143  71.584  1.00  0.00    -0.341 C  
BRANCH   5   6
HETATM    6  C   UNL     1     -10.909   7.168  72.619  1.00  0.00    -0.315 C  
BRANCH   6   7
HETATM    7  C   UNL     1     -11.723   8.450  72.495  1.00  0.00    -0.429 C  
BRANCH   7   8
HETATM    8  C   UNL     1     -11.226   9.291  71.327  1.00  0.00    -0.425 C  
BRANCH   8   9
HETATM    9  C   UNL     1     -12.180  10.446  71.052  1.00  0.00    -0.498 C  
BRANCH   9  10
HETATM   10  C   UNL     1     -12.130  10.843  69.584  1.00  0.00    -0.400 C  
BRANCH  10  11
HETATM   11  C   UNL     1     -11.735  12.306  69.440  1.00  0.00    -0.392 C  
BRANCH  11  12
HETATM   12  C   UNL     1     -11.461  12.644  67.981  1.00  0.00    -0.366 C  
BRANCH  12  13
HETATM   13  C   UNL     1     -11.404  11.376  67.143  1.00  0.00    -0.327 C  
BRANCH  13  14
HETATM   14  C   UNL     1     -10.639  11.623  65.849  1.00  0.00    -0.318 C  
BRANCH  14  15
HETATM   15  C   UNL     1     -11.603  11.891  64.702  1.00  0.00    -0.320 C  
BRANCH  15  16
HETATM   16  C   UNL     1     -11.230  13.177  63.978  1.00  0.00    -0.418 C  
BRANCH  16  17
HETATM   17  C   UNL     1     -11.582  14.394  64.826  1.00  0.00    -0.410 C  
BRANCH  17  18
HETATM   18  C   UNL     1     -10.318  15.085  65.325  1.00  0.00    -0.424 C  
BRANCH  18  19
HETATM   19  C   UNL     1     -10.653  16.419  65.982  1.00  0.00    -0.275 C  
BRANCH  19  20
HETATM   20  C   UNL     1      -9.944  16.552  67.326  1.00  0.00    -0.264 C  
BRANCH  20  21
HETATM   21  C   UNL     1      -9.151  17.851  67.399  1.00  0.00    -0.245 C  
BRANCH  21  22
HETATM   22  C   UNL     1      -7.706  17.642  66.965  1.00  0.00    -0.209 C  
HETATM   23  O   UNL     1      -7.569  17.954  65.585  1.00  0.00    -0.546 OA 
HETATM   24  H   UNL     1      -6.668  17.823  65.314  1.00  0.00     0.000 HD 
ENDBRANCH  21  22
ENDBRANCH  20  21
ENDBRANCH  19  20
ENDBRANCH  18  19
ENDBRANCH  17  18
ENDBRANCH  16  17
ENDBRANCH  15  16
ENDBRANCH  14  15
ENDBRANCH  13  14
ENDBRANCH  12  13
ENDBRANCH  11  12
ENDBRANCH  10  11
ENDBRANCH   9  10
ENDBRANCH   8   9
ENDBRANCH   7   8
ENDBRANCH   6   7
ENDBRANCH   5   6
ENDBRANCH   4   5
ENDBRANCH   3   4
ENDBRANCH   2   3
TORSDOF 20
ENDMDL
MODEL      231
REMARK 921   NORMALIZED FREE ENERGY PREDICTED BY IDOCK:   -3.26 KCAL/MOL
REMARK 922        TOTAL FREE ENERGY PREDICTED BY IDOCK:   -9.94 KCAL/MOL
REMARK 923 INTER-LIGAND FREE ENERGY PREDICTED BY IDOCK:   -7.69 KCAL/MOL
REMARK 924 INTRA-LIGAND FREE ENERGY PREDICTED BY IDOCK:   -2.25 KCAL/MOL
REMARK 927      BINDING AFFINITY PREDICTED BY RF-SCORE:    0.00 PKD
ROOT
HETATM    1  C   UNL     1     -13.243  10.295  71.722  1.00  0.00    -0.534 C  
HETATM    2  C   UNL     1     -13.204   9.033  72.567  1.00  0.00    -0.467 C  
ENDROOT
BRANCH   2   3
HETATM    3  C   UNL     1     -11.878   8.297  72.395  1.00  0.00    -0.461 C  
BRANCH   3   4
HETATM    4  C   UNL     1     -12.080   6.785  72.432  1.00  0.00    -0.120 C  
BRANCH   4   5
HETATM    5  C   UNL     1     -11.254   6.103  71.345  1.00  0.00    -0.346 C  
BRANCH   5   6
HETATM    6  C   UNL     1     -11.620   6.643  69.966  1.00  0.00    -0.423 C  
BRANCH   6   7
HETATM    7  C   UNL     1     -10.830   5.925  68.880  1.00  0.00    -0.373 C  
BRANCH   7   8
HETATM    8  C   UNL     1     -10.927   6.678  67.559  1.00  0.00    -0.416 C  
BRANCH   8   9
HETATM    9  C   UNL     1      -9.614   6.590  66.793  1.00  0.00    -0.198 C  
BRANCH   9  10
HETATM   10  C   UNL     1      -9.075   7.981  66.494  1.00  0.00    -0.213 C  
BRANCH  10  11
HETATM   11  C   UNL     1      -8.555   8.638  67.765  1.00  0.00    -0.136 C  
BRANCH  11  12
HETATM   12  C   UNL     1      -8.312  10.123  67.537  1.00  0.00    -0.118 C  
BRANCH  12  13
HETATM   13  C   UNL     1      -9.091  10.951  68.547  1.00  0.00    -0.173 C  
BRANCH  13  14
HETATM   14  C   UNL     1     -10.217  10.128  69.159  1.00  0.00    -0.229 C  
BRANCH  14  15
HETATM   15  C   UNL     1     -11.553  10.832  68.976  1.00  0.00    -0.370 C  
BRANCH  15  16
HETATM   16  C   UNL     1     -11.459  11.882  67.876  1.00  0.00    -0.385 C  
BRANCH  16  17
HETATM   17  C   UNL     1     -11.983  13.226  68.370  1.00  0.00    -0.336 C  
BRANCH  17  18
HETATM   18  C   UNL     1     -10.828  14.162  68.706  1.00  0.00    -0.271 C  
BRANCH  18  19
HETATM   19  C   UNL     1     -11.095  14.905  70.011  1.00  0.00    -0.263 C  
BRANCH  19  20
HETATM   20  C   UNL     1     -12.537  14.701  70.463  1.00  0.00    -0.409 C  
BRANCH  20  21
HETATM   21  C   UNL     1     -12.614  14.507  71.972  1.00  0.00    -0.400 C  
BRANCH  21  22
HETATM   22  C   UNL     1     -11.906  15.635  72.712  1.00  0.00    -0.474 C  
HETATM   23  O   UNL     1     -12.235  15.584  74.094  1.00  0.00    -0.576 OA 
HETATM   24  H   UNL     1     -11.793  16.288  74.555  1.00  0.00     0.000 HD 
ENDBRANCH  21  22
ENDBRANCH  20  21
ENDBRANCH  19  20
ENDBRANCH  18  19
ENDBRANCH  17  18
ENDBRANCH  16  17
ENDBRANCH  15  16
ENDBRANCH  14  15
ENDBRANCH  13  14
ENDBRANCH  12  13
ENDBRANCH  11  12
ENDBRANCH  10  11
ENDBRANCH   9  10
ENDBRANCH   8   9
ENDBRANCH   7   8
ENDBRANCH   6   7
ENDBRANCH   5   6
ENDBRANCH   4   5
ENDBRANCH   3   4
ENDBRANCH   2   3
TORSDOF 20
ENDMDL
MODEL      232
REMARK 921   NORMALIZED FREE ENERGY PREDICTED BY IDOCK:   -3.26 KCAL/MOL
REMARK 922        TOTAL FREE ENERGY PREDICTED BY IDOCK:   -9.94 KCAL/MOL
REMARK 923 INTER-LIGAND FREE ENERGY PREDICTED BY IDOCK:   -7.50 KCAL/MOL
REMARK 924 INTRA-LIGAND FREE ENERGY PREDICTED BY IDOCK:   -2.43 KCAL/MOL
REMARK 927      BINDING AFFINITY PREDICTED BY RF-SCORE:    0.00 PKD
ROOT
HETATM    1  C   UNL     1     -10.949  14.933  64.796  1.00  0.00    -0.390 C  
HETATM    2  C   UNL     1     -12.115  14.036  64.419  1.00  0.00    -0.486 C  
ENDROOT
BRANCH   2   3
HETATM    3  C   UNL     1     -12.560  13.185  65.604  1.00  0.00    -0.414 C  
BRANCH   3   4
HETATM    4  C   UNL     1     -11.437  12.263  66.073  1.00  0.00    -0.434 C  
BRANCH   4   5
HETATM    5  C   UNL     1     -11.209  12.410  67.574  1.00  0.00    -0.348 C  
BRANCH   5   6
HETATM    6  C   UNL     1     -12.083  13.519  68.150  1.00  0.00    -0.290 C  
BRANCH   6   7
HETATM    7  C   UNL     1     -11.244  14.497  68.963  1.00  0.00    -0.289 C  
BRANCH   7   8
HETATM    8  C   UNL     1     -11.422  15.917  68.442  1.00  0.00    -0.348 C  
BRANCH   8   9
HETATM    9  C   UNL     1     -10.444  16.865  69.124  1.00  0.00    -0.335 C  
BRANCH   9  10
HETATM   10  C   UNL     1     -10.354  18.180  68.361  1.00  0.00    -0.371 C  
BRANCH  10  11
HETATM   11  C   UNL     1     -10.763  17.983  66.908  1.00  0.00    -0.214 C  
BRANCH  11  12
HETATM   12  C   UNL     1     -10.247  19.129  66.049  1.00  0.00    -0.494 C  
BRANCH  12  13
HETATM   13  C   UNL     1      -9.730  20.260  66.925  1.00  0.00    -0.584 C  
BRANCH  13  14
HETATM   14  C   UNL     1      -8.229  20.437  66.740  1.00  0.00    -0.276 C  
BRANCH  14  15
HETATM   15  C   UNL     1      -7.555  20.710  68.076  1.00  0.00    -0.064 C  
BRANCH  15  16
HETATM   16  C   UNL     1      -6.056  20.904  67.890  1.00  0.00    -0.382 C  
BRANCH  16  17
HETATM   17  C   UNL     1      -5.295  20.425  69.121  1.00  0.00    -0.299 C  
BRANCH  17  18
HETATM   18  C   UNL     1      -6.106  19.384  69.883  1.00  0.00    -0.310 C  
BRANCH  18  19
HETATM   19  C   UNL     1      -5.277  18.129  70.136  1.00  0.00    -0.231 C  
BRANCH  19  20
HETATM   20  C   UNL     1      -6.008  16.889  69.632  1.00  0.00    -0.221 C  
BRANCH  20  21
HETATM   21  C   UNL     1      -6.990  17.246  68.524  1.00  0.00    -0.209 C  
BRANCH  21  22
HETATM   22  C   UNL     1      -6.402  16.956  67.149  1.00  0.00    -0.186 C  
HETATM   23  O   UNL     1      -5.862  15.641  67.124  1.00  0.00    -0.329 OA 
HETATM   24  H   UNL     1      -5.495  15.460  66.267  1.00  0.00     0.000 HD 
ENDBRANCH  21  22
ENDBRANCH  20  21
ENDBRANCH  19  20
ENDBRANCH  18  19
ENDBRANCH  17  18
ENDBRANCH  16  17
ENDBRANCH  15  16
ENDBRANCH  14  15
ENDBRANCH  13  14
ENDBRANCH  12  13
ENDBRANCH  11  12
ENDBRANCH  10  11
ENDBRANCH   9  10
ENDBRANCH   8   9
ENDBRANCH   7   8
ENDBRANCH   6   7
ENDBRANCH   5   6
ENDBRANCH   4   5
ENDBRANCH   3   4
ENDBRANCH   2   3
TORSDOF 20
ENDMDL
MODEL      233
REMARK 921   NORMALIZED FREE ENERGY PREDICTED BY IDOCK:   -3.26 KCAL/MOL
REMARK 922        TOTAL FREE ENERGY PREDICTED BY IDOCK:   -9.93 KCAL/MOL
REMARK 923 INTER-LIGAND FREE ENERGY PREDICTED BY IDOCK:   -7.81 KCAL/MOL
REMARK 924 INTRA-LIGAND FREE ENERGY PREDICTED BY IDOCK:   -2.12 KCAL/MOL
REMARK 927      BINDING AFFINITY PREDICTED BY RF-SCORE:    0.00 PKD
ROOT
HETATM    1  C   UNL     1     -10.988   6.708  70.692  1.00  0.00    -0.329 C  
HETATM    2  C   UNL     1     -11.024   6.162  69.274  1.00  0.00    -0.450 C  
ENDROOT
BRANCH   2   3
HETATM    3  C   UNL     1     -10.684   7.248  68.258  1.00  0.00    -0.174 C  
BRANCH   3   4
HETATM    4  C   UNL     1     -10.026   8.448  68.935  1.00  0.00    -0.194 C  
BRANCH   4   5
HETATM    5  C   UNL     1      -9.218   9.260  67.927  1.00  0.00    -0.140 C  
BRANCH   5   6
HETATM    6  C   UNL     1     -10.089   9.684  66.749  1.00  0.00    -0.301 C  
BRANCH   6   7
HETATM    7  C   UNL     1      -9.248  10.362  65.674  1.00  0.00    -0.220 C  
BRANCH   7   8
HETATM    8  C   UNL     1      -9.829  10.098  64.292  1.00  0.00    -0.270 C  
BRANCH   8   9
HETATM    9  C   UNL     1     -10.027  11.404  63.535  1.00  0.00    -0.424 C  
BRANCH   9  10
HETATM   10  C   UNL     1     -11.474  11.865  63.632  1.00  0.00    -0.551 C  
BRANCH  10  11
HETATM   11  C   UNL     1     -11.562  13.203  64.352  1.00  0.00    -0.422 C  
BRANCH  11  12
HETATM   12  C   UNL     1     -12.184  13.029  65.729  1.00  0.00    -0.511 C  
BRANCH  12  13
HETATM   13  C   UNL     1     -11.432  13.853  66.762  1.00  0.00    -0.369 C  
BRANCH  13  14
HETATM   14  C   UNL     1      -9.967  13.437  66.815  1.00  0.00    -0.264 C  
BRANCH  14  15
HETATM   15  C   UNL     1      -9.065  14.662  66.801  1.00  0.00    -0.287 C  
BRANCH  15  16
HETATM   16  C   UNL     1      -9.861  15.919  67.124  1.00  0.00    -0.232 C  
BRANCH  16  17
HETATM   17  C   UNL     1      -9.537  16.416  68.528  1.00  0.00    -0.229 C  
BRANCH  17  18
HETATM   18  C   UNL     1     -10.807  16.530  69.363  1.00  0.00    -0.311 C  
BRANCH  18  19
HETATM   19  C   UNL     1     -10.929  15.354  70.327  1.00  0.00    -0.336 C  
BRANCH  19  20
HETATM   20  C   UNL     1     -11.907  15.678  71.452  1.00  0.00    -0.482 C  
BRANCH  20  21
HETATM   21  C   UNL     1     -13.349  15.522  70.985  1.00  0.00    -0.495 C  
BRANCH  21  22
HETATM   22  C   UNL     1     -14.078  14.453  71.789  1.00  0.00    -0.475 C  
HETATM   23  O   UNL     1     -13.456  13.191  71.587  1.00  0.00    -0.346 OA 
HETATM   24  H   UNL     1     -13.911  12.525  72.088  1.00  0.00     0.000 HD 
ENDBRANCH  21  22
ENDBRANCH  20  21
ENDBRANCH  19  20
ENDBRANCH  18  19
ENDBRANCH  17  18
ENDBRANCH  16  17
ENDBRANCH  15  16
ENDBRANCH  14  15
ENDBRANCH  13  14
ENDBRANCH  12  13
ENDBRANCH  11  12
ENDBRANCH  10  11
ENDBRANCH   9  10
ENDBRANCH   8   9
ENDBRANCH   7   8
ENDBRANCH   6   7
ENDBRANCH   5   6
ENDBRANCH   4   5
ENDBRANCH   3   4
ENDBRANCH   2   3
TORSDOF 20
ENDMDL
MODEL      234
REMARK 921   NORMALIZED FREE ENERGY PREDICTED BY IDOCK:   -3.26 KCAL/MOL
REMARK 922        TOTAL FREE ENERGY PREDICTED BY IDOCK:   -9.93 KCAL/MOL
REMARK 923 INTER-LIGAND FREE ENERGY PREDICTED BY IDOCK:   -8.03 KCAL/MOL
REMARK 924 INTRA-LIGAND FREE ENERGY PREDICTED BY IDOCK:   -1.90 KCAL/MOL
REMARK 927      BINDING AFFINITY PREDICTED BY RF-SCORE:    0.00 PKD
ROOT
HETATM    1  C   UNL     1      -9.752   4.305  70.139  1.00  0.00    -0.282 C  
HETATM    2  C   UNL     1      -9.968   5.685  70.735  1.00  0.00    -0.254 C  
ENDROOT
BRANCH   2   3
HETATM    3  C   UNL     1     -10.389   5.591  72.199  1.00  0.00    -0.263 C  
BRANCH   3   4
HETATM    4  C   UNL     1     -11.837   6.036  72.385  1.00  0.00    -0.283 C  
BRANCH   4   5
HETATM    5  C   UNL     1     -12.264   6.971  71.258  1.00  0.00    -0.419 C  
BRANCH   5   6
HETATM    6  C   UNL     1     -13.320   7.958  71.742  1.00  0.00    -0.364 C  
BRANCH   6   7
HETATM    7  C   UNL     1     -12.687   9.303  72.079  1.00  0.00    -0.479 C  
BRANCH   7   8
HETATM    8  C   UNL     1     -11.263   9.374  71.542  1.00  0.00    -0.457 C  
BRANCH   8   9
HETATM    9  C   UNL     1     -11.155  10.425  70.445  1.00  0.00    -0.371 C  
BRANCH   9  10
HETATM   10  C   UNL     1     -12.212  11.503  70.632  1.00  0.00    -0.473 C  
BRANCH  10  11
HETATM   11  C   UNL     1     -11.866  12.738  69.812  1.00  0.00    -0.380 C  
BRANCH  11  12
HETATM   12  C   UNL     1     -11.718  12.377  68.341  1.00  0.00    -0.386 C  
BRANCH  12  13
HETATM   13  C   UNL     1     -11.890  13.611  67.470  1.00  0.00    -0.416 C  
BRANCH  13  14
HETATM   14  C   UNL     1     -11.941  14.869  68.327  1.00  0.00    -0.245 C  
BRANCH  14  15
HETATM   15  C   UNL     1     -11.009  15.934  67.768  1.00  0.00    -0.315 C  
BRANCH  15  16
HETATM   16  C   UNL     1      -9.554  15.549  68.002  1.00  0.00    -0.203 C  
BRANCH  16  17
HETATM   17  C   UNL     1      -8.804  15.448  66.679  1.00  0.00    -0.330 C  
BRANCH  17  18
HETATM   18  C   UNL     1      -8.580  16.832  66.081  1.00  0.00    -0.299 C  
BRANCH  18  19
HETATM   19  C   UNL     1      -7.629  17.650  66.947  1.00  0.00    -0.244 C  
BRANCH  19  20
HETATM   20  C   UNL     1      -8.117  19.089  67.075  1.00  0.00    -0.279 C  
BRANCH  20  21
HETATM   21  C   UNL     1      -8.717  19.342  68.453  1.00  0.00    -0.397 C  
BRANCH  21  22
HETATM   22  C   UNL     1     -10.210  19.626  68.362  1.00  0.00    -0.441 C  
HETATM   23  O   UNL     1     -10.622  19.606  67.002  1.00  0.00    -0.447 OA 
HETATM   24  H   UNL     1     -11.554  19.784  66.945  1.00  0.00     0.000 HD 
ENDBRANCH  21  22
ENDBRANCH  20  21
ENDBRANCH  19  20
ENDBRANCH  18  19
ENDBRANCH  17  18
ENDBRANCH  16  17
ENDBRANCH  15  16
ENDBRANCH  14  15
ENDBRANCH  13  14
ENDBRANCH  12  13
ENDBRANCH  11  12
ENDBRANCH  10  11
ENDBRANCH   9  10
ENDBRANCH   8   9
ENDBRANCH   7   8
ENDBRANCH   6   7
ENDBRANCH   5   6
ENDBRANCH   4   5
ENDBRANCH   3   4
ENDBRANCH   2   3
TORSDOF 20
ENDMDL
MODEL      235
REMARK 921   NORMALIZED FREE ENERGY PREDICTED BY IDOCK:   -3.25 KCAL/MOL
REMARK 922        TOTAL FREE ENERGY PREDICTED BY IDOCK:   -9.92 KCAL/MOL
REMARK 923 INTER-LIGAND FREE ENERGY PREDICTED BY IDOCK:   -8.25 KCAL/MOL
REMARK 924 INTRA-LIGAND FREE ENERGY PREDICTED BY IDOCK:   -1.67 KCAL/MOL
REMARK 927      BINDING AFFINITY PREDICTED BY RF-SCORE:    0.00 PKD
ROOT
HETATM    1  C   UNL     1     -10.988   6.640  66.977  1.00  0.00    -0.463 C  
HETATM    2  C   UNL     1     -10.983   6.142  68.412  1.00  0.00    -0.391 C  
ENDROOT
BRANCH   2   3
HETATM    3  C   UNL     1      -9.873   5.118  68.634  1.00  0.00    -0.225 C  
BRANCH   3   4
HETATM    4  C   UNL     1      -9.418   5.108  70.091  1.00  0.00    -0.229 C  
BRANCH   4   5
HETATM    5  C   UNL     1     -10.619   5.107  71.032  1.00  0.00    -0.201 C  
BRANCH   5   6
HETATM    6  C   UNL     1     -10.503   6.226  72.062  1.00  0.00    -0.239 C  
BRANCH   6   7
HETATM    7  C   UNL     1     -11.839   6.936  72.238  1.00  0.00    -0.274 C  
BRANCH   7   8
HETATM    8  C   UNL     1     -11.663   8.445  72.127  1.00  0.00    -0.442 C  
BRANCH   8   9
HETATM    9  C   UNL     1     -12.996   9.156  72.320  1.00  0.00    -0.492 C  
BRANCH   9  10
HETATM   10  C   UNL     1     -13.256  10.125  71.175  1.00  0.00    -0.438 C  
BRANCH  10  11
HETATM   11  C   UNL     1     -12.763  11.520  71.535  1.00  0.00    -0.439 C  
BRANCH  11  12
HETATM   12  C   UNL     1     -12.101  12.178  70.332  1.00  0.00    -0.395 C  
BRANCH  12  13
HETATM   13  C   UNL     1     -11.692  11.130  69.309  1.00  0.00    -0.401 C  
BRANCH  13  14
HETATM   14  C   UNL     1     -10.753  11.731  68.272  1.00  0.00    -0.246 C  
BRANCH  14  15
HETATM   15  C   UNL     1     -11.195  11.351  66.867  1.00  0.00    -0.331 C  
BRANCH  15  16
HETATM   16  C   UNL     1     -11.253  12.582  65.972  1.00  0.00    -0.354 C  
BRANCH  16  17
HETATM   17  C   UNL     1     -12.141  13.655  66.591  1.00  0.00    -0.459 C  
BRANCH  17  18
HETATM   18  C   UNL     1     -11.368  14.957  66.765  1.00  0.00    -0.328 C  
BRANCH  18  19
HETATM   19  C   UNL     1     -11.456  15.452  68.205  1.00  0.00    -0.352 C  
BRANCH  19  20
HETATM   20  C   UNL     1     -10.442  16.563  68.457  1.00  0.00    -0.302 C  
BRANCH  20  21
HETATM   21  C   UNL     1     -10.535  17.641  67.384  1.00  0.00    -0.356 C  
BRANCH  21  22
HETATM   22  C   UNL     1      -9.965  18.964  67.879  1.00  0.00    -0.352 C  
HETATM   23  O   UNL     1     -10.236  19.115  69.266  1.00  0.00    -0.547 OA 
HETATM   24  H   UNL     1      -9.881  19.941  69.575  1.00  0.00     0.000 HD 
ENDBRANCH  21  22
ENDBRANCH  20  21
ENDBRANCH  19  20
ENDBRANCH  18  19
ENDBRANCH  17  18
ENDBRANCH  16  17
ENDBRANCH  15  16
ENDBRANCH  14  15
ENDBRANCH  13  14
ENDBRANCH  12  13
ENDBRANCH  11  12
ENDBRANCH  10  11
ENDBRANCH   9  10
ENDBRANCH   8   9
ENDBRANCH   7   8
ENDBRANCH   6   7
ENDBRANCH   5   6
ENDBRANCH   4   5
ENDBRANCH   3   4
ENDBRANCH   2   3
TORSDOF 20
ENDMDL
MODEL      236
REMARK 921   NORMALIZED FREE ENERGY PREDICTED BY IDOCK:   -3.25 KCAL/MOL
REMARK 922        TOTAL FREE ENERGY PREDICTED BY IDOCK:   -9.92 KCAL/MOL
REMARK 923 INTER-LIGAND FREE ENERGY PREDICTED BY IDOCK:   -7.36 KCAL/MOL
REMARK 924 INTRA-LIGAND FREE ENERGY PREDICTED BY IDOCK:   -2.56 KCAL/MOL
REMARK 927      BINDING AFFINITY PREDICTED BY RF-SCORE:    0.00 PKD
ROOT
HETATM    1  C   UNL     1     -13.030  11.540  71.364  1.00  0.00    -0.450 C  
HETATM    2  C   UNL     1     -13.459  12.794  72.105  1.00  0.00    -0.591 C  
ENDROOT
BRANCH   2   3
HETATM    3  C   UNL     1     -12.615  13.995  71.688  1.00  0.00    -0.403 C  
BRANCH   3   4
HETATM    4  C   UNL     1     -12.051  13.809  70.282  1.00  0.00    -0.425 C  
BRANCH   4   5
HETATM    5  C   UNL     1     -11.587  15.144  69.705  1.00  0.00    -0.338 C  
BRANCH   5   6
HETATM    6  C   UNL     1     -11.676  15.138  68.183  1.00  0.00    -0.323 C  
BRANCH   6   7
HETATM    7  C   UNL     1     -10.324  15.468  67.564  1.00  0.00    -0.271 C  
BRANCH   7   8
HETATM    8  C   UNL     1     -10.471  15.753  66.075  1.00  0.00    -0.350 C  
BRANCH   8   9
HETATM    9  C   UNL     1     -11.304  14.671  65.401  1.00  0.00    -0.344 C  
BRANCH   9  10
HETATM   10  C   UNL     1     -10.413  13.723  64.612  1.00  0.00    -0.433 C  
BRANCH  10  11
HETATM   11  C   UNL     1     -10.437  12.331  65.228  1.00  0.00    -0.315 C  
BRANCH  11  12
HETATM   12  C   UNL     1     -11.662  12.161  66.115  1.00  0.00    -0.384 C  
BRANCH  12  13
HETATM   13  C   UNL     1     -11.313  11.354  67.356  1.00  0.00    -0.359 C  
BRANCH  13  14
HETATM   14  C   UNL     1      -9.882  11.636  67.793  1.00  0.00    -0.186 C  
BRANCH  14  15
HETATM   15  C   UNL     1      -9.225  10.369  68.320  1.00  0.00    -0.149 C  
BRANCH  15  16
HETATM   16  C   UNL     1     -10.048   9.144  67.947  1.00  0.00    -0.246 C  
BRANCH  16  17
HETATM   17  C   UNL     1     -10.237   8.233  69.155  1.00  0.00    -0.223 C  
BRANCH  17  18
HETATM   18  C   UNL     1     -10.928   8.981  70.289  1.00  0.00    -0.274 C  
BRANCH  18  19
HETATM   19  C   UNL     1     -11.575   8.006  71.266  1.00  0.00    -0.306 C  
BRANCH  19  20
HETATM   20  C   UNL     1     -11.145   6.574  70.964  1.00  0.00    -0.339 C  
BRANCH  20  21
HETATM   21  C   UNL     1     -11.135   5.728  72.232  1.00  0.00    -0.330 C  
BRANCH  21  22
HETATM   22  C   UNL     1     -10.322   4.454  72.039  1.00  0.00    -0.119 C  
HETATM   23  O   UNL     1     -10.035   4.271  70.659  1.00  0.00    -0.201 OA 
HETATM   24  H   UNL     1      -9.528   3.476  70.539  1.00  0.00     0.000 HD 
ENDBRANCH  21  22
ENDBRANCH  20  21
ENDBRANCH  19  20
ENDBRANCH  18  19
ENDBRANCH  17  18
ENDBRANCH  16  17
ENDBRANCH  15  16
ENDBRANCH  14  15
ENDBRANCH  13  14
ENDBRANCH  12  13
ENDBRANCH  11  12
ENDBRANCH  10  11
ENDBRANCH   9  10
ENDBRANCH   8   9
ENDBRANCH   7   8
ENDBRANCH   6   7
ENDBRANCH   5   6
ENDBRANCH   4   5
ENDBRANCH   3   4
ENDBRANCH   2   3
TORSDOF 20
ENDMDL
MODEL      237
REMARK 921   NORMALIZED FREE ENERGY PREDICTED BY IDOCK:   -3.25 KCAL/MOL
REMARK 922        TOTAL FREE ENERGY PREDICTED BY IDOCK:   -9.91 KCAL/MOL
REMARK 923 INTER-LIGAND FREE ENERGY PREDICTED BY IDOCK:   -8.01 KCAL/MOL
REMARK 924 INTRA-LIGAND FREE ENERGY PREDICTED BY IDOCK:   -1.90 KCAL/MOL
REMARK 927      BINDING AFFINITY PREDICTED BY RF-SCORE:    0.00 PKD
ROOT
HETATM    1  C   UNL     1      -8.425  16.119  69.104  1.00  0.00    -0.239 C  
HETATM    2  C   UNL     1      -9.408  17.131  68.541  1.00  0.00    -0.274 C  
ENDROOT
BRANCH   2   3
HETATM    3  C   UNL     1     -10.826  16.852  69.032  1.00  0.00    -0.255 C  
BRANCH   3   4
HETATM    4  C   UNL     1     -10.811  16.037  70.322  1.00  0.00    -0.327 C  
BRANCH   4   5
HETATM    5  C   UNL     1     -12.210  15.527  70.654  1.00  0.00    -0.445 C  
BRANCH   5   6
HETATM    6  C   UNL     1     -12.189  14.029  70.937  1.00  0.00    -0.436 C  
BRANCH   6   7
HETATM    7  C   UNL     1     -11.767  13.253  69.696  1.00  0.00    -0.369 C  
BRANCH   7   8
HETATM    8  C   UNL     1     -12.280  11.820  69.759  1.00  0.00    -0.270 C  
BRANCH   8   9
HETATM    9  C   UNL     1     -12.657  11.448  71.187  1.00  0.00    -0.490 C  
BRANCH   9  10
HETATM   10  C   UNL     1     -13.167  10.015  71.249  1.00  0.00    -0.469 C  
BRANCH  10  11
HETATM   11  C   UNL     1     -12.200   9.138  72.031  1.00  0.00    -0.443 C  
BRANCH  11  12
HETATM   12  C   UNL     1     -11.061   8.669  71.137  1.00  0.00    -0.324 C  
BRANCH  12  13
HETATM   13  C   UNL     1     -10.815   7.180  71.325  1.00  0.00    -0.254 C  
BRANCH  13  14
HETATM   14  C   UNL     1     -11.457   6.384  70.196  1.00  0.00    -0.484 C  
BRANCH  14  15
HETATM   15  C   UNL     1     -10.433   6.067  69.117  1.00  0.00    -0.321 C  
BRANCH  15  16
HETATM   16  C   UNL     1     -10.869   6.646  67.777  1.00  0.00    -0.372 C  
BRANCH  16  17
HETATM   17  C   UNL     1      -9.708   7.362  67.096  1.00  0.00    -0.223 C  
BRANCH  17  18
HETATM   18  C   UNL     1     -10.200   8.601  66.358  1.00  0.00    -0.224 C  
BRANCH  18  19
HETATM   19  C   UNL     1     -10.609   9.692  67.342  1.00  0.00    -0.333 C  
BRANCH  19  20
HETATM   20  C   UNL     1     -10.396  11.074  66.733  1.00  0.00    -0.284 C  
BRANCH  20  21
HETATM   21  C   UNL     1      -9.697  10.976  65.383  1.00  0.00    -0.279 C  
BRANCH  21  22
HETATM   22  C   UNL     1     -10.368  11.867  64.346  1.00  0.00    -0.299 C  
HETATM   23  O   UNL     1      -9.742  13.144  64.332  1.00  0.00    -0.592 OA 
HETATM   24  H   UNL     1     -10.161  13.700  63.686  1.00  0.00     0.000 HD 
ENDBRANCH  21  22
ENDBRANCH  20  21
ENDBRANCH  19  20
ENDBRANCH  18  19
ENDBRANCH  17  18
ENDBRANCH  16  17
ENDBRANCH  15  16
ENDBRANCH  14  15
ENDBRANCH  13  14
ENDBRANCH  12  13
ENDBRANCH  11  12
ENDBRANCH  10  11
ENDBRANCH   9  10
ENDBRANCH   8   9
ENDBRANCH   7   8
ENDBRANCH   6   7
ENDBRANCH   5   6
ENDBRANCH   4   5
ENDBRANCH   3   4
ENDBRANCH   2   3
TORSDOF 20
ENDMDL
MODEL      238
REMARK 921   NORMALIZED FREE ENERGY PREDICTED BY IDOCK:   -3.24 KCAL/MOL
REMARK 922        TOTAL FREE ENERGY PREDICTED BY IDOCK:   -9.91 KCAL/MOL
REMARK 923 INTER-LIGAND FREE ENERGY PREDICTED BY IDOCK:   -7.64 KCAL/MOL
REMARK 924 INTRA-LIGAND FREE ENERGY PREDICTED BY IDOCK:   -2.26 KCAL/MOL
REMARK 927      BINDING AFFINITY PREDICTED BY RF-SCORE:    0.00 PKD
ROOT
HETATM    1  C   UNL     1      -9.871  19.096  68.505  1.00  0.00    -0.483 C  
HETATM    2  C   UNL     1      -9.517  18.994  67.031  1.00  0.00    -0.358 C  
ENDROOT
BRANCH   2   3
HETATM    3  C   UNL     1     -10.502  18.093  66.291  1.00  0.00    -0.374 C  
BRANCH   3   4
HETATM    4  C   UNL     1     -10.430  16.659  66.806  1.00  0.00    -0.261 C  
BRANCH   4   5
HETATM    5  C   UNL     1      -9.470  15.828  65.960  1.00  0.00    -0.392 C  
BRANCH   5   6
HETATM    6  C   UNL     1     -10.153  14.565  65.447  1.00  0.00    -0.394 C  
BRANCH   6   7
HETATM    7  C   UNL     1     -11.572  14.870  64.984  1.00  0.00    -0.357 C  
BRANCH   7   8
HETATM    8  C   UNL     1     -12.540  13.807  65.486  1.00  0.00    -0.551 C  
BRANCH   8   9
HETATM    9  C   UNL     1     -11.866  12.910  66.515  1.00  0.00    -0.473 C  
BRANCH   9  10
HETATM   10  C   UNL     1     -12.134  13.418  67.925  1.00  0.00    -0.289 C  
BRANCH  10  11
HETATM   11  C   UNL     1     -11.157  12.796  68.912  1.00  0.00    -0.310 C  
BRANCH  11  12
HETATM   12  C   UNL     1     -11.223  11.277  68.843  1.00  0.00    -0.315 C  
BRANCH  12  13
HETATM   13  C   UNL     1     -12.289  10.748  69.790  1.00  0.00    -0.305 C  
BRANCH  13  14
HETATM   14  C   UNL     1     -11.651   9.967  70.932  1.00  0.00    -0.463 C  
BRANCH  14  15
HETATM   15  C   UNL     1     -10.246   9.521  70.554  1.00  0.00    -0.349 C  
BRANCH  15  16
HETATM   16  C   UNL     1     -10.060   8.037  70.842  1.00  0.00    -0.211 C  
BRANCH  16  17
HETATM   17  C   UNL     1     -11.113   7.211  70.112  1.00  0.00    -0.301 C  
BRANCH  17  18
HETATM   18  C   UNL     1     -10.456   6.263  69.115  1.00  0.00    -0.291 C  
BRANCH  18  19
HETATM   19  C   UNL     1     -10.984   6.507  67.706  1.00  0.00    -0.407 C  
BRANCH  19  20
HETATM   20  C   UNL     1     -10.454   7.824  67.151  1.00  0.00    -0.413 C  
BRANCH  20  21
HETATM   21  C   UNL     1      -8.930   7.856  67.181  1.00  0.00    -0.142 C  
BRANCH  21  22
HETATM   22  C   UNL     1      -8.409   9.283  67.295  1.00  0.00    -0.125 C  
HETATM   23  O   UNL     1      -7.427   9.356  68.320  1.00  0.00    -0.078 OA 
HETATM   24  H   UNL     1      -7.103  10.246  68.391  1.00  0.00     0.000 HD 
ENDBRANCH  21  22
ENDBRANCH  20  21
ENDBRANCH  19  20
ENDBRANCH  18  19
ENDBRANCH  17  18
ENDBRANCH  16  17
ENDBRANCH  15  16
ENDBRANCH  14  15
ENDBRANCH  13  14
ENDBRANCH  12  13
ENDBRANCH  11  12
ENDBRANCH  10  11
ENDBRANCH   9  10
ENDBRANCH   8   9
ENDBRANCH   7   8
ENDBRANCH   6   7
ENDBRANCH   5   6
ENDBRANCH   4   5
ENDBRANCH   3   4
ENDBRANCH   2   3
TORSDOF 20
ENDMDL
MODEL      239
REMARK 921   NORMALIZED FREE ENERGY PREDICTED BY IDOCK:   -3.24 KCAL/MOL
REMARK 922        TOTAL FREE ENERGY PREDICTED BY IDOCK:   -9.90 KCAL/MOL
REMARK 923 INTER-LIGAND FREE ENERGY PREDICTED BY IDOCK:   -7.73 KCAL/MOL
REMARK 924 INTRA-LIGAND FREE ENERGY PREDICTED BY IDOCK:   -2.17 KCAL/MOL
REMARK 927      BINDING AFFINITY PREDICTED BY RF-SCORE:    0.00 PKD
ROOT
HETATM    1  C   UNL     1     -10.367   7.727  67.129  1.00  0.00    -0.389 C  
HETATM    2  C   UNL     1     -11.071   6.435  67.509  1.00  0.00    -0.401 C  
ENDROOT
BRANCH   2   3
HETATM    3  C   UNL     1     -10.551   5.262  66.683  1.00  0.00    -0.334 C  
BRANCH   3   4
HETATM    4  C   UNL     1      -9.245   4.721  67.257  1.00  0.00    -0.139 C  
BRANCH   4   5
HETATM    5  C   UNL     1      -9.521   3.675  68.333  1.00  0.00    -0.214 C  
BRANCH   5   6
HETATM    6  C   UNL     1      -8.858   4.064  69.650  1.00  0.00    -0.139 C  
BRANCH   6   7
HETATM    7  C   UNL     1      -9.898   4.553  70.651  1.00  0.00    -0.292 C  
BRANCH   7   8
HETATM    8  C   UNL     1      -9.662   6.017  70.996  1.00  0.00    -0.208 C  
BRANCH   8   9
HETATM    9  C   UNL     1     -10.786   6.548  71.876  1.00  0.00    -0.273 C  
BRANCH   9  10
HETATM   10  C   UNL     1     -11.707   7.459  71.076  1.00  0.00    -0.326 C  
BRANCH  10  11
HETATM   11  C   UNL     1     -12.354   8.495  71.984  1.00  0.00    -0.423 C  
BRANCH  11  12
HETATM   12  C   UNL     1     -12.144   9.897  71.429  1.00  0.00    -0.501 C  
BRANCH  12  13
HETATM   13  C   UNL     1     -11.217   9.858  70.224  1.00  0.00    -0.364 C  
BRANCH  13  14
HETATM   14  C   UNL     1     -11.582  10.955  69.233  1.00  0.00    -0.388 C  
BRANCH  14  15
HETATM   15  C   UNL     1     -11.894  12.253  69.963  1.00  0.00    -0.372 C  
BRANCH  15  16
HETATM   16  C   UNL     1     -12.166  13.375  68.969  1.00  0.00    -0.187 C  
BRANCH  16  17
HETATM   17  C   UNL     1     -10.996  14.350  68.925  1.00  0.00    -0.269 C  
BRANCH  17  18
HETATM   18  C   UNL     1     -10.387  14.396  67.528  1.00  0.00    -0.251 C  
BRANCH  18  19
HETATM   19  C   UNL     1     -11.316  13.744  66.510  1.00  0.00    -0.336 C  
BRANCH  19  20
HETATM   20  C   UNL     1     -10.619  12.584  65.808  1.00  0.00    -0.299 C  
BRANCH  20  21
HETATM   21  C   UNL     1     -10.645  12.764  64.295  1.00  0.00    -0.424 C  
BRANCH  21  22
HETATM   22  C   UNL     1     -11.603  11.779  63.637  1.00  0.00    -0.424 C  
HETATM   23  O   UNL     1     -12.917  12.323  63.622  1.00  0.00    -0.777 OA 
HETATM   24  H   UNL     1     -13.514  11.709  63.211  1.00  0.00     0.000 HD 
ENDBRANCH  21  22
ENDBRANCH  20  21
ENDBRANCH  19  20
ENDBRANCH  18  19
ENDBRANCH  17  18
ENDBRANCH  16  17
ENDBRANCH  15  16
ENDBRANCH  14  15
ENDBRANCH  13  14
ENDBRANCH  12  13
ENDBRANCH  11  12
ENDBRANCH  10  11
ENDBRANCH   9  10
ENDBRANCH   8   9
ENDBRANCH   7   8
ENDBRANCH   6   7
ENDBRANCH   5   6
ENDBRANCH   4   5
ENDBRANCH   3   4
ENDBRANCH   2   3
TORSDOF 20
ENDMDL
MODEL      240
REMARK 921   NORMALIZED FREE ENERGY PREDICTED BY IDOCK:   -3.24 KCAL/MOL
REMARK 922        TOTAL FREE ENERGY PREDICTED BY IDOCK:   -9.89 KCAL/MOL
REMARK 923 INTER-LIGAND FREE ENERGY PREDICTED BY IDOCK:   -7.48 KCAL/MOL
REMARK 924 INTRA-LIGAND FREE ENERGY PREDICTED BY IDOCK:   -2.41 KCAL/MOL
REMARK 927      BINDING AFFINITY PREDICTED BY RF-SCORE:    0.00 PKD
ROOT
HETATM    1  C   UNL     1      -9.915   3.934  64.603  1.00  0.00    -0.206 C  
HETATM    2  C   UNL     1      -9.434   4.874  65.695  1.00  0.00    -0.168 C  
ENDROOT
BRANCH   2   3
HETATM    3  C   UNL     1     -10.603   5.395  66.526  1.00  0.00    -0.353 C  
BRANCH   3   4
HETATM    4  C   UNL     1     -10.517   6.908  66.708  1.00  0.00    -0.300 C  
BRANCH   4   5
HETATM    5  C   UNL     1      -9.094   7.401  66.467  1.00  0.00    -0.195 C  
BRANCH   5   6
HETATM    6  C   UNL     1      -8.447   7.852  67.773  1.00  0.00    -0.125 C  
BRANCH   6   7
HETATM    7  C   UNL     1      -7.389   6.852  68.222  1.00  0.00    -0.097 C  
BRANCH   7   8
HETATM    8  C   UNL     1      -7.988   5.833  69.182  1.00  0.00    -0.097 C  
BRANCH   8   9
HETATM    9  C   UNL     1      -8.951   6.508  70.149  1.00  0.00    -0.155 C  
BRANCH   9  10
HETATM   10  C   UNL     1     -10.217   5.678  70.311  1.00  0.00    -0.311 C  
BRANCH  10  11
HETATM   11  C   UNL     1     -11.453   6.549  70.132  1.00  0.00    -0.477 C  
BRANCH  11  12
HETATM   12  C   UNL     1     -12.229   6.647  71.438  1.00  0.00    -0.378 C  
BRANCH  12  13
HETATM   13  C   UNL     1     -11.589   7.670  72.363  1.00  0.00    -0.386 C  
BRANCH  13  14
HETATM   14  C   UNL     1     -12.347   8.990  72.308  1.00  0.00    -0.402 C  
BRANCH  14  15
HETATM   15  C   UNL     1     -11.627   9.982  71.407  1.00  0.00    -0.383 C  
BRANCH  15  16
HETATM   16  C   UNL     1     -12.589  11.055  70.916  1.00  0.00    -0.488 C  
BRANCH  16  17
HETATM   17  C   UNL     1     -11.978  11.836  69.758  1.00  0.00    -0.392 C  
BRANCH  17  18
HETATM   18  C   UNL     1     -11.583  10.897  68.625  1.00  0.00    -0.373 C  
BRANCH  18  19
HETATM   19  C   UNL     1     -10.670  11.603  67.629  1.00  0.00    -0.249 C  
BRANCH  19  20
HETATM   20  C   UNL     1     -11.430  12.692  66.879  1.00  0.00    -0.402 C  
BRANCH  20  21
HETATM   21  C   UNL     1     -10.992  12.759  65.421  1.00  0.00    -0.313 C  
BRANCH  21  22
HETATM   22  C   UNL     1     -12.123  13.248  64.525  1.00  0.00    -0.408 C  
HETATM   23  O   UNL     1     -13.225  12.354  64.612  1.00  0.00    -0.822 OA 
HETATM   24  H   UNL     1     -13.931  12.659  64.054  1.00  0.00     0.000 HD 
ENDBRANCH  21  22
ENDBRANCH  20  21
ENDBRANCH  19  20
ENDBRANCH  18  19
ENDBRANCH  17  18
ENDBRANCH  16  17
ENDBRANCH  15  16
ENDBRANCH  14  15
ENDBRANCH  13  14
ENDBRANCH  12  13
ENDBRANCH  11  12
ENDBRANCH  10  11
ENDBRANCH   9  10
ENDBRANCH   8   9
ENDBRANCH   7   8
ENDBRANCH   6   7
ENDBRANCH   5   6
ENDBRANCH   4   5
ENDBRANCH   3   4
ENDBRANCH   2   3
TORSDOF 20
ENDMDL
MODEL      241
REMARK 921   NORMALIZED FREE ENERGY PREDICTED BY IDOCK:   -3.24 KCAL/MOL
REMARK 922        TOTAL FREE ENERGY PREDICTED BY IDOCK:   -9.89 KCAL/MOL
REMARK 923 INTER-LIGAND FREE ENERGY PREDICTED BY IDOCK:   -8.12 KCAL/MOL
REMARK 924 INTRA-LIGAND FREE ENERGY PREDICTED BY IDOCK:   -1.77 KCAL/MOL
REMARK 927      BINDING AFFINITY PREDICTED BY RF-SCORE:    0.00 PKD
ROOT
HETATM    1  C   UNL     1     -10.215  18.276  68.560  1.00  0.00    -0.402 C  
HETATM    2  C   UNL     1      -9.665  18.604  67.183  1.00  0.00    -0.324 C  
ENDROOT
BRANCH   2   3
HETATM    3  C   UNL     1     -10.396  17.820  66.098  1.00  0.00    -0.340 C  
BRANCH   3   4
HETATM    4  C   UNL     1     -10.517  16.345  66.471  1.00  0.00    -0.282 C  
BRANCH   4   5
HETATM    5  C   UNL     1      -9.611  15.489  65.592  1.00  0.00    -0.328 C  
BRANCH   5   6
HETATM    6  C   UNL     1     -10.399  14.360  64.936  1.00  0.00    -0.419 C  
BRANCH   6   7
HETATM    7  C   UNL     1     -11.877  14.720  64.842  1.00  0.00    -0.377 C  
BRANCH   7   8
HETATM    8  C   UNL     1     -12.729  13.678  65.556  1.00  0.00    -0.514 C  
BRANCH   8   9
HETATM    9  C   UNL     1     -11.904  12.439  65.877  1.00  0.00    -0.467 C  
BRANCH   9  10
HETATM   10  C   UNL     1     -11.739  12.280  67.381  1.00  0.00    -0.405 C  
BRANCH  10  11
HETATM   11  C   UNL     1     -10.420  11.592  67.705  1.00  0.00    -0.219 C  
BRANCH  11  12
HETATM   12  C   UNL     1     -10.339  10.241  67.008  1.00  0.00    -0.299 C  
BRANCH  12  13
HETATM   13  C   UNL     1     -10.711   9.123  67.970  1.00  0.00    -0.205 C  
BRANCH  13  14
HETATM   14  C   UNL     1      -9.492   8.675  68.766  1.00  0.00    -0.143 C  
BRANCH  14  15
HETATM   15  C   UNL     1      -8.959   7.355  68.228  1.00  0.00    -0.130 C  
BRANCH  15  16
HETATM   16  C   UNL     1      -9.228   6.227  69.215  1.00  0.00    -0.133 C  
BRANCH  16  17
HETATM   17  C   UNL     1      -9.511   6.784  70.606  1.00  0.00    -0.171 C  
BRANCH  17  18
HETATM   18  C   UNL     1     -10.795   6.188  71.172  1.00  0.00    -0.328 C  
BRANCH  18  19
HETATM   19  C   UNL     1     -11.179   6.872  72.480  1.00  0.00    -0.304 C  
BRANCH  19  20
HETATM   20  C   UNL     1     -11.405   8.364  72.263  1.00  0.00    -0.448 C  
BRANCH  20  21
HETATM   21  C   UNL     1     -12.621   8.609  71.376  1.00  0.00    -0.325 C  
BRANCH  21  22
HETATM   22  C   UNL     1     -13.622   9.534  72.055  1.00  0.00    -0.415 C  
HETATM   23  O   UNL     1     -14.202   8.877  73.174  1.00  0.00    -1.144 OA 
HETATM   24  H   UNL     1     -14.827   9.454  73.597  1.00  0.00     0.000 HD 
ENDBRANCH  21  22
ENDBRANCH  20  21
ENDBRANCH  19  20
ENDBRANCH  18  19
ENDBRANCH  17  18
ENDBRANCH  16  17
ENDBRANCH  15  16
ENDBRANCH  14  15
ENDBRANCH  13  14
ENDBRANCH  12  13
ENDBRANCH  11  12
ENDBRANCH  10  11
ENDBRANCH   9  10
ENDBRANCH   8   9
ENDBRANCH   7   8
ENDBRANCH   6   7
ENDBRANCH   5   6
ENDBRANCH   4   5
ENDBRANCH   3   4
ENDBRANCH   2   3
TORSDOF 20
ENDMDL
MODEL      242
REMARK 921   NORMALIZED FREE ENERGY PREDICTED BY IDOCK:   -3.23 KCAL/MOL
REMARK 922        TOTAL FREE ENERGY PREDICTED BY IDOCK:   -9.88 KCAL/MOL
REMARK 923 INTER-LIGAND FREE ENERGY PREDICTED BY IDOCK:   -6.96 KCAL/MOL
REMARK 924 INTRA-LIGAND FREE ENERGY PREDICTED BY IDOCK:   -2.92 KCAL/MOL
REMARK 927      BINDING AFFINITY PREDICTED BY RF-SCORE:    0.00 PKD
ROOT
HETATM    1  C   UNL     1     -11.560  12.662  69.076  1.00  0.00    -0.367 C  
HETATM    2  C   UNL     1     -11.796  12.723  67.576  1.00  0.00    -0.402 C  
ENDROOT
BRANCH   2   3
HETATM    3  C   UNL     1     -11.719  14.159  67.065  1.00  0.00    -0.430 C  
BRANCH   3   4
HETATM    4  C   UNL     1     -11.562  14.195  65.548  1.00  0.00    -0.337 C  
BRANCH   4   5
HETATM    5  C   UNL     1     -12.678  13.406  64.870  1.00  0.00    -0.365 C  
BRANCH   5   6
HETATM    6  C   UNL     1     -12.124  12.546  63.738  1.00  0.00    -0.615 C  
BRANCH   6   7
HETATM    7  C   UNL     1     -10.641  12.268  63.950  1.00  0.00    -0.462 C  
BRANCH   7   8
HETATM    8  C   UNL     1     -10.295  10.849  63.518  1.00  0.00    -0.342 C  
BRANCH   8   9
HETATM    9  C   UNL     1      -9.651  10.082  64.665  1.00  0.00    -0.363 C  
BRANCH   9  10
HETATM   10  C   UNL     1      -9.412  11.000  65.855  1.00  0.00    -0.244 C  
BRANCH  10  11
HETATM   11  C   UNL     1      -8.863  10.212  67.036  1.00  0.00    -0.144 C  
BRANCH  11  12
HETATM   12  C   UNL     1      -8.320  11.155  68.100  1.00  0.00    -0.136 C  
BRANCH  12  13
HETATM   13  C   UNL     1      -7.310  12.117  67.494  1.00  0.00    -0.135 C  
BRANCH  13  14
HETATM   14  C   UNL     1      -7.309  13.439  68.250  1.00  0.00    -0.113 C  
BRANCH  14  15
HETATM   15  C   UNL     1      -8.403  14.356  67.724  1.00  0.00    -0.172 C  
BRANCH  15  16
HETATM   16  C   UNL     1      -7.817  15.690  67.281  1.00  0.00    -0.230 C  
BRANCH  16  17
HETATM   17  C   UNL     1      -8.805  16.446  66.401  1.00  0.00    -0.346 C  
BRANCH  17  18
HETATM   18  C   UNL     1      -9.533  17.515  67.208  1.00  0.00    -0.253 C  
BRANCH  18  19
HETATM   19  C   UNL     1      -9.479  18.863  66.496  1.00  0.00    -0.361 C  
BRANCH  19  20
HETATM   20  C   UNL     1      -8.100  19.497  66.647  1.00  0.00    -0.324 C  
BRANCH  20  21
HETATM   21  C   UNL     1      -7.757  19.716  68.115  1.00  0.00    -0.344 C  
BRANCH  21  22
HETATM   22  C   UNL     1      -6.426  19.068  68.474  1.00  0.00    -0.243 C  
HETATM   23  O   UNL     1      -6.609  18.156  69.549  1.00  0.00    -0.234 OA 
HETATM   24  H   UNL     1      -5.779  17.751  69.773  1.00  0.00     0.000 HD 
ENDBRANCH  21  22
ENDBRANCH  20  21
ENDBRANCH  19  20
ENDBRANCH  18  19
ENDBRANCH  17  18
ENDBRANCH  16  17
ENDBRANCH  15  16
ENDBRANCH  14  15
ENDBRANCH  13  14
ENDBRANCH  12  13
ENDBRANCH  11  12
ENDBRANCH  10  11
ENDBRANCH   9  10
ENDBRANCH   8   9
ENDBRANCH   7   8
ENDBRANCH   6   7
ENDBRANCH   5   6
ENDBRANCH   4   5
ENDBRANCH   3   4
ENDBRANCH   2   3
TORSDOF 20
ENDMDL
MODEL      243
REMARK 921   NORMALIZED FREE ENERGY PREDICTED BY IDOCK:   -3.22 KCAL/MOL
REMARK 922        TOTAL FREE ENERGY PREDICTED BY IDOCK:   -9.85 KCAL/MOL
REMARK 923 INTER-LIGAND FREE ENERGY PREDICTED BY IDOCK:   -8.00 KCAL/MOL
REMARK 924 INTRA-LIGAND FREE ENERGY PREDICTED BY IDOCK:   -1.86 KCAL/MOL
REMARK 927      BINDING AFFINITY PREDICTED BY RF-SCORE:    0.00 PKD
ROOT
HETATM    1  C   UNL     1     -12.976  10.773  71.622  1.00  0.00    -0.581 C  
HETATM    2  C   UNL     1     -12.923   9.298  71.979  1.00  0.00    -0.504 C  
ENDROOT
BRANCH   2   3
HETATM    3  C   UNL     1     -11.504   8.751  71.847  1.00  0.00    -0.428 C  
BRANCH   3   4
HETATM    4  C   UNL     1     -11.428   7.674  70.768  1.00  0.00    -0.295 C  
BRANCH   4   5
HETATM    5  C   UNL     1     -10.221   7.900  69.863  1.00  0.00    -0.210 C  
BRANCH   5   6
HETATM    6  C   UNL     1     -10.154   9.351  69.399  1.00  0.00    -0.204 C  
BRANCH   6   7
HETATM    7  C   UNL     1     -10.888   9.526  68.075  1.00  0.00    -0.225 C  
BRANCH   7   8
HETATM    8  C   UNL     1      -9.956  10.103  67.018  1.00  0.00    -0.249 C  
BRANCH   8   9
HETATM    9  C   UNL     1      -9.590   9.042  65.989  1.00  0.00    -0.342 C  
BRANCH   9  10
HETATM   10  C   UNL     1      -9.321   9.681  64.634  1.00  0.00    -0.271 C  
BRANCH  10  11
HETATM   11  C   UNL     1      -9.491  11.191  64.713  1.00  0.00    -0.250 C  
BRANCH  11  12
HETATM   12  C   UNL     1     -10.097  11.728  63.424  1.00  0.00    -0.470 C  
BRANCH  12  13
HETATM   13  C   UNL     1     -11.459  12.348  63.693  1.00  0.00    -0.568 C  
BRANCH  13  14
HETATM   14  C   UNL     1     -11.326  13.552  64.617  1.00  0.00    -0.375 C  
BRANCH  14  15
HETATM   15  C   UNL     1     -12.671  13.898  65.239  1.00  0.00    -0.485 C  
BRANCH  15  16
HETATM   16  C   UNL     1     -12.532  14.085  66.744  1.00  0.00    -0.238 C  
BRANCH  16  17
HETATM   17  C   UNL     1     -11.616  13.021  67.336  1.00  0.00    -0.407 C  
BRANCH  17  18
HETATM   18  C   UNL     1     -10.955  13.530  68.612  1.00  0.00    -0.289 C  
BRANCH  18  19
HETATM   19  C   UNL     1     -11.975  14.211  69.517  1.00  0.00    -0.389 C  
BRANCH  19  20
HETATM   20  C   UNL     1     -11.278  14.980  70.634  1.00  0.00    -0.280 C  
BRANCH  20  21
HETATM   21  C   UNL     1     -11.129  16.453  70.273  1.00  0.00    -0.267 C  
BRANCH  21  22
HETATM   22  C   UNL     1     -10.720  16.628  68.817  1.00  0.00    -0.342 C  
HETATM   23  O   UNL     1      -9.900  17.780  68.682  1.00  0.00    -0.326 OA 
HETATM   24  H   UNL     1      -9.644  17.889  67.773  1.00  0.00     0.000 HD 
ENDBRANCH  21  22
ENDBRANCH  20  21
ENDBRANCH  19  20
ENDBRANCH  18  19
ENDBRANCH  17  18
ENDBRANCH  16  17
ENDBRANCH  15  16
ENDBRANCH  14  15
ENDBRANCH  13  14
ENDBRANCH  12  13
ENDBRANCH  11  12
ENDBRANCH  10  11
ENDBRANCH   9  10
ENDBRANCH   8   9
ENDBRANCH   7   8
ENDBRANCH   6   7
ENDBRANCH   5   6
ENDBRANCH   4   5
ENDBRANCH   3   4
ENDBRANCH   2   3
TORSDOF 20
ENDMDL
MODEL      244
REMARK 921   NORMALIZED FREE ENERGY PREDICTED BY IDOCK:   -3.22 KCAL/MOL
REMARK 922        TOTAL FREE ENERGY PREDICTED BY IDOCK:   -9.84 KCAL/MOL
REMARK 923 INTER-LIGAND FREE ENERGY PREDICTED BY IDOCK:   -7.12 KCAL/MOL
REMARK 924 INTRA-LIGAND FREE ENERGY PREDICTED BY IDOCK:   -2.72 KCAL/MOL
REMARK 927      BINDING AFFINITY PREDICTED BY RF-SCORE:    0.00 PKD
ROOT
HETATM    1  C   UNL     1     -10.297   4.843  66.120  1.00  0.00    -0.329 C  
HETATM    2  C   UNL     1     -10.755   6.085  66.865  1.00  0.00    -0.407 C  
ENDROOT
BRANCH   2   3
HETATM    3  C   UNL     1     -10.391   6.005  68.344  1.00  0.00    -0.252 C  
BRANCH   3   4
HETATM    4  C   UNL     1     -11.522   6.536  69.219  1.00  0.00    -0.307 C  
BRANCH   4   5
HETATM    5  C   UNL     1     -11.498   5.876  70.594  1.00  0.00    -0.105 C  
BRANCH   5   6
HETATM    6  C   UNL     1     -10.189   5.124  70.812  1.00  0.00    -0.308 C  
BRANCH   6   7
HETATM    7  C   UNL     1      -9.734   5.243  72.261  1.00  0.00    -0.192 C  
BRANCH   7   8
HETATM    8  C   UNL     1     -10.268   6.525  72.887  1.00  0.00    -0.212 C  
BRANCH   8   9
HETATM    9  C   UNL     1      -9.167   7.572  72.986  1.00  0.00    -0.233 C  
BRANCH   9  10
HETATM   10  C   UNL     1      -9.417   8.706  72.002  1.00  0.00    -0.370 C  
BRANCH  10  11
HETATM   11  C   UNL     1      -8.533   8.550  70.772  1.00  0.00    -0.166 C  
BRANCH  11  12
HETATM   12  C   UNL     1      -9.000   9.477  69.659  1.00  0.00    -0.198 C  
BRANCH  12  13
HETATM   13  C   UNL     1     -10.372  10.049  69.983  1.00  0.00    -0.323 C  
BRANCH  13  14
HETATM   14  C   UNL     1     -11.247  10.079  68.737  1.00  0.00    -0.173 C  
BRANCH  14  15
HETATM   15  C   UNL     1     -12.036  11.378  68.670  1.00  0.00    -0.214 C  
BRANCH  15  16
HETATM   16  C   UNL     1     -11.296  12.493  69.398  1.00  0.00    -0.275 C  
BRANCH  16  17
HETATM   17  C   UNL     1     -10.856  13.575  68.419  1.00  0.00    -0.286 C  
BRANCH  17  18
HETATM   18  C   UNL     1     -11.945  13.841  67.386  1.00  0.00    -0.423 C  
BRANCH  18  19
HETATM   19  C   UNL     1     -11.415  14.711  66.251  1.00  0.00    -0.351 C  
BRANCH  19  20
HETATM   20  C   UNL     1     -11.006  13.852  65.059  1.00  0.00    -0.371 C  
BRANCH  20  21
HETATM   21  C   UNL     1     -11.696  12.494  65.101  1.00  0.00    -0.422 C  
BRANCH  21  22
HETATM   22  C   UNL     1     -11.071  11.525  64.106  1.00  0.00    -0.344 C  
HETATM   23  O   UNL     1     -11.852  11.485  62.919  1.00  0.00    -0.859 OA 
HETATM   24  H   UNL     1     -11.462  10.881  62.298  1.00  0.00     0.000 HD 
ENDBRANCH  21  22
ENDBRANCH  20  21
ENDBRANCH  19  20
ENDBRANCH  18  19
ENDBRANCH  17  18
ENDBRANCH  16  17
ENDBRANCH  15  16
ENDBRANCH  14  15
ENDBRANCH  13  14
ENDBRANCH  12  13
ENDBRANCH  11  12
ENDBRANCH  10  11
ENDBRANCH   9  10
ENDBRANCH   8   9
ENDBRANCH   7   8
ENDBRANCH   6   7
ENDBRANCH   5   6
ENDBRANCH   4   5
ENDBRANCH   3   4
ENDBRANCH   2   3
TORSDOF 20
ENDMDL
MODEL      245
REMARK 921   NORMALIZED FREE ENERGY PREDICTED BY IDOCK:   -3.21 KCAL/MOL
REMARK 922        TOTAL FREE ENERGY PREDICTED BY IDOCK:   -9.83 KCAL/MOL
REMARK 923 INTER-LIGAND FREE ENERGY PREDICTED BY IDOCK:   -7.18 KCAL/MOL
REMARK 924 INTRA-LIGAND FREE ENERGY PREDICTED BY IDOCK:   -2.64 KCAL/MOL
REMARK 927      BINDING AFFINITY PREDICTED BY RF-SCORE:    0.00 PKD
ROOT
HETATM    1  C   UNL     1      -5.870  20.243  65.784  1.00  0.00    -0.211 C  
HETATM    2  C   UNL     1      -6.212  20.827  67.144  1.00  0.00    -0.323 C  
ENDROOT
BRANCH   2   3
HETATM    3  C   UNL     1      -7.470  20.184  67.718  1.00  0.00    -0.327 C  
BRANCH   3   4
HETATM    4  C   UNL     1      -8.622  20.240  66.718  1.00  0.00    -0.334 C  
BRANCH   4   5
HETATM    5  C   UNL     1      -9.815  19.435  67.223  1.00  0.00    -0.445 C  
BRANCH   5   6
HETATM    6  C   UNL     1      -9.754  19.266  68.738  1.00  0.00    -0.510 C  
BRANCH   6   7
HETATM    7  C   UNL     1     -10.074  17.829  69.132  1.00  0.00    -0.220 C  
BRANCH   7   8
HETATM    8  C   UNL     1     -11.028  17.197  68.128  1.00  0.00    -0.231 C  
BRANCH   8   9
HETATM    9  C   UNL     1     -11.873  16.120  68.795  1.00  0.00    -0.130 C  
BRANCH   9  10
HETATM   10  C   UNL     1     -11.318  15.781  70.171  1.00  0.00    -0.361 C  
BRANCH  10  11
HETATM   11  C   UNL     1     -11.858  14.441  70.650  1.00  0.00    -0.361 C  
BRANCH  11  12
HETATM   12  C   UNL     1     -12.377  13.625  69.475  1.00  0.00    -0.232 C  
BRANCH  12  13
HETATM   13  C   UNL     1     -11.632  12.303  69.375  1.00  0.00    -0.378 C  
BRANCH  13  14
HETATM   14  C   UNL     1     -11.378  11.940  67.917  1.00  0.00    -0.358 C  
BRANCH  14  15
HETATM   15  C   UNL     1     -11.941  13.011  66.995  1.00  0.00    -0.409 C  
BRANCH  15  16
HETATM   16  C   UNL     1     -11.880  12.554  65.543  1.00  0.00    -0.491 C  
BRANCH  16  17
HETATM   17  C   UNL     1     -10.651  13.130  64.849  1.00  0.00    -0.366 C  
BRANCH  17  18
HETATM   18  C   UNL     1     -10.376  14.548  65.334  1.00  0.00    -0.405 C  
BRANCH  18  19
HETATM   19  C   UNL     1      -9.188  14.574  66.289  1.00  0.00    -0.231 C  
BRANCH  19  20
HETATM   20  C   UNL     1      -8.493  15.931  66.251  1.00  0.00    -0.302 C  
BRANCH  20  21
HETATM   21  C   UNL     1      -7.356  15.992  67.264  1.00  0.00    -0.243 C  
BRANCH  21  22
HETATM   22  C   UNL     1      -7.741  15.304  68.568  1.00  0.00    -0.128 C  
HETATM   23  O   UNL     1      -6.930  15.795  69.628  1.00  0.00    -0.193 OA 
HETATM   24  H   UNL     1      -7.170  15.366  70.441  1.00  0.00     0.000 HD 
ENDBRANCH  21  22
ENDBRANCH  20  21
ENDBRANCH  19  20
ENDBRANCH  18  19
ENDBRANCH  17  18
ENDBRANCH  16  17
ENDBRANCH  15  16
ENDBRANCH  14  15
ENDBRANCH  13  14
ENDBRANCH  12  13
ENDBRANCH  11  12
ENDBRANCH  10  11
ENDBRANCH   9  10
ENDBRANCH   8   9
ENDBRANCH   7   8
ENDBRANCH   6   7
ENDBRANCH   5   6
ENDBRANCH   4   5
ENDBRANCH   3   4
ENDBRANCH   2   3
TORSDOF 20
ENDMDL
MODEL      246
REMARK 921   NORMALIZED FREE ENERGY PREDICTED BY IDOCK:   -3.20 KCAL/MOL
REMARK 922        TOTAL FREE ENERGY PREDICTED BY IDOCK:   -9.81 KCAL/MOL
REMARK 923 INTER-LIGAND FREE ENERGY PREDICTED BY IDOCK:   -5.99 KCAL/MOL
REMARK 924 INTRA-LIGAND FREE ENERGY PREDICTED BY IDOCK:   -3.82 KCAL/MOL
REMARK 927      BINDING AFFINITY PREDICTED BY RF-SCORE:    0.00 PKD
ROOT
HETATM    1  C   UNL     1     -12.395   9.539  71.722  1.00  0.00    -0.474 C  
HETATM    2  C   UNL     1     -11.642   8.315  72.215  1.00  0.00    -0.449 C  
ENDROOT
BRANCH   2   3
HETATM    3  C   UNL     1     -12.236   7.034  71.638  1.00  0.00    -0.395 C  
BRANCH   3   4
HETATM    4  C   UNL     1     -11.713   5.804  72.375  1.00  0.00    -0.281 C  
BRANCH   4   5
HETATM    5  C   UNL     1     -10.211   5.920  72.620  1.00  0.00    -0.209 C  
BRANCH   5   6
HETATM    6  C   UNL     1      -9.426   5.208  71.523  1.00  0.00    -0.197 C  
BRANCH   6   7
HETATM    7  C   UNL     1      -8.653   6.212  70.677  1.00  0.00    -0.135 C  
BRANCH   7   8
HETATM    8  C   UNL     1      -8.706   5.827  69.204  1.00  0.00    -0.113 C  
BRANCH   8   9
HETATM    9  C   UNL     1     -10.070   5.247  68.850  1.00  0.00    -0.254 C  
BRANCH   9  10
HETATM   10  C   UNL     1     -11.001   6.341  68.348  1.00  0.00    -0.409 C  
BRANCH  10  11
HETATM   11  C   UNL     1     -10.497   6.907  67.027  1.00  0.00    -0.374 C  
BRANCH  11  12
HETATM   12  C   UNL     1     -10.201   8.393  67.163  1.00  0.00    -0.362 C  
BRANCH  12  13
HETATM   13  C   UNL     1     -10.624   8.898  68.533  1.00  0.00    -0.183 C  
BRANCH  13  14
HETATM   14  C   UNL     1      -9.445   9.536  69.257  1.00  0.00    -0.171 C  
BRANCH  14  15
HETATM   15  C   UNL     1      -8.245   9.646  68.328  1.00  0.00    -0.106 C  
BRANCH  15  16
HETATM   16  C   UNL     1      -7.216  10.615  68.896  1.00  0.00    -0.090 C  
BRANCH  16  17
HETATM   17  C   UNL     1      -7.563  12.051  68.521  1.00  0.00    -0.126 C  
BRANCH  17  18
HETATM   18  C   UNL     1      -8.014  12.132  67.067  1.00  0.00    -0.138 C  
BRANCH  18  19
HETATM   19  C   UNL     1      -9.280  12.972  66.938  1.00  0.00    -0.236 C  
BRANCH  19  20
HETATM   20  C   UNL     1     -10.473  12.098  66.567  1.00  0.00    -0.254 C  
BRANCH  20  21
HETATM   21  C   UNL     1     -11.663  12.382  67.476  1.00  0.00    -0.425 C  
BRANCH  21  22
HETATM   22  C   UNL     1     -11.207  12.837  68.857  1.00  0.00    -0.283 C  
HETATM   23  O   UNL     1     -12.120  13.796  69.372  1.00  0.00    -0.326 OA 
HETATM   24  H   UNL     1     -11.836  14.080  70.233  1.00  0.00     0.000 HD 
ENDBRANCH  21  22
ENDBRANCH  20  21
ENDBRANCH  19  20
ENDBRANCH  18  19
ENDBRANCH  17  18
ENDBRANCH  16  17
ENDBRANCH  15  16
ENDBRANCH  14  15
ENDBRANCH  13  14
ENDBRANCH  12  13
ENDBRANCH  11  12
ENDBRANCH  10  11
ENDBRANCH   9  10
ENDBRANCH   8   9
ENDBRANCH   7   8
ENDBRANCH   6   7
ENDBRANCH   5   6
ENDBRANCH   4   5
ENDBRANCH   3   4
ENDBRANCH   2   3
TORSDOF 20
ENDMDL
MODEL      247
REMARK 921   NORMALIZED FREE ENERGY PREDICTED BY IDOCK:   -3.20 KCAL/MOL
REMARK 922        TOTAL FREE ENERGY PREDICTED BY IDOCK:   -9.81 KCAL/MOL
REMARK 923 INTER-LIGAND FREE ENERGY PREDICTED BY IDOCK:   -6.70 KCAL/MOL
REMARK 924 INTRA-LIGAND FREE ENERGY PREDICTED BY IDOCK:   -3.11 KCAL/MOL
REMARK 927      BINDING AFFINITY PREDICTED BY RF-SCORE:    0.00 PKD
ROOT
HETATM    1  C   UNL     1      -9.622   5.625  66.849  1.00  0.00    -0.151 C  
HETATM    2  C   UNL     1     -10.816   5.902  67.747  1.00  0.00    -0.326 C  
ENDROOT
BRANCH   2   3
HETATM    3  C   UNL     1     -10.584   7.143  68.604  1.00  0.00    -0.217 C  
BRANCH   3   4
HETATM    4  C   UNL     1     -11.166   6.962  70.002  1.00  0.00    -0.347 C  
BRANCH   4   5
HETATM    5  C   UNL     1     -10.216   7.516  71.059  1.00  0.00    -0.194 C  
BRANCH   5   6
HETATM    6  C   UNL     1     -10.890   8.618  71.871  1.00  0.00    -0.419 C  
BRANCH   6   7
HETATM    7  C   UNL     1     -12.391   8.636  71.611  1.00  0.00    -0.384 C  
BRANCH   7   8
HETATM    8  C   UNL     1     -12.872  10.057  71.346  1.00  0.00    -0.519 C  
BRANCH   8   9
HETATM    9  C   UNL     1     -11.790  10.868  70.645  1.00  0.00    -0.453 C  
BRANCH   9  10
HETATM   10  C   UNL     1     -12.134  11.059  69.175  1.00  0.00    -0.333 C  
BRANCH  10  11
HETATM   11  C   UNL     1     -10.958  10.660  68.295  1.00  0.00    -0.314 C  
BRANCH  11  12
HETATM   12  C   UNL     1      -9.655  10.739  69.078  1.00  0.00    -0.193 C  
BRANCH  12  13
HETATM   13  C   UNL     1      -8.464  10.557  68.150  1.00  0.00    -0.123 C  
BRANCH  13  14
HETATM   14  C   UNL     1      -7.834   9.185  68.350  1.00  0.00    -0.102 C  
BRANCH  14  15
HETATM   15  C   UNL     1      -7.457   8.570  67.011  1.00  0.00    -0.084 C  
BRANCH  15  16
HETATM   16  C   UNL     1      -8.282   9.185  65.888  1.00  0.00    -0.113 C  
BRANCH  16  17
HETATM   17  C   UNL     1      -7.514   9.148  64.572  1.00  0.00    -0.101 C  
BRANCH  17  18
HETATM   18  C   UNL     1      -8.096  10.149  63.582  1.00  0.00    -0.163 C  
BRANCH  18  19
HETATM   19  C   UNL     1      -9.497  10.578  64.004  1.00  0.00    -0.337 C  
BRANCH  19  20
HETATM   20  C   UNL     1     -10.113  11.507  62.963  1.00  0.00    -0.330 C  
BRANCH  20  21
HETATM   21  C   UNL     1     -11.045  12.519  63.618  1.00  0.00    -0.523 C  
BRANCH  21  22
HETATM   22  C   UNL     1     -11.635  11.972  64.911  1.00  0.00    -0.273 C  
HETATM   23  O   UNL     1     -12.939  12.503  65.108  1.00  0.00    -0.700 OA 
HETATM   24  H   UNL     1     -13.307  12.162  65.914  1.00  0.00     0.000 HD 
ENDBRANCH  21  22
ENDBRANCH  20  21
ENDBRANCH  19  20
ENDBRANCH  18  19
ENDBRANCH  17  18
ENDBRANCH  16  17
ENDBRANCH  15  16
ENDBRANCH  14  15
ENDBRANCH  13  14
ENDBRANCH  12  13
ENDBRANCH  11  12
ENDBRANCH  10  11
ENDBRANCH   9  10
ENDBRANCH   8   9
ENDBRANCH   7   8
ENDBRANCH   6   7
ENDBRANCH   5   6
ENDBRANCH   4   5
ENDBRANCH   3   4
ENDBRANCH   2   3
TORSDOF 20
ENDMDL
MODEL      248
REMARK 921   NORMALIZED FREE ENERGY PREDICTED BY IDOCK:   -3.19 KCAL/MOL
REMARK 922        TOTAL FREE ENERGY PREDICTED BY IDOCK:   -9.80 KCAL/MOL
REMARK 923 INTER-LIGAND FREE ENERGY PREDICTED BY IDOCK:   -6.77 KCAL/MOL
REMARK 924 INTRA-LIGAND FREE ENERGY PREDICTED BY IDOCK:   -3.03 KCAL/MOL
REMARK 927      BINDING AFFINITY PREDICTED BY RF-SCORE:    0.00 PKD
ROOT
HETATM    1  C   UNL     1     -13.134   9.705  71.349  1.00  0.00    -0.471 C  
HETATM    2  C   UNL     1     -11.852  10.520  71.353  1.00  0.00    -0.237 C  
ENDROOT
BRANCH   2   3
HETATM    3  C   UNL     1     -11.302  10.686  69.940  1.00  0.00    -0.386 C  
BRANCH   3   4
HETATM    4  C   UNL     1     -11.611  12.075  69.388  1.00  0.00    -0.393 C  
BRANCH   4   5
HETATM    5  C   UNL     1     -11.759  12.033  67.870  1.00  0.00    -0.393 C  
BRANCH   5   6
HETATM    6  C   UNL     1     -12.014  13.428  67.311  1.00  0.00    -0.393 C  
BRANCH   6   7
HETATM    7  C   UNL     1     -12.479  13.351  65.862  1.00  0.00    -0.468 C  
BRANCH   7   8
HETATM    8  C   UNL     1     -11.505  14.081  64.947  1.00  0.00    -0.358 C  
BRANCH   8   9
HETATM    9  C   UNL     1     -10.280  13.220  64.670  1.00  0.00    -0.334 C  
BRANCH   9  10
HETATM   10  C   UNL     1     -10.660  12.001  63.841  1.00  0.00    -0.447 C  
BRANCH  10  11
HETATM   11  C   UNL     1      -9.726  10.838  64.143  1.00  0.00    -0.364 C  
BRANCH  11  12
HETATM   12  C   UNL     1     -10.123  10.159  65.446  1.00  0.00    -0.342 C  
BRANCH  12  13
HETATM   13  C   UNL     1      -8.972  10.196  66.438  1.00  0.00    -0.163 C  
BRANCH  13  14
HETATM   14  C   UNL     1      -7.662  10.514  65.728  1.00  0.00    -0.145 C  
BRANCH  14  15
HETATM   15  C   UNL     1      -6.868  11.549  66.511  1.00  0.00    -0.016 C  
BRANCH  15  16
HETATM   16  C   UNL     1      -7.738  12.194  67.582  1.00  0.00    -0.148 C  
BRANCH  16  17
HETATM   17  C   UNL     1      -7.530  13.703  67.607  1.00  0.00    -0.191 C  
BRANCH  17  18
HETATM   18  C   UNL     1      -8.854  14.424  67.834  1.00  0.00    -0.179 C  
BRANCH  18  19
HETATM   19  C   UNL     1      -8.651  15.935  67.860  1.00  0.00    -0.164 C  
BRANCH  19  20
HETATM   20  C   UNL     1      -8.609  16.499  66.444  1.00  0.00    -0.347 C  
BRANCH  20  21
HETATM   21  C   UNL     1      -7.768  17.768  66.385  1.00  0.00    -0.318 C  
BRANCH  21  22
HETATM   22  C   UNL     1      -8.223  18.781  67.427  1.00  0.00    -0.263 C  
HETATM   23  O   UNL     1      -7.090  19.384  68.038  1.00  0.00    -0.251 OA 
HETATM   24  H   UNL     1      -7.374  20.016  68.689  1.00  0.00     0.000 HD 
ENDBRANCH  21  22
ENDBRANCH  20  21
ENDBRANCH  19  20
ENDBRANCH  18  19
ENDBRANCH  17  18
ENDBRANCH  16  17
ENDBRANCH  15  16
ENDBRANCH  14  15
ENDBRANCH  13  14
ENDBRANCH  12  13
ENDBRANCH  11  12
ENDBRANCH  10  11
ENDBRANCH   9  10
ENDBRANCH   8   9
ENDBRANCH   7   8
ENDBRANCH   6   7
ENDBRANCH   5   6
ENDBRANCH   4   5
ENDBRANCH   3   4
ENDBRANCH   2   3
TORSDOF 20
ENDMDL
MODEL      249
REMARK 921   NORMALIZED FREE ENERGY PREDICTED BY IDOCK:   -3.19 KCAL/MOL
REMARK 922        TOTAL FREE ENERGY PREDICTED BY IDOCK:   -9.79 KCAL/MOL
REMARK 923 INTER-LIGAND FREE ENERGY PREDICTED BY IDOCK:   -6.71 KCAL/MOL
REMARK 924 INTRA-LIGAND FREE ENERGY PREDICTED BY IDOCK:   -3.08 KCAL/MOL
REMARK 927      BINDING AFFINITY PREDICTED BY RF-SCORE:    0.00 PKD
ROOT
HETATM    1  C   UNL     1      -7.631   9.559  68.489  1.00  0.00    -0.081 C  
HETATM    2  C   UNL     1      -8.342   8.509  69.327  1.00  0.00    -0.120 C  
ENDROOT
BRANCH   2   3
HETATM    3  C   UNL     1      -8.581   9.011  70.748  1.00  0.00    -0.259 C  
BRANCH   3   4
HETATM    4  C   UNL     1      -9.594   8.133  71.478  1.00  0.00    -0.226 C  
BRANCH   4   5
HETATM    5  C   UNL     1     -10.324   7.221  70.497  1.00  0.00    -0.215 C  
BRANCH   5   6
HETATM    6  C   UNL     1     -11.793   7.076  70.881  1.00  0.00    -0.401 C  
BRANCH   6   7
HETATM    7  C   UNL     1     -12.085   7.818  72.179  1.00  0.00    -0.346 C  
BRANCH   7   8
HETATM    8  C   UNL     1     -13.184   8.852  71.970  1.00  0.00    -0.459 C  
BRANCH   8   9
HETATM    9  C   UNL     1     -12.586  10.237  71.767  1.00  0.00    -0.488 C  
BRANCH   9  10
HETATM   10  C   UNL     1     -12.777  10.696  70.328  1.00  0.00    -0.277 C  
BRANCH  10  11
HETATM   11  C   UNL     1     -11.430  10.893  69.646  1.00  0.00    -0.377 C  
BRANCH  11  12
HETATM   12  C   UNL     1     -11.285   9.940  68.468  1.00  0.00    -0.129 C  
BRANCH  12  13
HETATM   13  C   UNL     1     -10.891  10.703  67.213  1.00  0.00    -0.345 C  
BRANCH  13  14
HETATM   14  C   UNL     1     -10.618  12.165  67.538  1.00  0.00    -0.240 C  
BRANCH  14  15
HETATM   15  C   UNL     1     -11.263  13.072  66.501  1.00  0.00    -0.335 C  
BRANCH  15  16
HETATM   16  C   UNL     1     -11.966  14.243  67.177  1.00  0.00    -0.449 C  
BRANCH  16  17
HETATM   17  C   UNL     1     -11.557  14.343  68.641  1.00  0.00    -0.347 C  
BRANCH  17  18
HETATM   18  C   UNL     1     -11.666  15.782  69.133  1.00  0.00    -0.398 C  
BRANCH  18  19
HETATM   19  C   UNL     1     -10.319  16.489  69.042  1.00  0.00    -0.296 C  
BRANCH  19  20
HETATM   20  C   UNL     1      -9.180  15.477  68.988  1.00  0.00    -0.238 C  
BRANCH  20  21
HETATM   21  C   UNL     1      -8.385  15.616  67.695  1.00  0.00    -0.168 C  
BRANCH  21  22
HETATM   22  C   UNL     1      -7.188  14.675  67.677  1.00  0.00    -0.186 C  
HETATM   23  O   UNL     1      -6.019  15.391  67.304  1.00  0.00    -0.330 OA 
HETATM   24  H   UNL     1      -5.272  14.803  67.293  1.00  0.00     0.000 HD 
ENDBRANCH  21  22
ENDBRANCH  20  21
ENDBRANCH  19  20
ENDBRANCH  18  19
ENDBRANCH  17  18
ENDBRANCH  16  17
ENDBRANCH  15  16
ENDBRANCH  14  15
ENDBRANCH  13  14
ENDBRANCH  12  13
ENDBRANCH  11  12
ENDBRANCH  10  11
ENDBRANCH   9  10
ENDBRANCH   8   9
ENDBRANCH   7   8
ENDBRANCH   6   7
ENDBRANCH   5   6
ENDBRANCH   4   5
ENDBRANCH   3   4
ENDBRANCH   2   3
TORSDOF 20
ENDMDL
MODEL      250
REMARK 921   NORMALIZED FREE ENERGY PREDICTED BY IDOCK:   -3.19 KCAL/MOL
REMARK 922        TOTAL FREE ENERGY PREDICTED BY IDOCK:   -9.78 KCAL/MOL
REMARK 923 INTER-LIGAND FREE ENERGY PREDICTED BY IDOCK:   -7.41 KCAL/MOL
REMARK 924 INTRA-LIGAND FREE ENERGY PREDICTED BY IDOCK:   -2.38 KCAL/MOL
REMARK 927      BINDING AFFINITY PREDICTED BY RF-SCORE:    0.00 PKD
ROOT
HETATM    1  C   UNL     1     -10.139   5.079  66.330  1.00  0.00    -0.275 C  
HETATM    2  C   UNL     1     -11.061   6.098  66.977  1.00  0.00    -0.332 C  
ENDROOT
BRANCH   2   3
HETATM    3  C   UNL     1     -10.459   6.640  68.270  1.00  0.00    -0.249 C  
BRANCH   3   4
HETATM    4  C   UNL     1     -10.806   5.745  69.456  1.00  0.00    -0.410 C  
BRANCH   4   5
HETATM    5  C   UNL     1      -9.582   4.959  69.916  1.00  0.00    -0.252 C  
BRANCH   5   6
HETATM    6  C   UNL     1      -9.780   4.423  71.330  1.00  0.00    -0.252 C  
BRANCH   6   7
HETATM    7  C   UNL     1      -8.549   4.693  72.185  1.00  0.00    -0.123 C  
BRANCH   7   8
HETATM    8  C   UNL     1      -8.954   5.157  73.578  1.00  0.00    -0.118 C  
BRANCH   8   9
HETATM    9  C   UNL     1     -10.345   5.777  73.553  1.00  0.00    -0.252 C  
BRANCH   9  10
HETATM   10  C   UNL     1     -10.255   7.288  73.400  1.00  0.00    -0.394 C  
BRANCH  10  11
HETATM   11  C   UNL     1     -11.359   7.799  72.485  1.00  0.00    -0.429 C  
BRANCH  11  12
HETATM   12  C   UNL     1     -10.845   8.934  71.610  1.00  0.00    -0.420 C  
BRANCH  12  13
HETATM   13  C   UNL     1      -9.333   8.855  71.471  1.00  0.00    -0.335 C  
BRANCH  13  14
HETATM   14  C   UNL     1      -8.855   9.737  70.325  1.00  0.00    -0.188 C  
BRANCH  14  15
HETATM   15  C   UNL     1     -10.039  10.307  69.559  1.00  0.00    -0.260 C  
BRANCH  15  16
HETATM   16  C   UNL     1      -9.730  10.380  68.070  1.00  0.00    -0.166 C  
BRANCH  16  17
HETATM   17  C   UNL     1     -11.014  10.335  67.251  1.00  0.00    -0.277 C  
BRANCH  17  18
HETATM   18  C   UNL     1     -11.370  11.723  66.733  1.00  0.00    -0.385 C  
BRANCH  18  19
HETATM   19  C   UNL     1     -10.601  12.040  65.455  1.00  0.00    -0.313 C  
BRANCH  19  20
HETATM   20  C   UNL     1     -10.400  13.544  65.305  1.00  0.00    -0.344 C  
BRANCH  20  21
HETATM   21  C   UNL     1     -11.698  14.299  65.570  1.00  0.00    -0.353 C  
BRANCH  21  22
HETATM   22  C   UNL     1     -12.785  13.892  64.584  1.00  0.00    -0.139 C  
HETATM   23  O   UNL     1     -12.351  14.154  63.256  1.00  0.00    -1.140 OA 
HETATM   24  H   UNL     1     -13.029  13.901  62.640  1.00  0.00     0.000 HD 
ENDBRANCH  21  22
ENDBRANCH  20  21
ENDBRANCH  19  20
ENDBRANCH  18  19
ENDBRANCH  17  18
ENDBRANCH  16  17
ENDBRANCH  15  16
ENDBRANCH  14  15
ENDBRANCH  13  14
ENDBRANCH  12  13
ENDBRANCH  11  12
ENDBRANCH  10  11
ENDBRANCH   9  10
ENDBRANCH   8   9
ENDBRANCH   7   8
ENDBRANCH   6   7
ENDBRANCH   5   6
ENDBRANCH   4   5
ENDBRANCH   3   4
ENDBRANCH   2   3
TORSDOF 20
ENDMDL
MODEL      251
REMARK 921   NORMALIZED FREE ENERGY PREDICTED BY IDOCK:   -3.19 KCAL/MOL
REMARK 922        TOTAL FREE ENERGY PREDICTED BY IDOCK:   -9.78 KCAL/MOL
REMARK 923 INTER-LIGAND FREE ENERGY PREDICTED BY IDOCK:   -8.42 KCAL/MOL
REMARK 924 INTRA-LIGAND FREE ENERGY PREDICTED BY IDOCK:   -1.36 KCAL/MOL
REMARK 927      BINDING AFFINITY PREDICTED BY RF-SCORE:    0.00 PKD
ROOT
HETATM    1  C   UNL     1     -12.163  12.311  63.847  1.00  0.00    -0.608 C  
HETATM    2  C   UNL     1     -12.019  13.820  63.956  1.00  0.00    -0.451 C  
ENDROOT
BRANCH   2   3
HETATM    3  C   UNL     1     -10.831  14.196  64.835  1.00  0.00    -0.423 C  
BRANCH   3   4
HETATM    4  C   UNL     1     -10.855  15.681  65.186  1.00  0.00    -0.448 C  
BRANCH   4   5
HETATM    5  C   UNL     1     -10.575  15.890  66.671  1.00  0.00    -0.305 C  
BRANCH   5   6
HETATM    6  C   UNL     1      -9.570  14.863  67.183  1.00  0.00    -0.229 C  
BRANCH   6   7
HETATM    7  C   UNL     1      -9.949  14.391  68.582  1.00  0.00    -0.241 C  
BRANCH   7   8
HETATM    8  C   UNL     1     -11.351  14.861  68.945  1.00  0.00    -0.301 C  
BRANCH   8   9
HETATM    9  C   UNL     1     -12.273  13.671  69.175  1.00  0.00    -0.265 C  
BRANCH   9  10
HETATM   10  C   UNL     1     -12.273  13.270  70.643  1.00  0.00    -0.417 C  
BRANCH  10  11
HETATM   11  C   UNL     1     -12.334  11.756  70.783  1.00  0.00    -0.433 C  
BRANCH  11  12
HETATM   12  C   UNL     1     -13.122  11.366  72.025  1.00  0.00    -0.423 C  
BRANCH  12  13
HETATM   13  C   UNL     1     -13.148   9.854  72.187  1.00  0.00    -0.497 C  
BRANCH  13  14
HETATM   14  C   UNL     1     -11.806   9.250  71.796  1.00  0.00    -0.454 C  
BRANCH  14  15
HETATM   15  C   UNL     1     -11.499   8.031  72.652  1.00  0.00    -0.465 C  
BRANCH  15  16
HETATM   16  C   UNL     1     -11.928   6.755  71.940  1.00  0.00    -0.374 C  
BRANCH  16  17
HETATM   17  C   UNL     1     -10.749   5.801  71.788  1.00  0.00    -0.305 C  
BRANCH  17  18
HETATM   18  C   UNL     1     -10.620   5.331  70.344  1.00  0.00    -0.278 C  
BRANCH  18  19
HETATM   19  C   UNL     1     -11.258   6.333  69.388  1.00  0.00    -0.489 C  
BRANCH  19  20
HETATM   20  C   UNL     1     -10.855   6.037  67.948  1.00  0.00    -0.378 C  
BRANCH  20  21
HETATM   21  C   UNL     1      -9.491   5.360  67.890  1.00  0.00    -0.137 C  
BRANCH  21  22
HETATM   22  C   UNL     1      -8.939   5.350  66.470  1.00  0.00    -0.120 C  
HETATM   23  O   UNL     1      -9.521   6.407  65.720  1.00  0.00    -0.383 OA 
HETATM   24  H   UNL     1      -9.177   6.400  64.834  1.00  0.00     0.000 HD 
ENDBRANCH  21  22
ENDBRANCH  20  21
ENDBRANCH  19  20
ENDBRANCH  18  19
ENDBRANCH  17  18
ENDBRANCH  16  17
ENDBRANCH  15  16
ENDBRANCH  14  15
ENDBRANCH  13  14
ENDBRANCH  12  13
ENDBRANCH  11  12
ENDBRANCH  10  11
ENDBRANCH   9  10
ENDBRANCH   8   9
ENDBRANCH   7   8
ENDBRANCH   6   7
ENDBRANCH   5   6
ENDBRANCH   4   5
ENDBRANCH   3   4
ENDBRANCH   2   3
TORSDOF 20
ENDMDL
MODEL      252
REMARK 921   NORMALIZED FREE ENERGY PREDICTED BY IDOCK:   -3.19 KCAL/MOL
REMARK 922        TOTAL FREE ENERGY PREDICTED BY IDOCK:   -9.78 KCAL/MOL
REMARK 923 INTER-LIGAND FREE ENERGY PREDICTED BY IDOCK:   -6.63 KCAL/MOL
REMARK 924 INTRA-LIGAND FREE ENERGY PREDICTED BY IDOCK:   -3.15 KCAL/MOL
REMARK 927      BINDING AFFINITY PREDICTED BY RF-SCORE:    0.00 PKD
ROOT
HETATM    1  C   UNL     1     -11.338  12.118  66.554  1.00  0.00    -0.405 C  
HETATM    2  C   UNL     1     -11.552  11.720  68.005  1.00  0.00    -0.386 C  
ENDROOT
BRANCH   2   3
HETATM    3  C   UNL     1     -11.718  12.949  68.893  1.00  0.00    -0.370 C  
BRANCH   3   4
HETATM    4  C   UNL     1     -12.044  12.549  70.330  1.00  0.00    -0.373 C  
BRANCH   4   5
HETATM    5  C   UNL     1     -12.194  11.036  70.449  1.00  0.00    -0.461 C  
BRANCH   5   6
HETATM    6  C   UNL     1     -13.032  10.668  71.669  1.00  0.00    -0.582 C  
BRANCH   6   7
HETATM    7  C   UNL     1     -13.498   9.219  71.584  1.00  0.00    -0.465 C  
BRANCH   7   8
HETATM    8  C   UNL     1     -12.513   8.297  72.291  1.00  0.00    -0.384 C  
BRANCH   8   9
HETATM    9  C   UNL     1     -12.580   6.892  71.706  1.00  0.00    -0.386 C  
BRANCH   9  10
HETATM   10  C   UNL     1     -11.223   6.476  71.158  1.00  0.00    -0.353 C  
BRANCH  10  11
HETATM   11  C   UNL     1     -11.278   6.341  69.642  1.00  0.00    -0.506 C  
BRANCH  11  12
HETATM   12  C   UNL     1     -10.625   7.544  68.976  1.00  0.00    -0.190 C  
BRANCH  12  13
HETATM   13  C   UNL     1      -9.850   7.113  67.741  1.00  0.00    -0.175 C  
BRANCH  13  14
HETATM   14  C   UNL     1     -10.283   7.924  66.527  1.00  0.00    -0.212 C  
BRANCH  14  15
HETATM   15  C   UNL     1      -9.427   9.175  66.388  1.00  0.00    -0.288 C  
BRANCH  15  16
HETATM   16  C   UNL     1      -7.948   8.813  66.377  1.00  0.00    -0.103 C  
BRANCH  16  17
HETATM   17  C   UNL     1      -7.202   9.564  67.474  1.00  0.00    -0.090 C  
BRANCH  17  18
HETATM   18  C   UNL     1      -8.161  10.437  68.274  1.00  0.00    -0.114 C  
BRANCH  18  19
HETATM   19  C   UNL     1      -8.157  10.039  69.746  1.00  0.00    -0.188 C  
BRANCH  19  20
HETATM   20  C   UNL     1      -7.161   8.911  69.997  1.00  0.00    -0.054 C  
BRANCH  20  21
HETATM   21  C   UNL     1      -7.733   7.882  70.966  1.00  0.00    -0.084 C  
BRANCH  21  22
HETATM   22  C   UNL     1      -7.491   8.292  72.413  1.00  0.00    -0.118 C  
HETATM   23  O   UNL     1      -8.734   8.539  73.057  1.00  0.00    -0.343 OA 
HETATM   24  H   UNL     1      -8.583   8.794  73.960  1.00  0.00     0.000 HD 
ENDBRANCH  21  22
ENDBRANCH  20  21
ENDBRANCH  19  20
ENDBRANCH  18  19
ENDBRANCH  17  18
ENDBRANCH  16  17
ENDBRANCH  15  16
ENDBRANCH  14  15
ENDBRANCH  13  14
ENDBRANCH  12  13
ENDBRANCH  11  12
ENDBRANCH  10  11
ENDBRANCH   9  10
ENDBRANCH   8   9
ENDBRANCH   7   8
ENDBRANCH   6   7
ENDBRANCH   5   6
ENDBRANCH   4   5
ENDBRANCH   3   4
ENDBRANCH   2   3
TORSDOF 20
ENDMDL
MODEL      253
REMARK 921   NORMALIZED FREE ENERGY PREDICTED BY IDOCK:   -3.18 KCAL/MOL
REMARK 922        TOTAL FREE ENERGY PREDICTED BY IDOCK:   -9.76 KCAL/MOL
REMARK 923 INTER-LIGAND FREE ENERGY PREDICTED BY IDOCK:   -7.60 KCAL/MOL
REMARK 924 INTRA-LIGAND FREE ENERGY PREDICTED BY IDOCK:   -2.17 KCAL/MOL
REMARK 927      BINDING AFFINITY PREDICTED BY RF-SCORE:    0.00 PKD
ROOT
HETATM    1  C   UNL     1      -9.174   3.149  65.749  1.00  0.00    -0.138 C  
HETATM    2  C   UNL     1      -9.810   4.447  65.282  1.00  0.00    -0.209 C  
ENDROOT
BRANCH   2   3
HETATM    3  C   UNL     1     -10.427   5.209  66.451  1.00  0.00    -0.356 C  
BRANCH   3   4
HETATM    4  C   UNL     1      -9.578   5.066  67.711  1.00  0.00    -0.178 C  
BRANCH   4   5
HETATM    5  C   UNL     1      -9.805   6.245  68.652  1.00  0.00    -0.152 C  
BRANCH   5   6
HETATM    6  C   UNL     1     -11.008   5.995  69.556  1.00  0.00    -0.467 C  
BRANCH   6   7
HETATM    7  C   UNL     1     -10.599   5.193  70.785  1.00  0.00    -0.205 C  
BRANCH   7   8
HETATM    8  C   UNL     1     -10.131   6.120  71.899  1.00  0.00    -0.216 C  
BRANCH   8   9
HETATM    9  C   UNL     1     -11.318   6.827  72.542  1.00  0.00    -0.292 C  
BRANCH   9  10
HETATM   10  C   UNL     1     -11.235   8.329  72.308  1.00  0.00    -0.443 C  
BRANCH  10  11
HETATM   11  C   UNL     1      -9.824   8.730  71.901  1.00  0.00    -0.395 C  
BRANCH  11  12
HETATM   12  C   UNL     1      -9.838   9.430  70.549  1.00  0.00    -0.331 C  
BRANCH  12  13
HETATM   13  C   UNL     1     -11.262   9.564  70.033  1.00  0.00    -0.243 C  
BRANCH  13  14
HETATM   14  C   UNL     1     -11.334  10.604  68.923  1.00  0.00    -0.337 C  
BRANCH  14  15
HETATM   15  C   UNL     1     -10.635  10.097  67.670  1.00  0.00    -0.316 C  
BRANCH  15  16
HETATM   16  C   UNL     1      -9.614  11.114  67.178  1.00  0.00    -0.192 C  
BRANCH  16  17
HETATM   17  C   UNL     1      -9.250  12.093  68.289  1.00  0.00    -0.192 C  
BRANCH  17  18
HETATM   18  C   UNL     1      -9.673  13.509  67.917  1.00  0.00    -0.225 C  
BRANCH  18  19
HETATM   19  C   UNL     1     -10.412  13.522  66.584  1.00  0.00    -0.274 C  
BRANCH  19  20
HETATM   20  C   UNL     1     -11.893  13.822  66.791  1.00  0.00    -0.454 C  
BRANCH  20  21
HETATM   21  C   UNL     1     -12.640  13.834  65.462  1.00  0.00    -0.551 C  
BRANCH  21  22
HETATM   22  C   UNL     1     -11.718  13.466  64.307  1.00  0.00    -0.412 C  
HETATM   23  O   UNL     1     -12.414  13.598  63.075  1.00  0.00    -1.020 OA 
HETATM   24  H   UNL     1     -11.839  13.369  62.354  1.00  0.00     0.000 HD 
ENDBRANCH  21  22
ENDBRANCH  20  21
ENDBRANCH  19  20
ENDBRANCH  18  19
ENDBRANCH  17  18
ENDBRANCH  16  17
ENDBRANCH  15  16
ENDBRANCH  14  15
ENDBRANCH  13  14
ENDBRANCH  12  13
ENDBRANCH  11  12
ENDBRANCH  10  11
ENDBRANCH   9  10
ENDBRANCH   8   9
ENDBRANCH   7   8
ENDBRANCH   6   7
ENDBRANCH   5   6
ENDBRANCH   4   5
ENDBRANCH   3   4
ENDBRANCH   2   3
TORSDOF 20
ENDMDL
MODEL      254
REMARK 921   NORMALIZED FREE ENERGY PREDICTED BY IDOCK:   -3.18 KCAL/MOL
REMARK 922        TOTAL FREE ENERGY PREDICTED BY IDOCK:   -9.76 KCAL/MOL
REMARK 923 INTER-LIGAND FREE ENERGY PREDICTED BY IDOCK:   -6.70 KCAL/MOL
REMARK 924 INTRA-LIGAND FREE ENERGY PREDICTED BY IDOCK:   -3.06 KCAL/MOL
REMARK 927      BINDING AFFINITY PREDICTED BY RF-SCORE:    0.00 PKD
ROOT
HETATM    1  C   UNL     1     -10.307   5.320  66.584  1.00  0.00    -0.330 C  
HETATM    2  C   UNL     1      -9.367   6.488  66.340  1.00  0.00    -0.175 C  
ENDROOT
BRANCH   2   3
HETATM    3  C   UNL     1      -8.136   6.400  67.238  1.00  0.00    -0.113 C  
BRANCH   3   4
HETATM    4  C   UNL     1      -7.664   7.788  67.663  1.00  0.00    -0.121 C  
BRANCH   4   5
HETATM    5  C   UNL     1      -8.827   8.610  68.211  1.00  0.00    -0.142 C  
BRANCH   5   6
HETATM    6  C   UNL     1      -8.638   8.893  69.698  1.00  0.00    -0.131 C  
BRANCH   6   7
HETATM    7  C   UNL     1      -9.610   8.066  70.531  1.00  0.00    -0.170 C  
BRANCH   7   8
HETATM    8  C   UNL     1     -10.740   7.530  69.661  1.00  0.00    -0.236 C  
BRANCH   8   9
HETATM    9  C   UNL     1     -11.462   6.388  70.364  1.00  0.00    -0.458 C  
BRANCH   9  10
HETATM   10  C   UNL     1     -12.039   6.857  71.692  1.00  0.00    -0.394 C  
BRANCH  10  11
HETATM   11  C   UNL     1     -13.237   7.768  71.461  1.00  0.00    -0.356 C  
BRANCH  11  12
HETATM   12  C   UNL     1     -13.031   9.107  72.155  1.00  0.00    -0.498 C  
BRANCH  12  13
HETATM   13  C   UNL     1     -13.153  10.248  71.157  1.00  0.00    -0.481 C  
BRANCH  13  14
HETATM   14  C   UNL     1     -11.782  10.642  70.624  1.00  0.00    -0.454 C  
BRANCH  14  15
HETATM   15  C   UNL     1     -11.881  11.092  69.174  1.00  0.00    -0.407 C  
BRANCH  15  16
HETATM   16  C   UNL     1     -10.931  12.251  68.906  1.00  0.00    -0.265 C  
BRANCH  16  17
HETATM   17  C   UNL     1     -10.340  12.149  67.504  1.00  0.00    -0.219 C  
BRANCH  17  18
HETATM   18  C   UNL     1     -11.437  11.897  66.476  1.00  0.00    -0.381 C  
BRANCH  18  19
HETATM   19  C   UNL     1     -10.853  11.317  65.192  1.00  0.00    -0.268 C  
BRANCH  19  20
HETATM   20  C   UNL     1      -9.766  10.296  65.507  1.00  0.00    -0.326 C  
BRANCH  20  21
HETATM   21  C   UNL     1      -9.251   9.636  64.233  1.00  0.00    -0.235 C  
BRANCH  21  22
HETATM   22  C   UNL     1      -8.010  10.343  63.706  1.00  0.00    -0.086 C  
HETATM   23  O   UNL     1      -8.374  11.251  62.675  1.00  0.00    -0.456 OA 
HETATM   24  H   UNL     1      -7.600  11.693  62.347  1.00  0.00     0.000 HD 
ENDBRANCH  21  22
ENDBRANCH  20  21
ENDBRANCH  19  20
ENDBRANCH  18  19
ENDBRANCH  17  18
ENDBRANCH  16  17
ENDBRANCH  15  16
ENDBRANCH  14  15
ENDBRANCH  13  14
ENDBRANCH  12  13
ENDBRANCH  11  12
ENDBRANCH  10  11
ENDBRANCH   9  10
ENDBRANCH   8   9
ENDBRANCH   7   8
ENDBRANCH   6   7
ENDBRANCH   5   6
ENDBRANCH   4   5
ENDBRANCH   3   4
ENDBRANCH   2   3
TORSDOF 20
ENDMDL
MODEL      255
REMARK 921   NORMALIZED FREE ENERGY PREDICTED BY IDOCK:   -3.17 KCAL/MOL
REMARK 922        TOTAL FREE ENERGY PREDICTED BY IDOCK:   -9.74 KCAL/MOL
REMARK 923 INTER-LIGAND FREE ENERGY PREDICTED BY IDOCK:   -7.73 KCAL/MOL
REMARK 924 INTRA-LIGAND FREE ENERGY PREDICTED BY IDOCK:   -2.01 KCAL/MOL
REMARK 927      BINDING AFFINITY PREDICTED BY RF-SCORE:    0.00 PKD
ROOT
HETATM    1  C   UNL     1      -6.502   4.641  64.469  1.00  0.00    -0.039 C  
HETATM    2  C   UNL     1      -7.150   5.269  65.691  1.00  0.00    -0.067 C  
ENDROOT
BRANCH   2   3
HETATM    3  C   UNL     1      -8.454   5.970  65.322  1.00  0.00    -0.131 C  
BRANCH   3   4
HETATM    4  C   UNL     1      -8.393   7.457  65.659  1.00  0.00    -0.143 C  
BRANCH   4   5
HETATM    5  C   UNL     1      -9.344   7.791  66.805  1.00  0.00    -0.227 C  
BRANCH   5   6
HETATM    6  C   UNL     1     -10.161   9.039  66.487  1.00  0.00    -0.354 C  
BRANCH   6   7
HETATM    7  C   UNL     1      -9.330  10.297  66.710  1.00  0.00    -0.187 C  
BRANCH   7   8
HETATM    8  C   UNL     1      -9.185  11.080  65.412  1.00  0.00    -0.232 C  
BRANCH   8   9
HETATM    9  C   UNL     1     -10.125  10.532  64.346  1.00  0.00    -0.395 C  
BRANCH   9  10
HETATM   10  C   UNL     1     -10.535  11.632  63.377  1.00  0.00    -0.482 C  
BRANCH  10  11
HETATM   11  C   UNL     1     -12.014  11.957  63.532  1.00  0.00    -0.567 C  
BRANCH  11  12
HETATM   12  C   UNL     1     -12.221  13.462  63.634  1.00  0.00    -0.480 C  
BRANCH  12  13
HETATM   13  C   UNL     1     -11.483  14.020  64.841  1.00  0.00    -0.358 C  
BRANCH  13  14
HETATM   14  C   UNL     1     -12.336  13.893  66.096  1.00  0.00    -0.504 C  
BRANCH  14  15
HETATM   15  C   UNL     1     -11.546  13.226  67.213  1.00  0.00    -0.404 C  
BRANCH  15  16
HETATM   16  C   UNL     1     -11.911  13.831  68.562  1.00  0.00    -0.406 C  
BRANCH  16  17
HETATM   17  C   UNL     1     -11.992  15.350  68.466  1.00  0.00    -0.205 C  
BRANCH  17  18
HETATM   18  C   UNL     1     -10.601  15.969  68.544  1.00  0.00    -0.268 C  
BRANCH  18  19
HETATM   19  C   UNL     1     -10.341  16.870  67.342  1.00  0.00    -0.309 C  
BRANCH  19  20
HETATM   20  C   UNL     1      -9.846  18.240  67.792  1.00  0.00    -0.328 C  
BRANCH  20  21
HETATM   21  C   UNL     1     -10.793  19.342  67.330  1.00  0.00    -0.554 C  
BRANCH  21  22
HETATM   22  C   UNL     1     -10.487  19.770  65.901  1.00  0.00    -0.486 C  
HETATM   23  O   UNL     1      -9.207  20.386  65.847  1.00  0.00    -0.608 OA 
HETATM   24  H   UNL     1      -9.016  20.653  64.956  1.00  0.00     0.000 HD 
ENDBRANCH  21  22
ENDBRANCH  20  21
ENDBRANCH  19  20
ENDBRANCH  18  19
ENDBRANCH  17  18
ENDBRANCH  16  17
ENDBRANCH  15  16
ENDBRANCH  14  15
ENDBRANCH  13  14
ENDBRANCH  12  13
ENDBRANCH  11  12
ENDBRANCH  10  11
ENDBRANCH   9  10
ENDBRANCH   8   9
ENDBRANCH   7   8
ENDBRANCH   6   7
ENDBRANCH   5   6
ENDBRANCH   4   5
ENDBRANCH   3   4
ENDBRANCH   2   3
TORSDOF 20
ENDMDL
MODEL      256
REMARK 921   NORMALIZED FREE ENERGY PREDICTED BY IDOCK:   -3.16 KCAL/MOL
REMARK 922        TOTAL FREE ENERGY PREDICTED BY IDOCK:   -9.73 KCAL/MOL
REMARK 923 INTER-LIGAND FREE ENERGY PREDICTED BY IDOCK:   -6.99 KCAL/MOL
REMARK 924 INTRA-LIGAND FREE ENERGY PREDICTED BY IDOCK:   -2.74 KCAL/MOL
REMARK 927      BINDING AFFINITY PREDICTED BY RF-SCORE:    0.00 PKD
ROOT
HETATM    1  C   UNL     1     -12.474  12.549  63.364  1.00  0.00    -0.514 C  
HETATM    2  C   UNL     1     -10.975  12.408  63.569  1.00  0.00    -0.506 C  
ENDROOT
BRANCH   2   3
HETATM    3  C   UNL     1     -10.549  12.978  64.919  1.00  0.00    -0.355 C  
BRANCH   3   4
HETATM    4  C   UNL     1     -11.469  14.116  65.351  1.00  0.00    -0.325 C  
BRANCH   4   5
HETATM    5  C   UNL     1     -11.903  13.939  66.803  1.00  0.00    -0.452 C  
BRANCH   5   6
HETATM    6  C   UNL     1     -11.243  14.983  67.697  1.00  0.00    -0.331 C  
BRANCH   6   7
HETATM    7  C   UNL     1     -10.453  15.985  66.863  1.00  0.00    -0.306 C  
BRANCH   7   8
HETATM    8  C   UNL     1      -9.090  16.247  67.490  1.00  0.00    -0.196 C  
BRANCH   8   9
HETATM    9  C   UNL     1      -8.125  15.112  67.170  1.00  0.00    -0.245 C  
BRANCH   9  10
HETATM   10  C   UNL     1      -7.362  14.692  68.418  1.00  0.00    -0.115 C  
BRANCH  10  11
HETATM   11  C   UNL     1      -7.302  13.174  68.522  1.00  0.00    -0.111 C  
BRANCH  11  12
HETATM   12  C   UNL     1      -7.368  12.542  67.139  1.00  0.00    -0.066 C  
BRANCH  12  13
HETATM   13  C   UNL     1      -8.196  11.267  67.176  1.00  0.00    -0.149 C  
BRANCH  13  14
HETATM   14  C   UNL     1      -9.417  11.446  68.068  1.00  0.00    -0.181 C  
BRANCH  14  15
HETATM   15  C   UNL     1     -10.520  10.479  67.664  1.00  0.00    -0.276 C  
BRANCH  15  16
HETATM   16  C   UNL     1     -10.054   9.581  66.525  1.00  0.00    -0.326 C  
BRANCH  16  17
HETATM   17  C   UNL     1     -10.354   8.119  66.835  1.00  0.00    -0.401 C  
BRANCH  17  18
HETATM   18  C   UNL     1     -10.404   7.888  68.340  1.00  0.00    -0.235 C  
BRANCH  18  19
HETATM   19  C   UNL     1     -10.831   6.459  68.656  1.00  0.00    -0.379 C  
BRANCH  19  20
HETATM   20  C   UNL     1     -11.473   6.381  70.037  1.00  0.00    -0.496 C  
BRANCH  20  21
HETATM   21  C   UNL     1     -10.472   5.894  71.079  1.00  0.00    -0.296 C  
BRANCH  21  22
HETATM   22  C   UNL     1     -10.750   6.512  72.443  1.00  0.00    -0.224 C  
HETATM   23  O   UNL     1     -11.852   5.854  73.054  1.00  0.00    -0.509 OA 
HETATM   24  H   UNL     1     -12.024   6.240  73.905  1.00  0.00     0.000 HD 
ENDBRANCH  21  22
ENDBRANCH  20  21
ENDBRANCH  19  20
ENDBRANCH  18  19
ENDBRANCH  17  18
ENDBRANCH  16  17
ENDBRANCH  15  16
ENDBRANCH  14  15
ENDBRANCH  13  14
ENDBRANCH  12  13
ENDBRANCH  11  12
ENDBRANCH  10  11
ENDBRANCH   9  10
ENDBRANCH   8   9
ENDBRANCH   7   8
ENDBRANCH   6   7
ENDBRANCH   5   6
ENDBRANCH   4   5
ENDBRANCH   3   4
ENDBRANCH   2   3
TORSDOF 20
ENDMDL
MODEL      257
REMARK 921   NORMALIZED FREE ENERGY PREDICTED BY IDOCK:   -3.16 KCAL/MOL
REMARK 922        TOTAL FREE ENERGY PREDICTED BY IDOCK:   -9.72 KCAL/MOL
REMARK 923 INTER-LIGAND FREE ENERGY PREDICTED BY IDOCK:   -8.05 KCAL/MOL
REMARK 924 INTRA-LIGAND FREE ENERGY PREDICTED BY IDOCK:   -1.67 KCAL/MOL
REMARK 927      BINDING AFFINITY PREDICTED BY RF-SCORE:    0.00 PKD
ROOT
HETATM    1  C   UNL     1     -10.982   5.829  66.507  1.00  0.00    -0.152 C  
HETATM    2  C   UNL     1     -10.941   6.170  67.986  1.00  0.00    -0.399 C  
ENDROOT
BRANCH   2   3
HETATM    3  C   UNL     1      -9.736   7.046  68.315  1.00  0.00    -0.136 C  
BRANCH   3   4
HETATM    4  C   UNL     1      -9.940   8.473  67.815  1.00  0.00    -0.241 C  
BRANCH   4   5
HETATM    5  C   UNL     1     -10.264   9.410  68.975  1.00  0.00    -0.216 C  
BRANCH   5   6
HETATM    6  C   UNL     1     -10.951   8.655  70.108  1.00  0.00    -0.234 C  
BRANCH   6   7
HETATM    7  C   UNL     1     -11.388   9.615  71.207  1.00  0.00    -0.458 C  
BRANCH   7   8
HETATM    8  C   UNL     1     -12.723  10.260  70.857  1.00  0.00    -0.462 C  
BRANCH   8   9
HETATM    9  C   UNL     1     -12.634  11.776  70.974  1.00  0.00    -0.409 C  
BRANCH   9  10
HETATM   10  C   UNL     1     -13.287  12.251  72.264  1.00  0.00    -0.375 C  
BRANCH  10  11
HETATM   11  C   UNL     1     -13.507  13.757  72.228  1.00  0.00    -0.638 C  
BRANCH  11  12
HETATM   12  C   UNL     1     -12.309  14.486  72.820  1.00  0.00    -0.255 C  
BRANCH  12  13
HETATM   13  C   UNL     1     -11.779  15.523  71.843  1.00  0.00    -0.527 C  
BRANCH  13  14
HETATM   14  C   UNL     1     -11.043  14.849  70.693  1.00  0.00    -0.169 C  
BRANCH  14  15
HETATM   15  C   UNL     1     -11.792  15.056  69.385  1.00  0.00    -0.358 C  
BRANCH  15  16
HETATM   16  C   UNL     1     -11.457  13.949  68.394  1.00  0.00    -0.346 C  
BRANCH  16  17
HETATM   17  C   UNL     1      -9.948  13.759  68.289  1.00  0.00    -0.243 C  
BRANCH  17  18
HETATM   18  C   UNL     1      -9.615  12.628  67.323  1.00  0.00    -0.203 C  
BRANCH  18  19
HETATM   19  C   UNL     1     -10.126  12.944  65.921  1.00  0.00    -0.295 C  
BRANCH  19  20
HETATM   20  C   UNL     1     -10.734  11.702  65.276  1.00  0.00    -0.346 C  
BRANCH  20  21
HETATM   21  C   UNL     1     -10.807  11.854  63.762  1.00  0.00    -0.481 C  
BRANCH  21  22
HETATM   22  C   UNL     1     -12.247  12.021  63.292  1.00  0.00    -0.421 C  
HETATM   23  O   UNL     1     -12.771  13.250  63.777  1.00  0.00    -0.686 OA 
HETATM   24  H   UNL     1     -13.669  13.355  63.484  1.00  0.00     0.000 HD 
ENDBRANCH  21  22
ENDBRANCH  20  21
ENDBRANCH  19  20
ENDBRANCH  18  19
ENDBRANCH  17  18
ENDBRANCH  16  17
ENDBRANCH  15  16
ENDBRANCH  14  15
ENDBRANCH  13  14
ENDBRANCH  12  13
ENDBRANCH  11  12
ENDBRANCH  10  11
ENDBRANCH   9  10
ENDBRANCH   8   9
ENDBRANCH   7   8
ENDBRANCH   6   7
ENDBRANCH   5   6
ENDBRANCH   4   5
ENDBRANCH   3   4
ENDBRANCH   2   3
TORSDOF 20
ENDMDL
MODEL      258
REMARK 921   NORMALIZED FREE ENERGY PREDICTED BY IDOCK:   -3.16 KCAL/MOL
REMARK 922        TOTAL FREE ENERGY PREDICTED BY IDOCK:   -9.72 KCAL/MOL
REMARK 923 INTER-LIGAND FREE ENERGY PREDICTED BY IDOCK:   -8.13 KCAL/MOL
REMARK 924 INTRA-LIGAND FREE ENERGY PREDICTED BY IDOCK:   -1.59 KCAL/MOL
REMARK 927      BINDING AFFINITY PREDICTED BY RF-SCORE:    0.00 PKD
ROOT
HETATM    1  C   UNL     1      -9.913   8.740  71.796  1.00  0.00    -0.396 C  
HETATM    2  C   UNL     1     -10.821   7.984  72.751  1.00  0.00    -0.438 C  
ENDROOT
BRANCH   2   3
HETATM    3  C   UNL     1     -11.254   6.648  72.155  1.00  0.00    -0.299 C  
BRANCH   3   4
HETATM    4  C   UNL     1     -11.644   6.800  70.687  1.00  0.00    -0.422 C  
BRANCH   4   5
HETATM    5  C   UNL     1     -10.706   5.996  69.792  1.00  0.00    -0.399 C  
BRANCH   5   6
HETATM    6  C   UNL     1      -9.952   6.912  68.834  1.00  0.00    -0.158 C  
BRANCH   6   7
HETATM    7  C   UNL     1     -10.675   7.002  67.495  1.00  0.00    -0.352 C  
BRANCH   7   8
HETATM    8  C   UNL     1     -10.557   8.406  66.915  1.00  0.00    -0.285 C  
BRANCH   8   9
HETATM    9  C   UNL     1      -9.350   9.128  67.500  1.00  0.00    -0.157 C  
BRANCH   9  10
HETATM   10  C   UNL     1      -9.230  10.528  66.916  1.00  0.00    -0.173 C  
BRANCH  10  11
HETATM   11  C   UNL     1      -9.786  11.561  67.886  1.00  0.00    -0.192 C  
BRANCH  11  12
HETATM   12  C   UNL     1     -11.161  12.032  67.434  1.00  0.00    -0.368 C  
BRANCH  12  13
HETATM   13  C   UNL     1     -11.282  11.946  65.921  1.00  0.00    -0.373 C  
BRANCH  13  14
HETATM   14  C   UNL     1     -12.310  12.947  65.408  1.00  0.00    -0.538 C  
BRANCH  14  15
HETATM   15  C   UNL     1     -11.632  14.044  64.602  1.00  0.00    -0.400 C  
BRANCH  15  16
HETATM   16  C   UNL     1     -11.219  15.197  65.508  1.00  0.00    -0.320 C  
BRANCH  16  17
HETATM   17  C   UNL     1      -9.737  15.108  65.851  1.00  0.00    -0.385 C  
BRANCH  17  18
HETATM   18  C   UNL     1      -9.333  16.241  66.787  1.00  0.00    -0.258 C  
BRANCH  18  19
HETATM   19  C   UNL     1     -10.559  17.011  67.267  1.00  0.00    -0.267 C  
BRANCH  19  20
HETATM   20  C   UNL     1     -10.200  17.923  68.435  1.00  0.00    -0.398 C  
BRANCH  20  21
HETATM   21  C   UNL     1      -9.927  19.344  67.955  1.00  0.00    -0.488 C  
BRANCH  21  22
HETATM   22  C   UNL     1     -10.777  19.689  66.739  1.00  0.00    -0.447 C  
HETATM   23  O   UNL     1      -9.984  20.369  65.775  1.00  0.00    -0.615 OA 
HETATM   24  H   UNL     1     -10.514  20.584  65.017  1.00  0.00     0.000 HD 
ENDBRANCH  21  22
ENDBRANCH  20  21
ENDBRANCH  19  20
ENDBRANCH  18  19
ENDBRANCH  17  18
ENDBRANCH  16  17
ENDBRANCH  15  16
ENDBRANCH  14  15
ENDBRANCH  13  14
ENDBRANCH  12  13
ENDBRANCH  11  12
ENDBRANCH  10  11
ENDBRANCH   9  10
ENDBRANCH   8   9
ENDBRANCH   7   8
ENDBRANCH   6   7
ENDBRANCH   5   6
ENDBRANCH   4   5
ENDBRANCH   3   4
ENDBRANCH   2   3
TORSDOF 20
ENDMDL
MODEL      259
REMARK 921   NORMALIZED FREE ENERGY PREDICTED BY IDOCK:   -3.15 KCAL/MOL
REMARK 922        TOTAL FREE ENERGY PREDICTED BY IDOCK:   -9.71 KCAL/MOL
REMARK 923 INTER-LIGAND FREE ENERGY PREDICTED BY IDOCK:   -6.62 KCAL/MOL
REMARK 924 INTRA-LIGAND FREE ENERGY PREDICTED BY IDOCK:   -3.09 KCAL/MOL
REMARK 927      BINDING AFFINITY PREDICTED BY RF-SCORE:    0.00 PKD
ROOT
HETATM    1  C   UNL     1     -12.051  13.115  66.557  1.00  0.00    -0.423 C  
HETATM    2  C   UNL     1     -11.654  12.236  67.731  1.00  0.00    -0.416 C  
ENDROOT
BRANCH   2   3
HETATM    3  C   UNL     1     -11.341  13.077  68.965  1.00  0.00    -0.340 C  
BRANCH   3   4
HETATM    4  C   UNL     1     -12.050  12.528  70.200  1.00  0.00    -0.368 C  
BRANCH   4   5
HETATM    5  C   UNL     1     -12.304  11.030  70.055  1.00  0.00    -0.377 C  
BRANCH   5   6
HETATM    6  C   UNL     1     -12.680  10.412  71.398  1.00  0.00    -0.551 C  
BRANCH   6   7
HETATM    7  C   UNL     1     -11.686   9.325  71.787  1.00  0.00    -0.456 C  
BRANCH   7   8
HETATM    8  C   UNL     1     -11.631   8.241  70.718  1.00  0.00    -0.250 C  
BRANCH   8   9
HETATM    9  C   UNL     1     -12.605   7.117  71.043  1.00  0.00    -0.335 C  
BRANCH   9  10
HETATM   10  C   UNL     1     -12.079   6.270  72.193  1.00  0.00    -0.304 C  
BRANCH  10  11
HETATM   11  C   UNL     1     -10.847   5.488  71.761  1.00  0.00    -0.277 C  
BRANCH  11  12
HETATM   12  C   UNL     1      -9.804   5.481  72.870  1.00  0.00    -0.182 C  
BRANCH  12  13
HETATM   13  C   UNL     1      -9.877   6.768  73.677  1.00  0.00    -0.270 C  
BRANCH  13  14
HETATM   14  C   UNL     1      -8.783   7.735  73.245  1.00  0.00    -0.262 C  
BRANCH  14  15
HETATM   15  C   UNL     1      -7.669   6.992  72.523  1.00  0.00    -0.093 C  
BRANCH  15  16
HETATM   16  C   UNL     1      -7.303   7.703  71.227  1.00  0.00    -0.074 C  
BRANCH  16  17
HETATM   17  C   UNL     1      -8.184   8.929  71.018  1.00  0.00    -0.217 C  
BRANCH  17  18
HETATM   18  C   UNL     1      -7.773   9.677  69.755  1.00  0.00    -0.133 C  
BRANCH  18  19
HETATM   19  C   UNL     1      -8.998  10.079  68.941  1.00  0.00    -0.152 C  
BRANCH  19  20
HETATM   20  C   UNL     1      -8.751   9.862  67.452  1.00  0.00    -0.129 C  
BRANCH  20  21
HETATM   21  C   UNL     1     -10.012   9.363  66.756  1.00  0.00    -0.305 C  
BRANCH  21  22
HETATM   22  C   UNL     1     -10.335   7.930  67.157  1.00  0.00    -0.328 C  
HETATM   23  O   UNL     1      -9.738   7.026  66.237  1.00  0.00    -0.375 OA 
HETATM   24  H   UNL     1      -9.940   6.132  66.487  1.00  0.00     0.000 HD 
ENDBRANCH  21  22
ENDBRANCH  20  21
ENDBRANCH  19  20
ENDBRANCH  18  19
ENDBRANCH  17  18
ENDBRANCH  16  17
ENDBRANCH  15  16
ENDBRANCH  14  15
ENDBRANCH  13  14
ENDBRANCH  12  13
ENDBRANCH  11  12
ENDBRANCH  10  11
ENDBRANCH   9  10
ENDBRANCH   8   9
ENDBRANCH   7   8
ENDBRANCH   6   7
ENDBRANCH   5   6
ENDBRANCH   4   5
ENDBRANCH   3   4
ENDBRANCH   2   3
TORSDOF 20
ENDMDL
MODEL      260
REMARK 921   NORMALIZED FREE ENERGY PREDICTED BY IDOCK:   -3.15 KCAL/MOL
REMARK 922        TOTAL FREE ENERGY PREDICTED BY IDOCK:   -9.71 KCAL/MOL
REMARK 923 INTER-LIGAND FREE ENERGY PREDICTED BY IDOCK:   -7.46 KCAL/MOL
REMARK 924 INTRA-LIGAND FREE ENERGY PREDICTED BY IDOCK:   -2.25 KCAL/MOL
REMARK 927      BINDING AFFINITY PREDICTED BY RF-SCORE:    0.00 PKD
ROOT
HETATM    1  C   UNL     1     -12.206  13.745  70.064  1.00  0.00    -0.407 C  
HETATM    2  C   UNL     1     -11.489  14.401  68.897  1.00  0.00    -0.319 C  
ENDROOT
BRANCH   2   3
HETATM    3  C   UNL     1     -10.662  13.383  68.117  1.00  0.00    -0.267 C  
BRANCH   3   4
HETATM    4  C   UNL     1     -11.516  12.660  67.079  1.00  0.00    -0.406 C  
BRANCH   4   5
HETATM    5  C   UNL     1     -12.328  13.658  66.259  1.00  0.00    -0.464 C  
BRANCH   5   6
HETATM    6  C   UNL     1     -11.643  13.952  64.928  1.00  0.00    -0.365 C  
BRANCH   6   7
HETATM    7  C   UNL     1     -12.415  13.323  63.775  1.00  0.00    -0.339 C  
BRANCH   7   8
HETATM    8  C   UNL     1     -11.949  11.892  63.535  1.00  0.00    -0.567 C  
BRANCH   8   9
HETATM    9  C   UNL     1     -10.429  11.825  63.483  1.00  0.00    -0.500 C  
BRANCH   9  10
HETATM   10  C   UNL     1      -9.913  10.696  64.364  1.00  0.00    -0.415 C  
BRANCH  10  11
HETATM   11  C   UNL     1      -8.486  10.330  63.982  1.00  0.00    -0.177 C  
BRANCH  11  12
HETATM   12  C   UNL     1      -7.690   9.927  65.215  1.00  0.00    -0.129 C  
BRANCH  12  13
HETATM   13  C   UNL     1      -8.386  10.409  66.478  1.00  0.00    -0.130 C  
BRANCH  13  14
HETATM   14  C   UNL     1      -8.344   9.333  67.556  1.00  0.00    -0.119 C  
BRANCH  14  15
HETATM   15  C   UNL     1      -8.166   7.958  66.931  1.00  0.00    -0.116 C  
BRANCH  15  16
HETATM   16  C   UNL     1      -9.507   7.400  66.473  1.00  0.00    -0.229 C  
BRANCH  16  17
HETATM   17  C   UNL     1     -10.552   7.538  67.574  1.00  0.00    -0.331 C  
BRANCH  17  18
HETATM   18  C   UNL     1     -10.898   6.174  68.159  1.00  0.00    -0.389 C  
BRANCH  18  19
HETATM   19  C   UNL     1     -11.147   6.275  69.660  1.00  0.00    -0.479 C  
BRANCH  19  20
HETATM   20  C   UNL     1     -10.537   7.555  70.223  1.00  0.00    -0.235 C  
BRANCH  20  21
HETATM   21  C   UNL     1     -11.593   8.401  70.925  1.00  0.00    -0.288 C  
BRANCH  21  22
HETATM   22  C   UNL     1     -11.493   8.266  72.439  1.00  0.00    -0.394 C  
HETATM   23  O   UNL     1     -12.173   7.092  72.863  1.00  0.00    -0.397 OA 
HETATM   24  H   UNL     1     -12.110   7.008  73.808  1.00  0.00     0.000 HD 
ENDBRANCH  21  22
ENDBRANCH  20  21
ENDBRANCH  19  20
ENDBRANCH  18  19
ENDBRANCH  17  18
ENDBRANCH  16  17
ENDBRANCH  15  16
ENDBRANCH  14  15
ENDBRANCH  13  14
ENDBRANCH  12  13
ENDBRANCH  11  12
ENDBRANCH  10  11
ENDBRANCH   9  10
ENDBRANCH   8   9
ENDBRANCH   7   8
ENDBRANCH   6   7
ENDBRANCH   5   6
ENDBRANCH   4   5
ENDBRANCH   3   4
ENDBRANCH   2   3
TORSDOF 20
ENDMDL
MODEL      261
REMARK 921   NORMALIZED FREE ENERGY PREDICTED BY IDOCK:   -3.15 KCAL/MOL
REMARK 922        TOTAL FREE ENERGY PREDICTED BY IDOCK:   -9.69 KCAL/MOL
REMARK 923 INTER-LIGAND FREE ENERGY PREDICTED BY IDOCK:   -6.61 KCAL/MOL
REMARK 924 INTRA-LIGAND FREE ENERGY PREDICTED BY IDOCK:   -3.08 KCAL/MOL
REMARK 927      BINDING AFFINITY PREDICTED BY RF-SCORE:    0.00 PKD
ROOT
HETATM    1  C   UNL     1     -10.395  12.059  66.770  1.00  0.00    -0.233 C  
HETATM    2  C   UNL     1     -11.185  11.445  67.913  1.00  0.00    -0.352 C  
ENDROOT
BRANCH   2   3
HETATM    3  C   UNL     1     -11.893  12.520  68.732  1.00  0.00    -0.347 C  
BRANCH   3   4
HETATM    4  C   UNL     1     -11.911  12.159  70.215  1.00  0.00    -0.389 C  
BRANCH   4   5
HETATM    5  C   UNL     1     -12.203  10.674  70.406  1.00  0.00    -0.432 C  
BRANCH   5   6
HETATM    6  C   UNL     1     -12.850  10.418  71.763  1.00  0.00    -0.561 C  
BRANCH   6   7
HETATM    7  C   UNL     1     -13.417   9.006  71.831  1.00  0.00    -0.481 C  
BRANCH   7   8
HETATM    8  C   UNL     1     -12.313   7.997  72.118  1.00  0.00    -0.358 C  
BRANCH   8   9
HETATM    9  C   UNL     1     -12.483   6.754  71.255  1.00  0.00    -0.365 C  
BRANCH   9  10
HETATM   10  C   UNL     1     -11.127   6.178  70.873  1.00  0.00    -0.371 C  
BRANCH  10  11
HETATM   11  C   UNL     1     -10.990   6.095  69.359  1.00  0.00    -0.454 C  
BRANCH  11  12
HETATM   12  C   UNL     1     -10.677   7.466  68.776  1.00  0.00    -0.145 C  
BRANCH  12  13
HETATM   13  C   UNL     1      -9.203   7.568  68.417  1.00  0.00    -0.139 C  
BRANCH  13  14
HETATM   14  C   UNL     1      -8.755   9.023  68.401  1.00  0.00    -0.130 C  
BRANCH  14  15
HETATM   15  C   UNL     1      -8.634   9.560  69.820  1.00  0.00    -0.201 C  
BRANCH  15  16
HETATM   16  C   UNL     1      -7.268   9.225  70.405  1.00  0.00    -0.097 C  
BRANCH  16  17
HETATM   17  C   UNL     1      -7.412   8.332  71.632  1.00  0.00    -0.105 C  
BRANCH  17  18
HETATM   18  C   UNL     1      -8.864   8.284  72.094  1.00  0.00    -0.265 C  
BRANCH  18  19
HETATM   19  C   UNL     1      -8.946   8.109  73.606  1.00  0.00    -0.275 C  
BRANCH  19  20
HETATM   20  C   UNL     1      -8.765   6.644  73.990  1.00  0.00    -0.167 C  
BRANCH  20  21
HETATM   21  C   UNL     1     -10.096   6.012  74.379  1.00  0.00    -0.316 C  
BRANCH  21  22
HETATM   22  C   UNL     1     -10.174   4.561  73.922  1.00  0.00    -0.197 C  
HETATM   23  O   UNL     1     -11.530   4.197  73.705  1.00  0.00    -0.232 OA 
HETATM   24  H   UNL     1     -11.579   3.292  73.420  1.00  0.00     0.000 HD 
ENDBRANCH  21  22
ENDBRANCH  20  21
ENDBRANCH  19  20
ENDBRANCH  18  19
ENDBRANCH  17  18
ENDBRANCH  16  17
ENDBRANCH  15  16
ENDBRANCH  14  15
ENDBRANCH  13  14
ENDBRANCH  12  13
ENDBRANCH  11  12
ENDBRANCH  10  11
ENDBRANCH   9  10
ENDBRANCH   8   9
ENDBRANCH   7   8
ENDBRANCH   6   7
ENDBRANCH   5   6
ENDBRANCH   4   5
ENDBRANCH   3   4
ENDBRANCH   2   3
TORSDOF 20
ENDMDL
MODEL      262
REMARK 921   NORMALIZED FREE ENERGY PREDICTED BY IDOCK:   -3.14 KCAL/MOL
REMARK 922        TOTAL FREE ENERGY PREDICTED BY IDOCK:   -9.68 KCAL/MOL
REMARK 923 INTER-LIGAND FREE ENERGY PREDICTED BY IDOCK:   -7.50 KCAL/MOL
REMARK 924 INTRA-LIGAND FREE ENERGY PREDICTED BY IDOCK:   -2.18 KCAL/MOL
REMARK 927      BINDING AFFINITY PREDICTED BY RF-SCORE:    0.00 PKD
ROOT
HETATM    1  C   UNL     1      -9.383   9.023  67.743  1.00  0.00    -0.156 C  
HETATM    2  C   UNL     1     -10.744   9.608  67.406  1.00  0.00    -0.308 C  
ENDROOT
BRANCH   2   3
HETATM    3  C   UNL     1     -11.255  10.497  68.536  1.00  0.00    -0.332 C  
BRANCH   3   4
HETATM    4  C   UNL     1     -10.496  10.230  69.833  1.00  0.00    -0.304 C  
BRANCH   4   5
HETATM    5  C   UNL     1     -11.464  10.055  70.999  1.00  0.00    -0.463 C  
BRANCH   5   6
HETATM    6  C   UNL     1     -12.756  10.826  70.752  1.00  0.00    -0.451 C  
BRANCH   6   7
HETATM    7  C   UNL     1     -13.363  11.294  72.068  1.00  0.00    -0.386 C  
BRANCH   7   8
HETATM    8  C   UNL     1     -13.064  12.769  72.303  1.00  0.00    -0.400 C  
BRANCH   8   9
HETATM    9  C   UNL     1     -13.459  13.596  71.086  1.00  0.00    -0.118 C  
BRANCH   9  10
HETATM   10  C   UNL     1     -12.239  14.280  70.486  1.00  0.00    -0.427 C  
BRANCH  10  11
HETATM   11  C   UNL     1     -12.142  13.988  68.995  1.00  0.00    -0.358 C  
BRANCH  11  12
HETATM   12  C   UNL     1     -10.754  14.329  68.474  1.00  0.00    -0.262 C  
BRANCH  12  13
HETATM   13  C   UNL     1     -10.728  15.742  67.912  1.00  0.00    -0.302 C  
BRANCH  13  14
HETATM   14  C   UNL     1      -9.882  16.653  68.791  1.00  0.00    -0.252 C  
BRANCH  14  15
HETATM   15  C   UNL     1      -8.433  16.188  68.803  1.00  0.00    -0.236 C  
BRANCH  15  16
HETATM   16  C   UNL     1      -7.488  17.381  68.872  1.00  0.00    -0.235 C  
BRANCH  16  17
HETATM   17  C   UNL     1      -6.823  17.618  67.521  1.00  0.00    -0.185 C  
BRANCH  17  18
HETATM   18  C   UNL     1      -7.528  18.737  66.764  1.00  0.00    -0.237 C  
BRANCH  18  19
HETATM   19  C   UNL     1      -7.782  19.932  67.675  1.00  0.00    -0.326 C  
BRANCH  19  20
HETATM   20  C   UNL     1      -9.207  20.448  67.504  1.00  0.00    -0.475 C  
BRANCH  20  21
HETATM   21  C   UNL     1      -9.702  20.225  66.080  1.00  0.00    -0.427 C  
BRANCH  21  22
HETATM   22  C   UNL     1     -10.890  19.273  66.050  1.00  0.00    -0.272 C  
HETATM   23  O   UNL     1     -10.574  18.134  65.259  1.00  0.00    -0.591 OA 
HETATM   24  H   UNL     1     -11.315  17.540  65.241  1.00  0.00     0.000 HD 
ENDBRANCH  21  22
ENDBRANCH  20  21
ENDBRANCH  19  20
ENDBRANCH  18  19
ENDBRANCH  17  18
ENDBRANCH  16  17
ENDBRANCH  15  16
ENDBRANCH  14  15
ENDBRANCH  13  14
ENDBRANCH  12  13
ENDBRANCH  11  12
ENDBRANCH  10  11
ENDBRANCH   9  10
ENDBRANCH   8   9
ENDBRANCH   7   8
ENDBRANCH   6   7
ENDBRANCH   5   6
ENDBRANCH   4   5
ENDBRANCH   3   4
ENDBRANCH   2   3
TORSDOF 20
ENDMDL
MODEL      263
REMARK 921   NORMALIZED FREE ENERGY PREDICTED BY IDOCK:   -3.14 KCAL/MOL
REMARK 922        TOTAL FREE ENERGY PREDICTED BY IDOCK:   -9.68 KCAL/MOL
REMARK 923 INTER-LIGAND FREE ENERGY PREDICTED BY IDOCK:   -7.99 KCAL/MOL
REMARK 924 INTRA-LIGAND FREE ENERGY PREDICTED BY IDOCK:   -1.69 KCAL/MOL
REMARK 927      BINDING AFFINITY PREDICTED BY RF-SCORE:    0.00 PKD
ROOT
HETATM    1  C   UNL     1      -8.632   3.102  65.906  1.00  0.00    -0.118 C  
HETATM    2  C   UNL     1      -8.892   4.538  66.326  1.00  0.00    -0.113 C  
ENDROOT
BRANCH   2   3
HETATM    3  C   UNL     1      -9.610   4.596  67.671  1.00  0.00    -0.200 C  
BRANCH   3   4
HETATM    4  C   UNL     1      -9.546   3.250  68.387  1.00  0.00    -0.133 C  
BRANCH   4   5
HETATM    5  C   UNL     1      -9.345   3.445  69.887  1.00  0.00    -0.238 C  
BRANCH   5   6
HETATM    6  C   UNL     1      -9.564   4.903  70.278  1.00  0.00    -0.265 C  
BRANCH   6   7
HETATM    7  C   UNL     1     -10.132   5.002  71.689  1.00  0.00    -0.260 C  
BRANCH   7   8
HETATM    8  C   UNL     1     -10.711   6.389  71.938  1.00  0.00    -0.262 C  
BRANCH   8   9
HETATM    9  C   UNL     1     -11.518   6.857  70.734  1.00  0.00    -0.381 C  
BRANCH   9  10
HETATM   10  C   UNL     1     -11.013   8.207  70.244  1.00  0.00    -0.240 C  
BRANCH  10  11
HETATM   11  C   UNL     1     -11.007   9.220  71.380  1.00  0.00    -0.429 C  
BRANCH  11  12
HETATM   12  C   UNL     1     -12.430   9.539  71.817  1.00  0.00    -0.484 C  
BRANCH  12  13
HETATM   13  C   UNL     1     -12.949  10.766  71.084  1.00  0.00    -0.467 C  
BRANCH  13  14
HETATM   14  C   UNL     1     -11.792  11.596  70.543  1.00  0.00    -0.328 C  
BRANCH  14  15
HETATM   15  C   UNL     1     -12.122  12.133  69.158  1.00  0.00    -0.224 C  
BRANCH  15  16
HETATM   16  C   UNL     1     -11.546  11.225  68.080  1.00  0.00    -0.343 C  
BRANCH  16  17
HETATM   17  C   UNL     1     -10.063  11.510  67.873  1.00  0.00    -0.202 C  
BRANCH  17  18
HETATM   18  C   UNL     1      -9.757  11.719  66.395  1.00  0.00    -0.234 C  
BRANCH  18  19
HETATM   19  C   UNL     1     -10.131  13.131  65.958  1.00  0.00    -0.286 C  
BRANCH  19  20
HETATM   20  C   UNL     1     -10.911  13.102  64.648  1.00  0.00    -0.383 C  
BRANCH  20  21
HETATM   21  C   UNL     1     -11.872  14.282  64.557  1.00  0.00    -0.456 C  
BRANCH  21  22
HETATM   22  C   UNL     1     -11.139  15.606  64.730  1.00  0.00    -0.412 C  
HETATM   23  O   UNL     1     -11.688  16.578  63.849  1.00  0.00    -1.527 OA 
HETATM   24  H   UNL     1     -11.231  17.404  63.956  1.00  0.00     0.000 HD 
ENDBRANCH  21  22
ENDBRANCH  20  21
ENDBRANCH  19  20
ENDBRANCH  18  19
ENDBRANCH  17  18
ENDBRANCH  16  17
ENDBRANCH  15  16
ENDBRANCH  14  15
ENDBRANCH  13  14
ENDBRANCH  12  13
ENDBRANCH  11  12
ENDBRANCH  10  11
ENDBRANCH   9  10
ENDBRANCH   8   9
ENDBRANCH   7   8
ENDBRANCH   6   7
ENDBRANCH   5   6
ENDBRANCH   4   5
ENDBRANCH   3   4
ENDBRANCH   2   3
TORSDOF 20
ENDMDL
MODEL      264
REMARK 921   NORMALIZED FREE ENERGY PREDICTED BY IDOCK:   -3.13 KCAL/MOL
REMARK 922        TOTAL FREE ENERGY PREDICTED BY IDOCK:   -9.66 KCAL/MOL
REMARK 923 INTER-LIGAND FREE ENERGY PREDICTED BY IDOCK:   -6.59 KCAL/MOL
REMARK 924 INTRA-LIGAND FREE ENERGY PREDICTED BY IDOCK:   -3.07 KCAL/MOL
REMARK 927      BINDING AFFINITY PREDICTED BY RF-SCORE:    0.00 PKD
ROOT
HETATM    1  C   UNL     1     -10.907  14.881  65.044  1.00  0.00    -0.439 C  
HETATM    2  C   UNL     1     -11.624  13.661  64.494  1.00  0.00    -0.415 C  
ENDROOT
BRANCH   2   3
HETATM    3  C   UNL     1     -12.022  12.705  65.614  1.00  0.00    -0.507 C  
BRANCH   3   4
HETATM    4  C   UNL     1     -10.801  11.994  66.191  1.00  0.00    -0.325 C  
BRANCH   4   5
HETATM    5  C   UNL     1     -10.877  11.941  67.714  1.00  0.00    -0.254 C  
BRANCH   5   6
HETATM    6  C   UNL     1     -11.982  12.853  68.235  1.00  0.00    -0.297 C  
BRANCH   6   7
HETATM    7  C   UNL     1     -11.443  13.793  69.306  1.00  0.00    -0.344 C  
BRANCH   7   8
HETATM    8  C   UNL     1     -11.462  15.234  68.813  1.00  0.00    -0.345 C  
BRANCH   8   9
HETATM    9  C   UNL     1     -10.577  16.112  69.688  1.00  0.00    -0.311 C  
BRANCH   9  10
HETATM   10  C   UNL     1     -10.418  17.494  69.071  1.00  0.00    -0.250 C  
BRANCH  10  11
HETATM   11  C   UNL     1     -10.609  17.431  67.562  1.00  0.00    -0.330 C  
BRANCH  11  12
HETATM   12  C   UNL     1     -10.376  18.799  66.937  1.00  0.00    -0.456 C  
BRANCH  12  13
HETATM   13  C   UNL     1      -9.851  19.777  67.976  1.00  0.00    -0.533 C  
BRANCH  13  14
HETATM   14  C   UNL     1      -8.408  20.157  67.674  1.00  0.00    -0.348 C  
BRANCH  14  15
HETATM   15  C   UNL     1      -7.473  19.580  68.727  1.00  0.00    -0.387 C  
BRANCH  15  16
HETATM   16  C   UNL     1      -6.221  19.006  68.075  1.00  0.00    -0.228 C  
BRANCH  16  17
HETATM   17  C   UNL     1      -5.722  17.791  68.846  1.00  0.00    -0.180 C  
BRANCH  17  18
HETATM   18  C   UNL     1      -6.884  17.058  69.506  1.00  0.00    -0.111 C  
BRANCH  18  19
HETATM   19  C   UNL     1      -6.639  15.553  69.520  1.00  0.00    -0.172 C  
BRANCH  19  20
HETATM   20  C   UNL     1      -7.306  14.887  68.321  1.00  0.00    -0.109 C  
BRANCH  20  21
HETATM   21  C   UNL     1      -7.722  13.458  68.652  1.00  0.00    -0.088 C  
BRANCH  21  22
HETATM   22  C   UNL     1      -6.616  12.468  68.308  1.00  0.00    -0.073 C  
HETATM   23  O   UNL     1      -6.627  11.393  69.238  1.00  0.00    -0.085 OA 
HETATM   24  H   UNL     1      -5.938  10.775  69.024  1.00  0.00     0.000 HD 
ENDBRANCH  21  22
ENDBRANCH  20  21
ENDBRANCH  19  20
ENDBRANCH  18  19
ENDBRANCH  17  18
ENDBRANCH  16  17
ENDBRANCH  15  16
ENDBRANCH  14  15
ENDBRANCH  13  14
ENDBRANCH  12  13
ENDBRANCH  11  12
ENDBRANCH  10  11
ENDBRANCH   9  10
ENDBRANCH   8   9
ENDBRANCH   7   8
ENDBRANCH   6   7
ENDBRANCH   5   6
ENDBRANCH   4   5
ENDBRANCH   3   4
ENDBRANCH   2   3
TORSDOF 20
ENDMDL
MODEL      265
REMARK 921   NORMALIZED FREE ENERGY PREDICTED BY IDOCK:   -3.13 KCAL/MOL
REMARK 922        TOTAL FREE ENERGY PREDICTED BY IDOCK:   -9.65 KCAL/MOL
REMARK 923 INTER-LIGAND FREE ENERGY PREDICTED BY IDOCK:   -6.83 KCAL/MOL
REMARK 924 INTRA-LIGAND FREE ENERGY PREDICTED BY IDOCK:   -2.82 KCAL/MOL
REMARK 927      BINDING AFFINITY PREDICTED BY RF-SCORE:    0.00 PKD
ROOT
HETATM    1  C   UNL     1      -9.329   8.022  66.692  1.00  0.00    -0.249 C  
HETATM    2  C   UNL     1     -10.699   7.407  66.925  1.00  0.00    -0.324 C  
ENDROOT
BRANCH   2   3
HETATM    3  C   UNL     1     -10.660   5.893  66.744  1.00  0.00    -0.368 C  
BRANCH   3   4
HETATM    4  C   UNL     1     -10.203   5.198  68.024  1.00  0.00    -0.178 C  
BRANCH   4   5
HETATM    5  C   UNL     1     -10.764   5.906  69.253  1.00  0.00    -0.401 C  
BRANCH   5   6
HETATM    6  C   UNL     1     -10.424   5.137  70.525  1.00  0.00    -0.278 C  
BRANCH   6   7
HETATM    7  C   UNL     1     -10.546   6.038  71.748  1.00  0.00    -0.277 C  
BRANCH   7   8
HETATM    8  C   UNL     1     -11.799   6.898  71.657  1.00  0.00    -0.363 C  
BRANCH   8   9
HETATM    9  C   UNL     1     -11.660   8.143  72.524  1.00  0.00    -0.468 C  
BRANCH   9  10
HETATM   10  C   UNL     1     -10.953   9.252  71.758  1.00  0.00    -0.383 C  
BRANCH  10  11
HETATM   11  C   UNL     1     -11.520   9.373  70.350  1.00  0.00    -0.272 C  
BRANCH  11  12
HETATM   12  C   UNL     1     -10.630  10.259  69.491  1.00  0.00    -0.270 C  
BRANCH  12  13
HETATM   13  C   UNL     1     -11.469  11.253  68.703  1.00  0.00    -0.362 C  
BRANCH  13  14
HETATM   14  C   UNL     1     -11.137  11.176  67.218  1.00  0.00    -0.366 C  
BRANCH  14  15
HETATM   15  C   UNL     1     -11.728  12.365  66.476  1.00  0.00    -0.443 C  
BRANCH  15  16
HETATM   16  C   UNL     1     -11.669  13.618  67.340  1.00  0.00    -0.416 C  
BRANCH  16  17
HETATM   17  C   UNL     1     -10.538  14.532  66.885  1.00  0.00    -0.279 C  
BRANCH  17  18
HETATM   18  C   UNL     1      -9.729  15.023  68.080  1.00  0.00    -0.213 C  
BRANCH  18  19
HETATM   19  C   UNL     1      -8.676  13.995  68.480  1.00  0.00    -0.156 C  
BRANCH  19  20
HETATM   20  C   UNL     1      -8.085  13.320  67.247  1.00  0.00    -0.150 C  
BRANCH  20  21
HETATM   21  C   UNL     1      -7.263  12.096  67.635  1.00  0.00    -0.123 C  
BRANCH  21  22
HETATM   22  C   UNL     1      -7.188  11.095  66.490  1.00  0.00    -0.124 C  
HETATM   23  O   UNL     1      -8.205  11.376  65.538  1.00  0.00    -0.368 OA 
HETATM   24  H   UNL     1      -8.158  10.751  64.823  1.00  0.00     0.000 HD 
ENDBRANCH  21  22
ENDBRANCH  20  21
ENDBRANCH  19  20
ENDBRANCH  18  19
ENDBRANCH  17  18
ENDBRANCH  16  17
ENDBRANCH  15  16
ENDBRANCH  14  15
ENDBRANCH  13  14
ENDBRANCH  12  13
ENDBRANCH  11  12
ENDBRANCH  10  11
ENDBRANCH   9  10
ENDBRANCH   8   9
ENDBRANCH   7   8
ENDBRANCH   6   7
ENDBRANCH   5   6
ENDBRANCH   4   5
ENDBRANCH   3   4
ENDBRANCH   2   3
TORSDOF 20
ENDMDL
MODEL      266
REMARK 921   NORMALIZED FREE ENERGY PREDICTED BY IDOCK:   -3.13 KCAL/MOL
REMARK 922        TOTAL FREE ENERGY PREDICTED BY IDOCK:   -9.65 KCAL/MOL
REMARK 923 INTER-LIGAND FREE ENERGY PREDICTED BY IDOCK:   -7.02 KCAL/MOL
REMARK 924 INTRA-LIGAND FREE ENERGY PREDICTED BY IDOCK:   -2.63 KCAL/MOL
REMARK 927      BINDING AFFINITY PREDICTED BY RF-SCORE:    0.00 PKD
ROOT
HETATM    1  C   UNL     1     -11.955  15.343  69.967  1.00  0.00    -0.383 C  
HETATM    2  C   UNL     1     -11.780  15.228  68.462  1.00  0.00    -0.352 C  
ENDROOT
BRANCH   2   3
HETATM    3  C   UNL     1     -10.884  14.047  68.101  1.00  0.00    -0.260 C  
BRANCH   3   4
HETATM    4  C   UNL     1     -11.531  13.173  67.030  1.00  0.00    -0.379 C  
BRANCH   4   5
HETATM    5  C   UNL     1     -12.263  14.031  66.003  1.00  0.00    -0.484 C  
BRANCH   5   6
HETATM    6  C   UNL     1     -11.540  14.004  64.660  1.00  0.00    -0.400 C  
BRANCH   6   7
HETATM    7  C   UNL     1     -12.333  13.199  63.638  1.00  0.00    -0.482 C  
BRANCH   7   8
HETATM    8  C   UNL     1     -11.867  11.749  63.618  1.00  0.00    -0.498 C  
BRANCH   8   9
HETATM    9  C   UNL     1     -10.357  11.669  63.796  1.00  0.00    -0.445 C  
BRANCH   9  10
HETATM   10  C   UNL     1      -9.985  10.495  64.691  1.00  0.00    -0.415 C  
BRANCH  10  11
HETATM   11  C   UNL     1      -8.919   9.634  64.028  1.00  0.00    -0.261 C  
BRANCH  11  12
HETATM   12  C   UNL     1      -8.010   9.009  65.077  1.00  0.00    -0.123 C  
BRANCH  12  13
HETATM   13  C   UNL     1      -6.623   9.628  65.016  1.00  0.00    -0.091 C  
BRANCH  13  14
HETATM   14  C   UNL     1      -6.441  10.648  66.132  1.00  0.00    -0.131 C  
BRANCH  14  15
HETATM   15  C   UNL     1      -7.259  10.254  67.353  1.00  0.00    -0.092 C  
BRANCH  15  16
HETATM   16  C   UNL     1      -7.957  11.471  67.946  1.00  0.00    -0.126 C  
BRANCH  16  17
HETATM   17  C   UNL     1      -9.128  11.045  68.824  1.00  0.00    -0.161 C  
BRANCH  17  18
HETATM   18  C   UNL     1      -9.786   9.788  68.269  1.00  0.00    -0.167 C  
BRANCH  18  19
HETATM   19  C   UNL     1     -10.843   9.258  69.233  1.00  0.00    -0.170 C  
BRANCH  19  20
HETATM   20  C   UNL     1     -10.498   9.632  70.671  1.00  0.00    -0.379 C  
BRANCH  20  21
HETATM   21  C   UNL     1     -11.467   8.983  71.652  1.00  0.00    -0.431 C  
BRANCH  21  22
HETATM   22  C   UNL     1     -12.895   9.456  71.412  1.00  0.00    -0.345 C  
HETATM   23  O   UNL     1     -13.008  10.833  71.746  1.00  0.00    -0.446 OA 
HETATM   24  H   UNL     1     -13.899  11.128  71.596  1.00  0.00     0.000 HD 
ENDBRANCH  21  22
ENDBRANCH  20  21
ENDBRANCH  19  20
ENDBRANCH  18  19
ENDBRANCH  17  18
ENDBRANCH  16  17
ENDBRANCH  15  16
ENDBRANCH  14  15
ENDBRANCH  13  14
ENDBRANCH  12  13
ENDBRANCH  11  12
ENDBRANCH  10  11
ENDBRANCH   9  10
ENDBRANCH   8   9
ENDBRANCH   7   8
ENDBRANCH   6   7
ENDBRANCH   5   6
ENDBRANCH   4   5
ENDBRANCH   3   4
ENDBRANCH   2   3
TORSDOF 20
ENDMDL
MODEL      267
REMARK 921   NORMALIZED FREE ENERGY PREDICTED BY IDOCK:   -3.12 KCAL/MOL
REMARK 922        TOTAL FREE ENERGY PREDICTED BY IDOCK:   -9.65 KCAL/MOL
REMARK 923 INTER-LIGAND FREE ENERGY PREDICTED BY IDOCK:   -7.54 KCAL/MOL
REMARK 924 INTRA-LIGAND FREE ENERGY PREDICTED BY IDOCK:   -2.11 KCAL/MOL
REMARK 927      BINDING AFFINITY PREDICTED BY RF-SCORE:    0.00 PKD
ROOT
HETATM    1  C   UNL     1     -10.798   5.901  69.657  1.00  0.00    -0.444 C  
HETATM    2  C   UNL     1     -10.361   5.009  70.806  1.00  0.00    -0.265 C  
ENDROOT
BRANCH   2   3
HETATM    3  C   UNL     1      -9.684   5.821  71.906  1.00  0.00    -0.184 C  
BRANCH   3   4
HETATM    4  C   UNL     1      -8.833   6.942  71.318  1.00  0.00    -0.135 C  
BRANCH   4   5
HETATM    5  C   UNL     1      -9.199   8.284  71.945  1.00  0.00    -0.272 C  
BRANCH   5   6
HETATM    6  C   UNL     1     -10.501   8.178  72.733  1.00  0.00    -0.385 C  
BRANCH   6   7
HETATM    7  C   UNL     1     -11.639   8.861  71.986  1.00  0.00    -0.435 C  
BRANCH   7   8
HETATM    8  C   UNL     1     -11.093   9.791  70.910  1.00  0.00    -0.428 C  
BRANCH   8   9
HETATM    9  C   UNL     1     -12.128  10.843  70.535  1.00  0.00    -0.464 C  
BRANCH   9  10
HETATM   10  C   UNL     1     -11.957  11.267  69.083  1.00  0.00    -0.405 C  
BRANCH  10  11
HETATM   11  C   UNL     1     -11.096  12.519  68.989  1.00  0.00    -0.287 C  
BRANCH  11  12
HETATM   12  C   UNL     1     -11.952  13.767  69.148  1.00  0.00    -0.403 C  
BRANCH  12  13
HETATM   13  C   UNL     1     -11.568  14.811  68.110  1.00  0.00    -0.356 C  
BRANCH  13  14
HETATM   14  C   UNL     1     -11.317  14.155  66.758  1.00  0.00    -0.353 C  
BRANCH  14  15
HETATM   15  C   UNL     1     -12.623  13.985  65.998  1.00  0.00    -0.452 C  
BRANCH  15  16
HETATM   16  C   UNL     1     -12.528  12.817  65.024  1.00  0.00    -0.572 C  
BRANCH  16  17
HETATM   17  C   UNL     1     -11.290  11.975  65.313  1.00  0.00    -0.366 C  
BRANCH  17  18
HETATM   18  C   UNL     1     -10.843  11.230  64.062  1.00  0.00    -0.414 C  
BRANCH  18  19
HETATM   19  C   UNL     1      -9.344  10.953  64.102  1.00  0.00    -0.264 C  
BRANCH  19  20
HETATM   20  C   UNL     1      -8.924  10.458  65.482  1.00  0.00    -0.199 C  
BRANCH  20  21
HETATM   21  C   UNL     1      -9.271   8.985  65.663  1.00  0.00    -0.288 C  
BRANCH  21  22
HETATM   22  C   UNL     1      -8.093   8.206  66.233  1.00  0.00    -0.107 C  
HETATM   23  O   UNL     1      -6.991   8.274  65.338  1.00  0.00    -0.062 OA 
HETATM   24  H   UNL     1      -6.257   7.788  65.693  1.00  0.00     0.000 HD 
ENDBRANCH  21  22
ENDBRANCH  20  21
ENDBRANCH  19  20
ENDBRANCH  18  19
ENDBRANCH  17  18
ENDBRANCH  16  17
ENDBRANCH  15  16
ENDBRANCH  14  15
ENDBRANCH  13  14
ENDBRANCH  12  13
ENDBRANCH  11  12
ENDBRANCH  10  11
ENDBRANCH   9  10
ENDBRANCH   8   9
ENDBRANCH   7   8
ENDBRANCH   6   7
ENDBRANCH   5   6
ENDBRANCH   4   5
ENDBRANCH   3   4
ENDBRANCH   2   3
TORSDOF 20
ENDMDL
MODEL      268
REMARK 921   NORMALIZED FREE ENERGY PREDICTED BY IDOCK:   -3.12 KCAL/MOL
REMARK 922        TOTAL FREE ENERGY PREDICTED BY IDOCK:   -9.64 KCAL/MOL
REMARK 923 INTER-LIGAND FREE ENERGY PREDICTED BY IDOCK:   -7.11 KCAL/MOL
REMARK 924 INTRA-LIGAND FREE ENERGY PREDICTED BY IDOCK:   -2.53 KCAL/MOL
REMARK 927      BINDING AFFINITY PREDICTED BY RF-SCORE:    0.00 PKD
ROOT
HETATM    1  C   UNL     1     -11.309   6.236  69.525  1.00  0.00    -0.475 C  
HETATM    2  C   UNL     1     -11.393   6.504  71.018  1.00  0.00    -0.378 C  
ENDROOT
BRANCH   2   3
HETATM    3  C   UNL     1     -12.580   7.404  71.349  1.00  0.00    -0.405 C  
BRANCH   3   4
HETATM    4  C   UNL     1     -12.147   8.597  72.196  1.00  0.00    -0.451 C  
BRANCH   4   5
HETATM    5  C   UNL     1     -12.547   9.908  71.526  1.00  0.00    -0.513 C  
BRANCH   5   6
HETATM    6  C   UNL     1     -11.435  10.412  70.612  1.00  0.00    -0.438 C  
BRANCH   6   7
HETATM    7  C   UNL     1     -12.014  10.983  69.324  1.00  0.00    -0.410 C  
BRANCH   7   8
HETATM    8  C   UNL     1     -11.086  12.041  68.741  1.00  0.00    -0.298 C  
BRANCH   8   9
HETATM    9  C   UNL     1     -11.803  12.851  67.669  1.00  0.00    -0.400 C  
BRANCH   9  10
HETATM   10  C   UNL     1     -11.635  14.342  67.925  1.00  0.00    -0.374 C  
BRANCH  10  11
HETATM   11  C   UNL     1     -11.564  14.623  69.420  1.00  0.00    -0.342 C  
BRANCH  11  12
HETATM   12  C   UNL     1     -11.200  16.079  69.672  1.00  0.00    -0.336 C  
BRANCH  12  13
HETATM   13  C   UNL     1     -11.044  16.825  68.356  1.00  0.00    -0.266 C  
BRANCH  13  14
HETATM   14  C   UNL     1     -10.175  18.062  68.541  1.00  0.00    -0.392 C  
BRANCH  14  15
HETATM   15  C   UNL     1      -8.965  18.007  67.620  1.00  0.00    -0.251 C  
BRANCH  15  16
HETATM   16  C   UNL     1      -7.698  17.727  68.417  1.00  0.00    -0.278 C  
BRANCH  16  17
HETATM   17  C   UNL     1      -7.339  16.247  68.354  1.00  0.00    -0.158 C  
BRANCH  17  18
HETATM   18  C   UNL     1      -7.858  15.623  67.064  1.00  0.00    -0.266 C  
BRANCH  18  19
HETATM   19  C   UNL     1      -8.221  14.157  67.279  1.00  0.00    -0.200 C  
BRANCH  19  20
HETATM   20  C   UNL     1      -7.382  13.552  68.399  1.00  0.00    -0.115 C  
BRANCH  20  21
HETATM   21  C   UNL     1      -7.558  12.039  68.457  1.00  0.00    -0.126 C  
BRANCH  21  22
HETATM   22  C   UNL     1      -7.691  11.444  67.061  1.00  0.00    -0.154 C  
HETATM   23  O   UNL     1      -6.979  10.215  66.992  1.00  0.00    -0.085 OA 
HETATM   24  H   UNL     1      -7.063   9.844  66.122  1.00  0.00     0.000 HD 
ENDBRANCH  21  22
ENDBRANCH  20  21
ENDBRANCH  19  20
ENDBRANCH  18  19
ENDBRANCH  17  18
ENDBRANCH  16  17
ENDBRANCH  15  16
ENDBRANCH  14  15
ENDBRANCH  13  14
ENDBRANCH  12  13
ENDBRANCH  11  12
ENDBRANCH  10  11
ENDBRANCH   9  10
ENDBRANCH   8   9
ENDBRANCH   7   8
ENDBRANCH   6   7
ENDBRANCH   5   6
ENDBRANCH   4   5
ENDBRANCH   3   4
ENDBRANCH   2   3
TORSDOF 20
ENDMDL
MODEL      269
REMARK 921   NORMALIZED FREE ENERGY PREDICTED BY IDOCK:   -3.12 KCAL/MOL
REMARK 922        TOTAL FREE ENERGY PREDICTED BY IDOCK:   -9.64 KCAL/MOL
REMARK 923 INTER-LIGAND FREE ENERGY PREDICTED BY IDOCK:   -7.77 KCAL/MOL
REMARK 924 INTRA-LIGAND FREE ENERGY PREDICTED BY IDOCK:   -1.86 KCAL/MOL
REMARK 927      BINDING AFFINITY PREDICTED BY RF-SCORE:    0.00 PKD
ROOT
HETATM    1  C   UNL     1     -10.875   9.214  70.116  1.00  0.00    -0.269 C  
HETATM    2  C   UNL     1      -9.501   9.682  70.564  1.00  0.00    -0.243 C  
ENDROOT
BRANCH   2   3
HETATM    3  C   UNL     1      -8.614  10.008  69.366  1.00  0.00    -0.182 C  
BRANCH   3   4
HETATM    4  C   UNL     1      -9.176  11.180  68.568  1.00  0.00    -0.183 C  
BRANCH   4   5
HETATM    5  C   UNL     1      -8.673  11.145  67.128  1.00  0.00    -0.141 C  
BRANCH   5   6
HETATM    6  C   UNL     1      -8.691   9.721  66.582  1.00  0.00    -0.142 C  
BRANCH   6   7
HETATM    7  C   UNL     1      -9.542   9.639  65.321  1.00  0.00    -0.347 C  
BRANCH   7   8
HETATM    8  C   UNL     1      -8.681   9.826  64.079  1.00  0.00    -0.235 C  
BRANCH   8   9
HETATM    9  C   UNL     1      -9.478  10.502  62.971  1.00  0.00    -0.364 C  
BRANCH   9  10
HETATM   10  C   UNL     1     -10.168  11.753  63.495  1.00  0.00    -0.483 C  
BRANCH  10  11
HETATM   11  C   UNL     1     -11.681  11.596  63.428  1.00  0.00    -0.325 C  
BRANCH  11  12
HETATM   12  C   UNL     1     -12.366  12.938  63.644  1.00  0.00    -0.520 C  
BRANCH  12  13
HETATM   13  C   UNL     1     -12.381  13.298  65.121  1.00  0.00    -0.516 C  
BRANCH  13  14
HETATM   14  C   UNL     1     -11.474  14.491  65.391  1.00  0.00    -0.348 C  
BRANCH  14  15
HETATM   15  C   UNL     1     -10.421  14.138  66.430  1.00  0.00    -0.283 C  
BRANCH  15  16
HETATM   16  C   UNL     1     -10.887  14.537  67.823  1.00  0.00    -0.267 C  
BRANCH  16  17
HETATM   17  C   UNL     1      -9.978  15.612  68.408  1.00  0.00    -0.210 C  
BRANCH  17  18
HETATM   18  C   UNL     1     -10.660  16.974  68.367  1.00  0.00    -0.375 C  
BRANCH  18  19
HETATM   19  C   UNL     1     -10.120  17.817  67.217  1.00  0.00    -0.337 C  
BRANCH  19  20
HETATM   20  C   UNL     1     -10.785  19.189  67.196  1.00  0.00    -0.567 C  
BRANCH  20  21
HETATM   21  C   UNL     1      -9.812  20.274  67.642  1.00  0.00    -0.563 C  
BRANCH  21  22
HETATM   22  C   UNL     1      -8.369  19.862  67.388  1.00  0.00    -0.322 C  
HETATM   23  O   UNL     1      -7.624  20.980  66.922  1.00  0.00    -0.553 OA 
HETATM   24  H   UNL     1      -6.723  20.722  66.763  1.00  0.00     0.000 HD 
ENDBRANCH  21  22
ENDBRANCH  20  21
ENDBRANCH  19  20
ENDBRANCH  18  19
ENDBRANCH  17  18
ENDBRANCH  16  17
ENDBRANCH  15  16
ENDBRANCH  14  15
ENDBRANCH  13  14
ENDBRANCH  12  13
ENDBRANCH  11  12
ENDBRANCH  10  11
ENDBRANCH   9  10
ENDBRANCH   8   9
ENDBRANCH   7   8
ENDBRANCH   6   7
ENDBRANCH   5   6
ENDBRANCH   4   5
ENDBRANCH   3   4
ENDBRANCH   2   3
TORSDOF 20
ENDMDL
MODEL      270
REMARK 921   NORMALIZED FREE ENERGY PREDICTED BY IDOCK:   -3.12 KCAL/MOL
REMARK 922        TOTAL FREE ENERGY PREDICTED BY IDOCK:   -9.63 KCAL/MOL
REMARK 923 INTER-LIGAND FREE ENERGY PREDICTED BY IDOCK:   -6.77 KCAL/MOL
REMARK 924 INTRA-LIGAND FREE ENERGY PREDICTED BY IDOCK:   -2.86 KCAL/MOL
REMARK 927      BINDING AFFINITY PREDICTED BY RF-SCORE:    0.00 PKD
ROOT
HETATM    1  C   UNL     1      -9.924   4.146  66.004  1.00  0.00    -0.193 C  
HETATM    2  C   UNL     1      -9.584   5.418  66.762  1.00  0.00    -0.155 C  
ENDROOT
BRANCH   2   3
HETATM    3  C   UNL     1     -10.844   6.097  67.290  1.00  0.00    -0.438 C  
BRANCH   3   4
HETATM    4  C   UNL     1     -10.770   7.611  67.110  1.00  0.00    -0.361 C  
BRANCH   4   5
HETATM    5  C   UNL     1      -9.341   8.049  66.803  1.00  0.00    -0.229 C  
BRANCH   5   6
HETATM    6  C   UNL     1      -9.282   8.831  65.495  1.00  0.00    -0.202 C  
BRANCH   6   7
HETATM    7  C   UNL     1      -9.917  10.206  65.661  1.00  0.00    -0.348 C  
BRANCH   7   8
HETATM    8  C   UNL     1     -10.248  10.812  64.304  1.00  0.00    -0.422 C  
BRANCH   8   9
HETATM    9  C   UNL     1     -11.288  11.915  64.448  1.00  0.00    -0.395 C  
BRANCH   9  10
HETATM   10  C   UNL     1     -10.655  13.280  64.214  1.00  0.00    -0.402 C  
BRANCH  10  11
HETATM   11  C   UNL     1     -11.182  14.292  65.221  1.00  0.00    -0.337 C  
BRANCH  11  12
HETATM   12  C   UNL     1     -10.782  13.895  66.635  1.00  0.00    -0.281 C  
BRANCH  12  13
HETATM   13  C   UNL     1     -11.820  14.378  67.637  1.00  0.00    -0.412 C  
BRANCH  13  14
HETATM   14  C   UNL     1     -11.990  13.365  68.762  1.00  0.00    -0.359 C  
BRANCH  14  15
HETATM   15  C   UNL     1     -11.174  12.112  68.480  1.00  0.00    -0.307 C  
BRANCH  15  16
HETATM   16  C   UNL     1     -11.906  10.872  68.976  1.00  0.00    -0.370 C  
BRANCH  16  17
HETATM   17  C   UNL     1     -11.122  10.195  70.094  1.00  0.00    -0.378 C  
BRANCH  17  18
HETATM   18  C   UNL     1      -9.631  10.186  69.775  1.00  0.00    -0.213 C  
BRANCH  18  19
HETATM   19  C   UNL     1      -8.965   8.932  70.330  1.00  0.00    -0.207 C  
BRANCH  19  20
HETATM   20  C   UNL     1     -10.009   7.965  70.879  1.00  0.00    -0.196 C  
BRANCH  20  21
HETATM   21  C   UNL     1      -9.349   6.830  71.653  1.00  0.00    -0.151 C  
BRANCH  21  22
HETATM   22  C   UNL     1      -9.234   5.573  70.800  1.00  0.00    -0.150 C  
HETATM   23  O   UNL     1     -10.531   5.110  70.448  1.00  0.00    -0.267 OA 
HETATM   24  H   UNL     1     -10.459   4.326  69.916  1.00  0.00     0.000 HD 
ENDBRANCH  21  22
ENDBRANCH  20  21
ENDBRANCH  19  20
ENDBRANCH  18  19
ENDBRANCH  17  18
ENDBRANCH  16  17
ENDBRANCH  15  16
ENDBRANCH  14  15
ENDBRANCH  13  14
ENDBRANCH  12  13
ENDBRANCH  11  12
ENDBRANCH  10  11
ENDBRANCH   9  10
ENDBRANCH   8   9
ENDBRANCH   7   8
ENDBRANCH   6   7
ENDBRANCH   5   6
ENDBRANCH   4   5
ENDBRANCH   3   4
ENDBRANCH   2   3
TORSDOF 20
ENDMDL
MODEL      271
REMARK 921   NORMALIZED FREE ENERGY PREDICTED BY IDOCK:   -3.12 KCAL/MOL
REMARK 922        TOTAL FREE ENERGY PREDICTED BY IDOCK:   -9.63 KCAL/MOL
REMARK 923 INTER-LIGAND FREE ENERGY PREDICTED BY IDOCK:   -7.71 KCAL/MOL
REMARK 924 INTRA-LIGAND FREE ENERGY PREDICTED BY IDOCK:   -1.92 KCAL/MOL
REMARK 927      BINDING AFFINITY PREDICTED BY RF-SCORE:    0.00 PKD
ROOT
HETATM    1  C   UNL     1     -11.022   5.973  66.642  1.00  0.00    -0.229 C  
HETATM    2  C   UNL     1     -10.924   6.335  68.114  1.00  0.00    -0.412 C  
ENDROOT
BRANCH   2   3
HETATM    3  C   UNL     1      -9.662   7.145  68.398  1.00  0.00    -0.143 C  
BRANCH   3   4
HETATM    4  C   UNL     1      -9.801   8.577  67.889  1.00  0.00    -0.208 C  
BRANCH   4   5
HETATM    5  C   UNL     1     -10.079   9.536  69.043  1.00  0.00    -0.201 C  
BRANCH   5   6
HETATM    6  C   UNL     1     -10.908   8.855  70.127  1.00  0.00    -0.251 C  
BRANCH   6   7
HETATM    7  C   UNL     1     -11.345   9.863  71.182  1.00  0.00    -0.443 C  
BRANCH   7   8
HETATM    8  C   UNL     1     -12.606  10.592  70.738  1.00  0.00    -0.474 C  
BRANCH   8   9
HETATM    9  C   UNL     1     -12.501  12.080  71.043  1.00  0.00    -0.376 C  
BRANCH   9  10
HETATM   10  C   UNL     1     -13.476  12.470  72.145  1.00  0.00    -0.523 C  
BRANCH  10  11
HETATM   11  C   UNL     1     -13.828  13.948  72.049  1.00  0.00    -0.588 C  
BRANCH  11  12
HETATM   12  C   UNL     1     -13.125  14.736  73.145  1.00  0.00    -0.598 C  
BRANCH  12  13
HETATM   13  C   UNL     1     -12.508  16.005  72.577  1.00  0.00    -0.558 C  
BRANCH  13  14
HETATM   14  C   UNL     1     -11.227  15.684  71.818  1.00  0.00    -0.323 C  
BRANCH  14  15
HETATM   15  C   UNL     1     -11.401  15.968  70.334  1.00  0.00    -0.405 C  
BRANCH  15  16
HETATM   16  C   UNL     1     -10.710  14.898  69.499  1.00  0.00    -0.256 C  
BRANCH  16  17
HETATM   17  C   UNL     1     -11.682  14.285  68.498  1.00  0.00    -0.376 C  
BRANCH  17  18
HETATM   18  C   UNL     1     -10.927  13.588  67.373  1.00  0.00    -0.286 C  
BRANCH  18  19
HETATM   19  C   UNL     1      -9.750  12.789  67.923  1.00  0.00    -0.217 C  
BRANCH  19  20
HETATM   20  C   UNL     1      -8.594  12.778  66.929  1.00  0.00    -0.140 C  
BRANCH  20  21
HETATM   21  C   UNL     1      -7.492  11.828  67.383  1.00  0.00    -0.143 C  
BRANCH  21  22
HETATM   22  C   UNL     1      -6.166  12.559  67.550  1.00  0.00    -0.155 C  
HETATM   23  O   UNL     1      -6.320  13.924  67.183  1.00  0.00    -0.405 OA 
HETATM   24  H   UNL     1      -5.493  14.380  67.287  1.00  0.00     0.000 HD 
ENDBRANCH  21  22
ENDBRANCH  20  21
ENDBRANCH  19  20
ENDBRANCH  18  19
ENDBRANCH  17  18
ENDBRANCH  16  17
ENDBRANCH  15  16
ENDBRANCH  14  15
ENDBRANCH  13  14
ENDBRANCH  12  13
ENDBRANCH  11  12
ENDBRANCH  10  11
ENDBRANCH   9  10
ENDBRANCH   8   9
ENDBRANCH   7   8
ENDBRANCH   6   7
ENDBRANCH   5   6
ENDBRANCH   4   5
ENDBRANCH   3   4
ENDBRANCH   2   3
TORSDOF 20
ENDMDL
MODEL      272
REMARK 921   NORMALIZED FREE ENERGY PREDICTED BY IDOCK:   -3.11 KCAL/MOL
REMARK 922        TOTAL FREE ENERGY PREDICTED BY IDOCK:   -9.62 KCAL/MOL
REMARK 923 INTER-LIGAND FREE ENERGY PREDICTED BY IDOCK:   -6.96 KCAL/MOL
REMARK 924 INTRA-LIGAND FREE ENERGY PREDICTED BY IDOCK:   -2.65 KCAL/MOL
REMARK 927      BINDING AFFINITY PREDICTED BY RF-SCORE:    0.00 PKD
ROOT
HETATM    1  C   UNL     1      -6.005  16.349  67.234  1.00  0.00    -0.193 C  
HETATM    2  C   UNL     1      -6.835  17.614  67.091  1.00  0.00    -0.192 C  
ENDROOT
BRANCH   2   3
HETATM    3  C   UNL     1      -7.177  18.204  68.456  1.00  0.00    -0.274 C  
BRANCH   3   4
HETATM    4  C   UNL     1      -7.429  19.706  68.358  1.00  0.00    -0.359 C  
BRANCH   4   5
HETATM    5  C   UNL     1      -8.361  20.022  67.192  1.00  0.00    -0.381 C  
BRANCH   5   6
HETATM    6  C   UNL     1      -9.758  20.373  67.693  1.00  0.00    -0.540 C  
BRANCH   6   7
HETATM    7  C   UNL     1     -10.653  19.140  67.699  1.00  0.00    -0.546 C  
BRANCH   7   8
HETATM    8  C   UNL     1     -10.529  18.381  66.384  1.00  0.00    -0.412 C  
BRANCH   8   9
HETATM    9  C   UNL     1     -10.498  16.879  66.632  1.00  0.00    -0.257 C  
BRANCH   9  10
HETATM   10  C   UNL     1     -10.351  16.585  68.119  1.00  0.00    -0.296 C  
BRANCH  10  11
HETATM   11  C   UNL     1     -11.463  15.661  68.594  1.00  0.00    -0.381 C  
BRANCH  11  12
HETATM   12  C   UNL     1     -10.908  14.283  68.923  1.00  0.00    -0.272 C  
BRANCH  12  13
HETATM   13  C   UNL     1     -11.803  13.197  68.348  1.00  0.00    -0.386 C  
BRANCH  13  14
HETATM   14  C   UNL     1     -12.179  13.520  66.908  1.00  0.00    -0.377 C  
BRANCH  14  15
HETATM   15  C   UNL     1     -11.763  12.388  65.980  1.00  0.00    -0.469 C  
BRANCH  15  16
HETATM   16  C   UNL     1     -10.279  12.084  66.138  1.00  0.00    -0.255 C  
BRANCH  16  17
HETATM   17  C   UNL     1      -9.988  10.627  65.797  1.00  0.00    -0.315 C  
BRANCH  17  18
HETATM   18  C   UNL     1      -9.667   9.834  67.059  1.00  0.00    -0.233 C  
BRANCH  18  19
HETATM   19  C   UNL     1      -8.827  10.666  68.022  1.00  0.00    -0.130 C  
BRANCH  19  20
HETATM   20  C   UNL     1      -9.319  10.491  69.455  1.00  0.00    -0.089 C  
BRANCH  20  21
HETATM   21  C   UNL     1      -9.595   9.024  69.764  1.00  0.00    -0.182 C  
BRANCH  21  22
HETATM   22  C   UNL     1      -8.431   8.388  70.512  1.00  0.00    -0.132 C  
HETATM   23  O   UNL     1      -8.424   8.836  71.861  1.00  0.00    -0.293 OA 
HETATM   24  H   UNL     1      -7.698   8.439  72.328  1.00  0.00     0.000 HD 
ENDBRANCH  21  22
ENDBRANCH  20  21
ENDBRANCH  19  20
ENDBRANCH  18  19
ENDBRANCH  17  18
ENDBRANCH  16  17
ENDBRANCH  15  16
ENDBRANCH  14  15
ENDBRANCH  13  14
ENDBRANCH  12  13
ENDBRANCH  11  12
ENDBRANCH  10  11
ENDBRANCH   9  10
ENDBRANCH   8   9
ENDBRANCH   7   8
ENDBRANCH   6   7
ENDBRANCH   5   6
ENDBRANCH   4   5
ENDBRANCH   3   4
ENDBRANCH   2   3
TORSDOF 20
ENDMDL
MODEL      273
REMARK 921   NORMALIZED FREE ENERGY PREDICTED BY IDOCK:   -3.11 KCAL/MOL
REMARK 922        TOTAL FREE ENERGY PREDICTED BY IDOCK:   -9.61 KCAL/MOL
REMARK 923 INTER-LIGAND FREE ENERGY PREDICTED BY IDOCK:   -7.03 KCAL/MOL
REMARK 924 INTRA-LIGAND FREE ENERGY PREDICTED BY IDOCK:   -2.58 KCAL/MOL
REMARK 927      BINDING AFFINITY PREDICTED BY RF-SCORE:    0.00 PKD
ROOT
HETATM    1  C   UNL     1     -10.650  16.926  68.215  1.00  0.00    -0.363 C  
HETATM    2  C   UNL     1     -10.403  17.409  66.796  1.00  0.00    -0.305 C  
ENDROOT
BRANCH   2   3
HETATM    3  C   UNL     1     -10.243  16.235  65.835  1.00  0.00    -0.384 C  
BRANCH   3   4
HETATM    4  C   UNL     1     -10.396  14.903  66.564  1.00  0.00    -0.295 C  
BRANCH   4   5
HETATM    5  C   UNL     1     -11.078  13.872  65.670  1.00  0.00    -0.298 C  
BRANCH   5   6
HETATM    6  C   UNL     1     -11.743  12.784  66.506  1.00  0.00    -0.463 C  
BRANCH   6   7
HETATM    7  C   UNL     1     -11.991  13.273  67.927  1.00  0.00    -0.349 C  
BRANCH   7   8
HETATM    8  C   UNL     1     -11.279  12.380  68.934  1.00  0.00    -0.330 C  
BRANCH   8   9
HETATM    9  C   UNL     1     -12.221  11.988  70.065  1.00  0.00    -0.280 C  
BRANCH   9  10
HETATM   10  C   UNL     1     -12.072  10.511  70.397  1.00  0.00    -0.418 C  
BRANCH  10  11
HETATM   11  C   UNL     1     -12.905  10.151  71.620  1.00  0.00    -0.559 C  
BRANCH  11  12
HETATM   12  C   UNL     1     -12.424   8.842  72.227  1.00  0.00    -0.455 C  
BRANCH  12  13
HETATM   13  C   UNL     1     -12.800   7.670  71.333  1.00  0.00    -0.354 C  
BRANCH  13  14
HETATM   14  C   UNL     1     -11.734   6.584  71.397  1.00  0.00    -0.378 C  
BRANCH  14  15
HETATM   15  C   UNL     1     -10.372   7.190  71.699  1.00  0.00    -0.215 C  
BRANCH  15  16
HETATM   16  C   UNL     1      -9.310   6.609  70.776  1.00  0.00    -0.159 C  
BRANCH  16  17
HETATM   17  C   UNL     1      -9.923   6.196  69.443  1.00  0.00    -0.205 C  
BRANCH  17  18
HETATM   18  C   UNL     1      -9.430   7.102  68.321  1.00  0.00    -0.133 C  
BRANCH  18  19
HETATM   19  C   UNL     1     -10.480   8.149  67.967  1.00  0.00    -0.242 C  
BRANCH  19  20
HETATM   20  C   UNL     1      -9.819   9.463  67.567  1.00  0.00    -0.220 C  
BRANCH  20  21
HETATM   21  C   UNL     1      -8.396   9.546  68.107  1.00  0.00    -0.118 C  
BRANCH  21  22
HETATM   22  C   UNL     1      -8.268  10.638  69.162  1.00  0.00    -0.139 C  
HETATM   23  O   UNL     1      -8.450  10.080  70.456  1.00  0.00    -0.373 OA 
HETATM   24  H   UNL     1      -8.370  10.761  71.114  1.00  0.00     0.000 HD 
ENDBRANCH  21  22
ENDBRANCH  20  21
ENDBRANCH  19  20
ENDBRANCH  18  19
ENDBRANCH  17  18
ENDBRANCH  16  17
ENDBRANCH  15  16
ENDBRANCH  14  15
ENDBRANCH  13  14
ENDBRANCH  12  13
ENDBRANCH  11  12
ENDBRANCH  10  11
ENDBRANCH   9  10
ENDBRANCH   8   9
ENDBRANCH   7   8
ENDBRANCH   6   7
ENDBRANCH   5   6
ENDBRANCH   4   5
ENDBRANCH   3   4
ENDBRANCH   2   3
TORSDOF 20
ENDMDL
MODEL      274
REMARK 921   NORMALIZED FREE ENERGY PREDICTED BY IDOCK:   -3.09 KCAL/MOL
REMARK 922        TOTAL FREE ENERGY PREDICTED BY IDOCK:   -9.58 KCAL/MOL
REMARK 923 INTER-LIGAND FREE ENERGY PREDICTED BY IDOCK:   -6.31 KCAL/MOL
REMARK 924 INTRA-LIGAND FREE ENERGY PREDICTED BY IDOCK:   -3.27 KCAL/MOL
REMARK 927      BINDING AFFINITY PREDICTED BY RF-SCORE:    0.00 PKD
ROOT
HETATM    1  C   UNL     1     -10.516  14.577  64.946  1.00  0.00    -0.435 C  
HETATM    2  C   UNL     1     -11.562  13.585  64.466  1.00  0.00    -0.410 C  
ENDROOT
BRANCH   2   3
HETATM    3  C   UNL     1     -12.310  12.964  65.642  1.00  0.00    -0.482 C  
BRANCH   3   4
HETATM    4  C   UNL     1     -11.423  11.981  66.400  1.00  0.00    -0.417 C  
BRANCH   4   5
HETATM    5  C   UNL     1     -11.533  12.205  67.906  1.00  0.00    -0.392 C  
BRANCH   5   6
HETATM    6  C   UNL     1     -12.101  13.587  68.209  1.00  0.00    -0.295 C  
BRANCH   6   7
HETATM    7  C   UNL     1     -11.039  14.479  68.839  1.00  0.00    -0.273 C  
BRANCH   7   8
HETATM    8  C   UNL     1     -11.259  15.934  68.447  1.00  0.00    -0.368 C  
BRANCH   8   9
HETATM    9  C   UNL     1     -10.688  16.867  69.507  1.00  0.00    -0.205 C  
BRANCH   9  10
HETATM   10  C   UNL     1     -10.141  18.134  68.864  1.00  0.00    -0.354 C  
BRANCH  10  11
HETATM   11  C   UNL     1     -10.344  18.099  67.356  1.00  0.00    -0.402 C  
BRANCH  11  12
HETATM   12  C   UNL     1      -9.038  18.398  66.635  1.00  0.00    -0.301 C  
BRANCH  12  13
HETATM   13  C   UNL     1      -7.875  17.706  67.329  1.00  0.00    -0.222 C  
BRANCH  13  14
HETATM   14  C   UNL     1      -7.485  16.436  66.584  1.00  0.00    -0.267 C  
BRANCH  14  15
HETATM   15  C   UNL     1      -7.767  15.208  67.436  1.00  0.00    -0.225 C  
BRANCH  15  16
HETATM   16  C   UNL     1      -6.481  14.680  68.057  1.00  0.00    -0.161 C  
BRANCH  16  17
HETATM   17  C   UNL     1      -6.678  13.260  68.576  1.00  0.00    -0.092 C  
BRANCH  17  18
HETATM   18  C   UNL     1      -7.955  12.653  68.009  1.00  0.00    -0.155 C  
BRANCH  18  19
HETATM   19  C   UNL     1      -7.913  11.131  68.088  1.00  0.00    -0.125 C  
BRANCH  19  20
HETATM   20  C   UNL     1      -8.060  10.514  66.701  1.00  0.00    -0.127 C  
BRANCH  20  21
HETATM   21  C   UNL     1      -6.726  10.497  65.965  1.00  0.00    -0.130 C  
BRANCH  21  22
HETATM   22  C   UNL     1      -6.847   9.797  64.617  1.00  0.00    -0.123 C  
HETATM   23  O   UNL     1      -6.854  10.762  63.574  1.00  0.00    -0.350 OA 
HETATM   24  H   UNL     1      -6.929  10.326  62.733  1.00  0.00     0.000 HD 
ENDBRANCH  21  22
ENDBRANCH  20  21
ENDBRANCH  19  20
ENDBRANCH  18  19
ENDBRANCH  17  18
ENDBRANCH  16  17
ENDBRANCH  15  16
ENDBRANCH  14  15
ENDBRANCH  13  14
ENDBRANCH  12  13
ENDBRANCH  11  12
ENDBRANCH  10  11
ENDBRANCH   9  10
ENDBRANCH   8   9
ENDBRANCH   7   8
ENDBRANCH   6   7
ENDBRANCH   5   6
ENDBRANCH   4   5
ENDBRANCH   3   4
ENDBRANCH   2   3
TORSDOF 20
ENDMDL
MODEL      275
REMARK 921   NORMALIZED FREE ENERGY PREDICTED BY IDOCK:   -3.08 KCAL/MOL
REMARK 922        TOTAL FREE ENERGY PREDICTED BY IDOCK:   -9.55 KCAL/MOL
REMARK 923 INTER-LIGAND FREE ENERGY PREDICTED BY IDOCK:   -7.18 KCAL/MOL
REMARK 924 INTRA-LIGAND FREE ENERGY PREDICTED BY IDOCK:   -2.37 KCAL/MOL
REMARK 927      BINDING AFFINITY PREDICTED BY RF-SCORE:    0.00 PKD
ROOT
HETATM    1  C   UNL     1      -6.619  10.567  70.111  1.00  0.00    -0.149 C  
HETATM    2  C   UNL     1      -7.331   9.227  70.177  1.00  0.00    -0.096 C  
ENDROOT
BRANCH   2   3
HETATM    3  C   UNL     1      -8.802   9.403  70.544  1.00  0.00    -0.287 C  
BRANCH   3   4
HETATM    4  C   UNL     1      -9.072   8.939  71.973  1.00  0.00    -0.140 C  
BRANCH   4   5
HETATM    5  C   UNL     1      -8.601   7.502  72.172  1.00  0.00    -0.137 C  
BRANCH   5   6
HETATM    6  C   UNL     1      -9.630   6.698  72.960  1.00  0.00    -0.162 C  
BRANCH   6   7
HETATM    7  C   UNL     1     -11.011   7.333  72.846  1.00  0.00    -0.381 C  
BRANCH   7   8
HETATM    8  C   UNL     1     -11.957   6.422  72.074  1.00  0.00    -0.375 C  
BRANCH   8   9
HETATM    9  C   UNL     1     -11.981   6.800  70.599  1.00  0.00    -0.418 C  
BRANCH   9  10
HETATM   10  C   UNL     1     -11.102   5.857  69.791  1.00  0.00    -0.422 C  
BRANCH  10  11
HETATM   11  C   UNL     1     -10.333   6.625  68.725  1.00  0.00    -0.214 C  
BRANCH  11  12
HETATM   12  C   UNL     1      -8.850   6.287  68.789  1.00  0.00    -0.123 C  
BRANCH  12  13
HETATM   13  C   UNL     1      -8.134   6.800  67.549  1.00  0.00    -0.115 C  
BRANCH  13  14
HETATM   14  C   UNL     1      -9.122   7.447  66.588  1.00  0.00    -0.184 C  
BRANCH  14  15
HETATM   15  C   UNL     1      -8.659   8.845  66.208  1.00  0.00    -0.145 C  
BRANCH  15  16
HETATM   16  C   UNL     1      -9.253   9.261  64.868  1.00  0.00    -0.206 C  
BRANCH  16  17
HETATM   17  C   UNL     1     -10.102  10.516  65.022  1.00  0.00    -0.390 C  
BRANCH  17  18
HETATM   18  C   UNL     1      -9.889  11.457  63.842  1.00  0.00    -0.335 C  
BRANCH  18  19
HETATM   19  C   UNL     1     -10.638  12.769  64.053  1.00  0.00    -0.446 C  
BRANCH  19  20
HETATM   20  C   UNL     1     -10.307  13.366  65.416  1.00  0.00    -0.321 C  
BRANCH  20  21
HETATM   21  C   UNL     1     -10.164  14.881  65.329  1.00  0.00    -0.404 C  
BRANCH  21  22
HETATM   22  C   UNL     1     -11.510  15.551  65.087  1.00  0.00    -0.156 C  
HETATM   23  O   UNL     1     -11.431  16.390  63.943  1.00  0.00    -1.569 OA 
HETATM   24  H   UNL     1     -12.271  16.808  63.792  1.00  0.00     0.000 HD 
ENDBRANCH  21  22
ENDBRANCH  20  21
ENDBRANCH  19  20
ENDBRANCH  18  19
ENDBRANCH  17  18
ENDBRANCH  16  17
ENDBRANCH  15  16
ENDBRANCH  14  15
ENDBRANCH  13  14
ENDBRANCH  12  13
ENDBRANCH  11  12
ENDBRANCH  10  11
ENDBRANCH   9  10
ENDBRANCH   8   9
ENDBRANCH   7   8
ENDBRANCH   6   7
ENDBRANCH   5   6
ENDBRANCH   4   5
ENDBRANCH   3   4
ENDBRANCH   2   3
TORSDOF 20
ENDMDL
MODEL      276
REMARK 921   NORMALIZED FREE ENERGY PREDICTED BY IDOCK:   -3.08 KCAL/MOL
REMARK 922        TOTAL FREE ENERGY PREDICTED BY IDOCK:   -9.54 KCAL/MOL
REMARK 923 INTER-LIGAND FREE ENERGY PREDICTED BY IDOCK:   -6.15 KCAL/MOL
REMARK 924 INTRA-LIGAND FREE ENERGY PREDICTED BY IDOCK:   -3.39 KCAL/MOL
REMARK 927      BINDING AFFINITY PREDICTED BY RF-SCORE:    0.00 PKD
ROOT
HETATM    1  C   UNL     1     -10.129   5.472  74.369  1.00  0.00    -0.282 C  
HETATM    2  C   UNL     1      -8.686   5.915  74.202  1.00  0.00    -0.122 C  
ENDROOT
BRANCH   2   3
HETATM    3  C   UNL     1      -8.478   6.615  72.863  1.00  0.00    -0.123 C  
BRANCH   3   4
HETATM    4  C   UNL     1      -8.641   8.126  73.001  1.00  0.00    -0.284 C  
BRANCH   4   5
HETATM    5  C   UNL     1      -8.551   8.806  71.638  1.00  0.00    -0.228 C  
BRANCH   5   6
HETATM    6  C   UNL     1      -8.451   7.773  70.521  1.00  0.00    -0.127 C  
BRANCH   6   7
HETATM    7  C   UNL     1      -9.549   7.990  69.487  1.00  0.00    -0.164 C  
BRANCH   7   8
HETATM    8  C   UNL     1     -10.178   6.662  69.086  1.00  0.00    -0.201 C  
BRANCH   8   9
HETATM    9  C   UNL     1     -11.589   6.547  69.647  1.00  0.00    -0.348 C  
BRANCH   9  10
HETATM   10  C   UNL     1     -11.554   6.045  71.084  1.00  0.00    -0.167 C  
BRANCH  10  11
HETATM   11  C   UNL     1     -12.603   6.760  71.924  1.00  0.00    -0.328 C  
BRANCH  11  12
HETATM   12  C   UNL     1     -12.149   8.174  72.255  1.00  0.00    -0.419 C  
BRANCH  12  13
HETATM   13  C   UNL     1     -13.335   9.125  72.270  1.00  0.00    -0.540 C  
BRANCH  13  14
HETATM   14  C   UNL     1     -13.408   9.912  70.968  1.00  0.00    -0.322 C  
BRANCH  14  15
HETATM   15  C   UNL     1     -12.093  10.631  70.705  1.00  0.00    -0.474 C  
BRANCH  15  16
HETATM   16  C   UNL     1     -12.303  12.139  70.680  1.00  0.00    -0.385 C  
BRANCH  16  17
HETATM   17  C   UNL     1     -11.603  12.760  69.477  1.00  0.00    -0.342 C  
BRANCH  17  18
HETATM   18  C   UNL     1     -11.902  11.965  68.212  1.00  0.00    -0.343 C  
BRANCH  18  19
HETATM   19  C   UNL     1     -10.723  12.018  67.246  1.00  0.00    -0.269 C  
BRANCH  19  20
HETATM   20  C   UNL     1      -9.418  11.706  67.970  1.00  0.00    -0.185 C  
BRANCH  20  21
HETATM   21  C   UNL     1      -8.593  10.686  67.194  1.00  0.00    -0.127 C  
BRANCH  21  22
HETATM   22  C   UNL     1      -9.426  10.008  66.114  1.00  0.00    -0.190 C  
HETATM   23  O   UNL     1      -9.098   8.627  66.049  1.00  0.00    -0.179 OA 
HETATM   24  H   UNL     1      -9.617   8.204  65.375  1.00  0.00     0.000 HD 
ENDBRANCH  21  22
ENDBRANCH  20  21
ENDBRANCH  19  20
ENDBRANCH  18  19
ENDBRANCH  17  18
ENDBRANCH  16  17
ENDBRANCH  15  16
ENDBRANCH  14  15
ENDBRANCH  13  14
ENDBRANCH  12  13
ENDBRANCH  11  12
ENDBRANCH  10  11
ENDBRANCH   9  10
ENDBRANCH   8   9
ENDBRANCH   7   8
ENDBRANCH   6   7
ENDBRANCH   5   6
ENDBRANCH   4   5
ENDBRANCH   3   4
ENDBRANCH   2   3
TORSDOF 20
ENDMDL
MODEL      277
REMARK 921   NORMALIZED FREE ENERGY PREDICTED BY IDOCK:   -3.06 KCAL/MOL
REMARK 922        TOTAL FREE ENERGY PREDICTED BY IDOCK:   -9.52 KCAL/MOL
REMARK 923 INTER-LIGAND FREE ENERGY PREDICTED BY IDOCK:   -7.46 KCAL/MOL
REMARK 924 INTRA-LIGAND FREE ENERGY PREDICTED BY IDOCK:   -2.06 KCAL/MOL
REMARK 927      BINDING AFFINITY PREDICTED BY RF-SCORE:    0.00 PKD
ROOT
HETATM    1  C   UNL     1      -7.777   3.825  66.157  1.00  0.00    -0.089 C  
HETATM    2  C   UNL     1      -8.919   4.267  65.257  1.00  0.00    -0.137 C  
ENDROOT
BRANCH   2   3
HETATM    3  C   UNL     1     -10.086   4.809  66.077  1.00  0.00    -0.282 C  
BRANCH   3   4
HETATM    4  C   UNL     1      -9.739   6.157  66.703  1.00  0.00    -0.196 C  
BRANCH   4   5
HETATM    5  C   UNL     1     -10.980   6.807  67.308  1.00  0.00    -0.433 C  
BRANCH   5   6
HETATM    6  C   UNL     1     -11.266   6.242  68.696  1.00  0.00    -0.328 C  
BRANCH   6   7
HETATM    7  C   UNL     1     -10.086   6.483  69.628  1.00  0.00    -0.209 C  
BRANCH   7   8
HETATM    8  C   UNL     1     -10.572   6.864  71.021  1.00  0.00    -0.244 C  
BRANCH   8   9
HETATM    9  C   UNL     1     -12.087   7.013  71.038  1.00  0.00    -0.413 C  
BRANCH   9  10
HETATM   10  C   UNL     1     -12.486   8.351  71.643  1.00  0.00    -0.363 C  
BRANCH  10  11
HETATM   11  C   UNL     1     -11.385   9.381  71.435  1.00  0.00    -0.451 C  
BRANCH  11  12
HETATM   12  C   UNL     1     -11.613  10.153  70.144  1.00  0.00    -0.350 C  
BRANCH  12  13
HETATM   13  C   UNL     1     -10.308  10.312  69.380  1.00  0.00    -0.256 C  
BRANCH  13  14
HETATM   14  C   UNL     1     -10.567  10.363  67.880  1.00  0.00    -0.273 C  
BRANCH  14  15
HETATM   15  C   UNL     1     -11.437  11.560  67.530  1.00  0.00    -0.355 C  
BRANCH  15  16
HETATM   16  C   UNL     1     -11.289  11.916  66.056  1.00  0.00    -0.375 C  
BRANCH  16  17
HETATM   17  C   UNL     1     -12.229  13.056  65.681  1.00  0.00    -0.521 C  
BRANCH  17  18
HETATM   18  C   UNL     1     -12.201  14.147  66.745  1.00  0.00    -0.429 C  
BRANCH  18  19
HETATM   19  C   UNL     1     -11.002  15.068  66.546  1.00  0.00    -0.327 C  
BRANCH  19  20
HETATM   20  C   UNL     1     -10.871  16.043  67.711  1.00  0.00    -0.324 C  
BRANCH  20  21
HETATM   21  C   UNL     1     -11.626  15.537  68.934  1.00  0.00    -0.384 C  
BRANCH  21  22
HETATM   22  C   UNL     1     -10.733  15.523  70.168  1.00  0.00    -0.329 C  
HETATM   23  O   UNL     1     -11.493  15.876  71.316  1.00  0.00    -0.387 OA 
HETATM   24  H   UNL     1     -10.936  15.867  72.086  1.00  0.00     0.000 HD 
ENDBRANCH  21  22
ENDBRANCH  20  21
ENDBRANCH  19  20
ENDBRANCH  18  19
ENDBRANCH  17  18
ENDBRANCH  16  17
ENDBRANCH  15  16
ENDBRANCH  14  15
ENDBRANCH  13  14
ENDBRANCH  12  13
ENDBRANCH  11  12
ENDBRANCH  10  11
ENDBRANCH   9  10
ENDBRANCH   8   9
ENDBRANCH   7   8
ENDBRANCH   6   7
ENDBRANCH   5   6
ENDBRANCH   4   5
ENDBRANCH   3   4
ENDBRANCH   2   3
TORSDOF 20
ENDMDL
MODEL      278
REMARK 921   NORMALIZED FREE ENERGY PREDICTED BY IDOCK:   -3.06 KCAL/MOL
REMARK 922        TOTAL FREE ENERGY PREDICTED BY IDOCK:   -9.52 KCAL/MOL
REMARK 923 INTER-LIGAND FREE ENERGY PREDICTED BY IDOCK:   -6.91 KCAL/MOL
REMARK 924 INTRA-LIGAND FREE ENERGY PREDICTED BY IDOCK:   -2.61 KCAL/MOL
REMARK 927      BINDING AFFINITY PREDICTED BY RF-SCORE:    0.00 PKD
ROOT
HETATM    1  C   UNL     1     -10.483  10.713  65.341  1.00  0.00    -0.254 C  
HETATM    2  C   UNL     1     -10.174   9.773  66.494  1.00  0.00    -0.289 C  
ENDROOT
BRANCH   2   3
HETATM    3  C   UNL     1      -8.902  10.197  67.223  1.00  0.00    -0.137 C  
BRANCH   3   4
HETATM    4  C   UNL     1      -8.558  11.654  66.927  1.00  0.00    -0.174 C  
BRANCH   4   5
HETATM    5  C   UNL     1      -7.812  12.281  68.101  1.00  0.00    -0.148 C  
BRANCH   5   6
HETATM    6  C   UNL     1      -8.042  13.788  68.147  1.00  0.00    -0.155 C  
BRANCH   6   7
HETATM    7  C   UNL     1      -8.902  14.237  66.973  1.00  0.00    -0.243 C  
BRANCH   7   8
HETATM    8  C   UNL     1      -9.035  15.755  66.955  1.00  0.00    -0.247 C  
BRANCH   8   9
HETATM    9  C   UNL     1      -9.297  16.286  68.358  1.00  0.00    -0.210 C  
BRANCH   9  10
HETATM   10  C   UNL     1     -10.644  16.991  68.421  1.00  0.00    -0.375 C  
BRANCH  10  11
HETATM   11  C   UNL     1     -11.765  15.983  68.634  1.00  0.00    -0.273 C  
BRANCH  11  12
HETATM   12  C   UNL     1     -11.802  15.526  70.085  1.00  0.00    -0.378 C  
BRANCH  12  13
HETATM   13  C   UNL     1     -12.234  14.071  70.174  1.00  0.00    -0.425 C  
BRANCH  13  14
HETATM   14  C   UNL     1     -11.958  13.349  68.862  1.00  0.00    -0.362 C  
BRANCH  14  15
HETATM   15  C   UNL     1     -11.200  12.054  69.114  1.00  0.00    -0.305 C  
BRANCH  15  16
HETATM   16  C   UNL     1     -12.137  10.983  69.656  1.00  0.00    -0.411 C  
BRANCH  16  17
HETATM   17  C   UNL     1     -11.560  10.352  70.919  1.00  0.00    -0.428 C  
BRANCH  17  18
HETATM   18  C   UNL     1     -12.361   9.119  71.317  1.00  0.00    -0.382 C  
BRANCH  18  19
HETATM   19  C   UNL     1     -11.631   8.323  72.394  1.00  0.00    -0.464 C  
BRANCH  19  20
HETATM   20  C   UNL     1     -11.060   7.032  71.817  1.00  0.00    -0.270 C  
BRANCH  20  21
HETATM   21  C   UNL     1     -11.804   6.623  70.552  1.00  0.00    -0.430 C  
BRANCH  21  22
HETATM   22  C   UNL     1     -10.853   6.040  69.514  1.00  0.00    -0.369 C  
HETATM   23  O   UNL     1     -10.481   4.721  69.890  1.00  0.00    -0.181 OA 
HETATM   24  H   UNL     1      -9.887   4.358  69.243  1.00  0.00     0.000 HD 
ENDBRANCH  21  22
ENDBRANCH  20  21
ENDBRANCH  19  20
ENDBRANCH  18  19
ENDBRANCH  17  18
ENDBRANCH  16  17
ENDBRANCH  15  16
ENDBRANCH  14  15
ENDBRANCH  13  14
ENDBRANCH  12  13
ENDBRANCH  11  12
ENDBRANCH  10  11
ENDBRANCH   9  10
ENDBRANCH   8   9
ENDBRANCH   7   8
ENDBRANCH   6   7
ENDBRANCH   5   6
ENDBRANCH   4   5
ENDBRANCH   3   4
ENDBRANCH   2   3
TORSDOF 20
ENDMDL
MODEL      279
REMARK 921   NORMALIZED FREE ENERGY PREDICTED BY IDOCK:   -3.06 KCAL/MOL
REMARK 922        TOTAL FREE ENERGY PREDICTED BY IDOCK:   -9.51 KCAL/MOL
REMARK 923 INTER-LIGAND FREE ENERGY PREDICTED BY IDOCK:   -6.72 KCAL/MOL
REMARK 924 INTRA-LIGAND FREE ENERGY PREDICTED BY IDOCK:   -2.80 KCAL/MOL
REMARK 927      BINDING AFFINITY PREDICTED BY RF-SCORE:    0.00 PKD
ROOT
HETATM    1  C   UNL     1     -10.854   9.195  71.795  1.00  0.00    -0.416 C  
HETATM    2  C   UNL     1     -10.106   9.063  70.480  1.00  0.00    -0.263 C  
ENDROOT
BRANCH   2   3
HETATM    3  C   UNL     1     -10.907   9.662  69.329  1.00  0.00    -0.227 C  
BRANCH   3   4
HETATM    4  C   UNL     1     -11.293  11.110  69.622  1.00  0.00    -0.366 C  
BRANCH   4   5
HETATM    5  C   UNL     1     -11.982  11.740  68.415  1.00  0.00    -0.250 C  
BRANCH   5   6
HETATM    6  C   UNL     1     -11.245  12.996  67.964  1.00  0.00    -0.310 C  
BRANCH   6   7
HETATM    7  C   UNL     1     -12.030  13.719  66.876  1.00  0.00    -0.460 C  
BRANCH   7   8
HETATM    8  C   UNL     1     -11.150  14.741  66.169  1.00  0.00    -0.339 C  
BRANCH   8   9
HETATM    9  C   UNL     1     -10.418  14.100  64.997  1.00  0.00    -0.447 C  
BRANCH   9  10
HETATM   10  C   UNL     1     -11.388  13.316  64.125  1.00  0.00    -0.424 C  
BRANCH  10  11
HETATM   11  C   UNL     1     -10.750  12.018  63.650  1.00  0.00    -0.506 C  
BRANCH  11  12
HETATM   12  C   UNL     1     -10.521  11.076  64.824  1.00  0.00    -0.384 C  
BRANCH  12  13
HETATM   13  C   UNL     1      -9.039  10.772  64.981  1.00  0.00    -0.226 C  
BRANCH  13  14
HETATM   14  C   UNL     1      -8.559  11.154  66.375  1.00  0.00    -0.172 C  
BRANCH  14  15
HETATM   15  C   UNL     1      -8.082   9.923  67.131  1.00  0.00    -0.117 C  
BRANCH  15  16
HETATM   16  C   UNL     1      -8.276   8.669  66.289  1.00  0.00    -0.116 C  
BRANCH  16  17
HETATM   17  C   UNL     1      -8.902   7.554  67.120  1.00  0.00    -0.127 C  
BRANCH  17  18
HETATM   18  C   UNL     1     -10.401   7.465  66.857  1.00  0.00    -0.367 C  
BRANCH  18  19
HETATM   19  C   UNL     1     -10.961   6.138  67.356  1.00  0.00    -0.409 C  
BRANCH  19  20
HETATM   20  C   UNL     1     -10.711   5.975  68.852  1.00  0.00    -0.384 C  
BRANCH  20  21
HETATM   21  C   UNL     1      -9.684   4.881  69.118  1.00  0.00    -0.252 C  
BRANCH  21  22
HETATM   22  C   UNL     1      -8.475   5.428  69.866  1.00  0.00    -0.103 C  
HETATM   23  O   UNL     1      -7.289   4.818  69.373  1.00  0.00    -0.051 OA 
HETATM   24  H   UNL     1      -6.535   5.160  69.840  1.00  0.00     0.000 HD 
ENDBRANCH  21  22
ENDBRANCH  20  21
ENDBRANCH  19  20
ENDBRANCH  18  19
ENDBRANCH  17  18
ENDBRANCH  16  17
ENDBRANCH  15  16
ENDBRANCH  14  15
ENDBRANCH  13  14
ENDBRANCH  12  13
ENDBRANCH  11  12
ENDBRANCH  10  11
ENDBRANCH   9  10
ENDBRANCH   8   9
ENDBRANCH   7   8
ENDBRANCH   6   7
ENDBRANCH   5   6
ENDBRANCH   4   5
ENDBRANCH   3   4
ENDBRANCH   2   3
TORSDOF 20
ENDMDL
MODEL      280
REMARK 921   NORMALIZED FREE ENERGY PREDICTED BY IDOCK:   -3.06 KCAL/MOL
REMARK 922        TOTAL FREE ENERGY PREDICTED BY IDOCK:   -9.50 KCAL/MOL
REMARK 923 INTER-LIGAND FREE ENERGY PREDICTED BY IDOCK:   -6.53 KCAL/MOL
REMARK 924 INTRA-LIGAND FREE ENERGY PREDICTED BY IDOCK:   -2.98 KCAL/MOL
REMARK 927      BINDING AFFINITY PREDICTED BY RF-SCORE:    0.00 PKD
ROOT
HETATM    1  C   UNL     1     -12.379   9.573  71.383  1.00  0.00    -0.451 C  
HETATM    2  C   UNL     1     -11.313  10.428  70.719  1.00  0.00    -0.370 C  
ENDROOT
BRANCH   2   3
HETATM    3  C   UNL     1     -11.596  10.600  69.230  1.00  0.00    -0.346 C  
BRANCH   3   4
HETATM    4  C   UNL     1     -11.768  12.073  68.869  1.00  0.00    -0.383 C  
BRANCH   4   5
HETATM    5  C   UNL     1     -12.079  12.232  67.384  1.00  0.00    -0.021 C  
BRANCH   5   6
HETATM    6  C   UNL     1     -11.974  13.694  66.961  1.00  0.00    -0.448 C  
BRANCH   6   7
HETATM    7  C   UNL     1     -12.630  13.910  65.603  1.00  0.00    -0.553 C  
BRANCH   7   8
HETATM    8  C   UNL     1     -11.637  14.511  64.617  1.00  0.00    -0.413 C  
BRANCH   8   9
HETATM    9  C   UNL     1     -10.515  13.525  64.318  1.00  0.00    -0.258 C  
BRANCH   9  10
HETATM   10  C   UNL     1     -11.058  12.300  63.597  1.00  0.00    -0.537 C  
BRANCH  10  11
HETATM   11  C   UNL     1     -10.119  11.115  63.775  1.00  0.00    -0.416 C  
BRANCH  11  12
HETATM   12  C   UNL     1     -10.237  10.548  65.182  1.00  0.00    -0.358 C  
BRANCH  12  13
HETATM   13  C   UNL     1      -8.876  10.514  65.859  1.00  0.00    -0.180 C  
BRANCH  13  14
HETATM   14  C   UNL     1      -8.689  11.737  66.748  1.00  0.00    -0.192 C  
BRANCH  14  15
HETATM   15  C   UNL     1      -7.933  11.365  68.015  1.00  0.00    -0.127 C  
BRANCH  15  16
HETATM   16  C   UNL     1      -7.346   9.965  67.897  1.00  0.00    -0.088 C  
BRANCH  16  17
HETATM   17  C   UNL     1      -7.884   9.061  69.001  1.00  0.00    -0.090 C  
BRANCH  17  18
HETATM   18  C   UNL     1      -8.919   8.091  68.444  1.00  0.00    -0.133 C  
BRANCH  18  19
HETATM   19  C   UNL     1      -9.629   7.349  69.572  1.00  0.00    -0.155 C  
BRANCH  19  20
HETATM   20  C   UNL     1      -8.860   7.495  70.881  1.00  0.00    -0.144 C  
BRANCH  20  21
HETATM   21  C   UNL     1      -9.439   6.586  71.959  1.00  0.00    -0.151 C  
BRANCH  21  22
HETATM   22  C   UNL     1     -10.841   6.118  71.592  1.00  0.00    -0.258 C  
HETATM   23  O   UNL     1     -11.790   6.705  72.472  1.00  0.00    -0.457 OA 
HETATM   24  H   UNL     1     -12.664   6.413  72.244  1.00  0.00     0.000 HD 
ENDBRANCH  21  22
ENDBRANCH  20  21
ENDBRANCH  19  20
ENDBRANCH  18  19
ENDBRANCH  17  18
ENDBRANCH  16  17
ENDBRANCH  15  16
ENDBRANCH  14  15
ENDBRANCH  13  14
ENDBRANCH  12  13
ENDBRANCH  11  12
ENDBRANCH  10  11
ENDBRANCH   9  10
ENDBRANCH   8   9
ENDBRANCH   7   8
ENDBRANCH   6   7
ENDBRANCH   5   6
ENDBRANCH   4   5
ENDBRANCH   3   4
ENDBRANCH   2   3
TORSDOF 20
ENDMDL
MODEL      281
REMARK 921   NORMALIZED FREE ENERGY PREDICTED BY IDOCK:   -3.04 KCAL/MOL
REMARK 922        TOTAL FREE ENERGY PREDICTED BY IDOCK:   -9.46 KCAL/MOL
REMARK 923 INTER-LIGAND FREE ENERGY PREDICTED BY IDOCK:   -6.62 KCAL/MOL
REMARK 924 INTRA-LIGAND FREE ENERGY PREDICTED BY IDOCK:   -2.84 KCAL/MOL
REMARK 927      BINDING AFFINITY PREDICTED BY RF-SCORE:    0.00 PKD
ROOT
HETATM    1  C   UNL     1     -11.798  14.814  66.154  1.00  0.00    -0.203 C  
HETATM    2  C   UNL     1     -12.440  13.741  65.292  1.00  0.00    -0.512 C  
ENDROOT
BRANCH   2   3
HETATM    3  C   UNL     1     -11.395  13.013  64.451  1.00  0.00    -0.397 C  
BRANCH   3   4
HETATM    4  C   UNL     1     -11.185  11.586  64.950  1.00  0.00    -0.242 C  
BRANCH   4   5
HETATM    5  C   UNL     1      -9.789  11.422  65.544  1.00  0.00    -0.271 C  
BRANCH   5   6
HETATM    6  C   UNL     1      -9.208  10.056  65.195  1.00  0.00    -0.273 C  
BRANCH   6   7
HETATM    7  C   UNL     1      -8.962   9.238  66.456  1.00  0.00    -0.178 C  
BRANCH   7   8
HETATM    8  C   UNL     1     -10.139   8.311  66.732  1.00  0.00    -0.373 C  
BRANCH   8   9
HETATM    9  C   UNL     1      -9.709   7.144  67.611  1.00  0.00    -0.172 C  
BRANCH   9  10
HETATM   10  C   UNL     1      -9.302   7.637  68.992  1.00  0.00    -0.146 C  
BRANCH  10  11
HETATM   11  C   UNL     1     -10.513   8.158  69.752  1.00  0.00    -0.227 C  
BRANCH  11  12
HETATM   12  C   UNL     1     -10.170   9.450  70.481  1.00  0.00    -0.332 C  
BRANCH  12  13
HETATM   13  C   UNL     1     -11.252  10.493  70.253  1.00  0.00    -0.391 C  
BRANCH  13  14
HETATM   14  C   UNL     1     -11.432  10.762  68.764  1.00  0.00    -0.364 C  
BRANCH  14  15
HETATM   15  C   UNL     1     -11.867  12.201  68.530  1.00  0.00    -0.365 C  
BRANCH  15  16
HETATM   16  C   UNL     1     -11.236  13.126  69.563  1.00  0.00    -0.151 C  
BRANCH  16  17
HETATM   17  C   UNL     1     -12.197  14.248  69.938  1.00  0.00    -0.407 C  
BRANCH  17  18
HETATM   18  C   UNL     1     -11.534  15.608  69.753  1.00  0.00    -0.346 C  
BRANCH  18  19
HETATM   19  C   UNL     1     -10.041  15.451  69.485  1.00  0.00    -0.278 C  
BRANCH  19  20
HETATM   20  C   UNL     1      -9.494  16.669  68.748  1.00  0.00    -0.258 C  
BRANCH  20  21
HETATM   21  C   UNL     1      -8.698  16.250  67.517  1.00  0.00    -0.192 C  
BRANCH  21  22
HETATM   22  C   UNL     1      -8.333  14.773  67.571  1.00  0.00    -0.183 C  
HETATM   23  O   UNL     1      -7.044  14.575  67.006  1.00  0.00    -0.359 OA 
HETATM   24  H   UNL     1      -6.816  13.653  67.039  1.00  0.00     0.000 HD 
ENDBRANCH  21  22
ENDBRANCH  20  21
ENDBRANCH  19  20
ENDBRANCH  18  19
ENDBRANCH  17  18
ENDBRANCH  16  17
ENDBRANCH  15  16
ENDBRANCH  14  15
ENDBRANCH  13  14
ENDBRANCH  12  13
ENDBRANCH  11  12
ENDBRANCH  10  11
ENDBRANCH   9  10
ENDBRANCH   8   9
ENDBRANCH   7   8
ENDBRANCH   6   7
ENDBRANCH   5   6
ENDBRANCH   4   5
ENDBRANCH   3   4
ENDBRANCH   2   3
TORSDOF 20
ENDMDL
MODEL      282
REMARK 921   NORMALIZED FREE ENERGY PREDICTED BY IDOCK:   -3.04 KCAL/MOL
REMARK 922        TOTAL FREE ENERGY PREDICTED BY IDOCK:   -9.46 KCAL/MOL
REMARK 923 INTER-LIGAND FREE ENERGY PREDICTED BY IDOCK:   -6.57 KCAL/MOL
REMARK 924 INTRA-LIGAND FREE ENERGY PREDICTED BY IDOCK:   -2.89 KCAL/MOL
REMARK 927      BINDING AFFINITY PREDICTED BY RF-SCORE:    0.00 PKD
ROOT
HETATM    1  C   UNL     1     -11.872  12.996  66.172  1.00  0.00    -0.466 C  
HETATM    2  C   UNL     1     -11.938  12.627  67.644  1.00  0.00    -0.309 C  
ENDROOT
BRANCH   2   3
HETATM    3  C   UNL     1     -12.053  13.872  68.519  1.00  0.00    -0.331 C  
BRANCH   3   4
HETATM    4  C   UNL     1     -12.217  13.499  69.989  1.00  0.00    -0.381 C  
BRANCH   4   5
HETATM    5  C   UNL     1     -11.976  12.007  70.198  1.00  0.00    -0.401 C  
BRANCH   5   6
HETATM    6  C   UNL     1     -12.772  11.490  71.392  1.00  0.00    -0.469 C  
BRANCH   6   7
HETATM    7  C   UNL     1     -13.359  10.116  71.094  1.00  0.00    -0.372 C  
BRANCH   7   8
HETATM    8  C   UNL     1     -12.934   9.110  72.156  1.00  0.00    -0.498 C  
BRANCH   8   9
HETATM    9  C   UNL     1     -13.230   7.688  71.697  1.00  0.00    -0.395 C  
BRANCH   9  10
HETATM   10  C   UNL     1     -12.128   6.740  72.149  1.00  0.00    -0.289 C  
BRANCH  10  11
HETATM   11  C   UNL     1     -11.042   6.640  71.087  1.00  0.00    -0.326 C  
BRANCH  11  12
HETATM   12  C   UNL     1      -9.819   7.449  71.497  1.00  0.00    -0.185 C  
BRANCH  12  13
HETATM   13  C   UNL     1      -9.009   7.847  70.273  1.00  0.00    -0.151 C  
BRANCH  13  14
HETATM   14  C   UNL     1      -9.103   9.348  70.034  1.00  0.00    -0.244 C  
BRANCH  14  15
HETATM   15  C   UNL     1      -9.206   9.646  68.545  1.00  0.00    -0.137 C  
BRANCH  15  16
HETATM   16  C   UNL     1     -10.608   9.343  68.034  1.00  0.00    -0.278 C  
BRANCH  16  17
HETATM   17  C   UNL     1     -10.588   8.154  67.080  1.00  0.00    -0.355 C  
BRANCH  17  18
HETATM   18  C   UNL     1      -9.168   7.868  66.608  1.00  0.00    -0.221 C  
BRANCH  18  19
HETATM   19  C   UNL     1      -8.870   6.374  66.657  1.00  0.00    -0.132 C  
BRANCH  19  20
HETATM   20  C   UNL     1     -10.008   5.619  67.337  1.00  0.00    -0.180 C  
BRANCH  20  21
HETATM   21  C   UNL     1      -9.475   4.451  68.158  1.00  0.00    -0.207 C  
BRANCH  21  22
HETATM   22  C   UNL     1      -9.075   3.285  67.264  1.00  0.00    -0.174 C  
HETATM   23  O   UNL     1      -7.682   3.032  67.398  1.00  0.00    -0.072 OA 
HETATM   24  H   UNL     1      -7.433   2.304  66.841  1.00  0.00     0.000 HD 
ENDBRANCH  21  22
ENDBRANCH  20  21
ENDBRANCH  19  20
ENDBRANCH  18  19
ENDBRANCH  17  18
ENDBRANCH  16  17
ENDBRANCH  15  16
ENDBRANCH  14  15
ENDBRANCH  13  14
ENDBRANCH  12  13
ENDBRANCH  11  12
ENDBRANCH  10  11
ENDBRANCH   9  10
ENDBRANCH   8   9
ENDBRANCH   7   8
ENDBRANCH   6   7
ENDBRANCH   5   6
ENDBRANCH   4   5
ENDBRANCH   3   4
ENDBRANCH   2   3
TORSDOF 20
ENDMDL
MODEL      283
REMARK 921   NORMALIZED FREE ENERGY PREDICTED BY IDOCK:   -3.03 KCAL/MOL
REMARK 922        TOTAL FREE ENERGY PREDICTED BY IDOCK:   -9.45 KCAL/MOL
REMARK 923 INTER-LIGAND FREE ENERGY PREDICTED BY IDOCK:   -7.48 KCAL/MOL
REMARK 924 INTRA-LIGAND FREE ENERGY PREDICTED BY IDOCK:   -1.97 KCAL/MOL
REMARK 927      BINDING AFFINITY PREDICTED BY RF-SCORE:    0.00 PKD
ROOT
HETATM    1  C   UNL     1      -5.863  20.827  64.618  1.00  0.00    -0.293 C  
HETATM    2  C   UNL     1      -5.348  19.472  65.072  1.00  0.00    -0.194 C  
ENDROOT
BRANCH   2   3
HETATM    3  C   UNL     1      -6.498  18.551  65.468  1.00  0.00    -0.309 C  
BRANCH   3   4
HETATM    4  C   UNL     1      -6.628  18.455  66.986  1.00  0.00    -0.202 C  
BRANCH   4   5
HETATM    5  C   UNL     1      -7.965  17.832  67.375  1.00  0.00    -0.221 C  
BRANCH   5   6
HETATM    6  C   UNL     1      -9.127  18.703  66.908  1.00  0.00    -0.295 C  
BRANCH   6   7
HETATM    7  C   UNL     1     -10.327  17.843  66.532  1.00  0.00    -0.362 C  
BRANCH   7   8
HETATM    8  C   UNL     1      -9.883  16.615  65.750  1.00  0.00    -0.241 C  
BRANCH   8   9
HETATM    9  C   UNL     1     -11.089  15.821  65.267  1.00  0.00    -0.280 C  
BRANCH   9  10
HETATM   10  C   UNL     1     -11.077  14.418  65.857  1.00  0.00    -0.319 C  
BRANCH  10  11
HETATM   11  C   UNL     1     -12.468  13.802  65.800  1.00  0.00    -0.527 C  
BRANCH  11  12
HETATM   12  C   UNL     1     -12.449  12.516  64.986  1.00  0.00    -0.494 C  
BRANCH  12  13
HETATM   13  C   UNL     1     -11.641  12.704  63.712  1.00  0.00    -0.550 C  
BRANCH  13  14
HETATM   14  C   UNL     1     -10.427  11.784  63.707  1.00  0.00    -0.466 C  
BRANCH  14  15
HETATM   15  C   UNL     1     -10.582  10.692  64.755  1.00  0.00    -0.184 C  
BRANCH  15  16
HETATM   16  C   UNL     1      -9.253  10.426  65.452  1.00  0.00    -0.233 C  
BRANCH  16  17
HETATM   17  C   UNL     1      -8.852  11.616  66.315  1.00  0.00    -0.164 C  
BRANCH  17  18
HETATM   18  C   UNL     1      -9.118  11.326  67.787  1.00  0.00    -0.152 C  
BRANCH  18  19
HETATM   19  C   UNL     1     -10.499  11.825  68.197  1.00  0.00    -0.221 C  
BRANCH  19  20
HETATM   20  C   UNL     1     -11.128  10.891  69.226  1.00  0.00    -0.305 C  
BRANCH  20  21
HETATM   21  C   UNL     1     -11.826  11.681  70.326  1.00  0.00    -0.414 C  
BRANCH  21  22
HETATM   22  C   UNL     1     -12.784  10.799  71.117  1.00  0.00    -0.431 C  
HETATM   23  O   UNL     1     -13.308  11.526  72.221  1.00  0.00    -0.624 OA 
HETATM   24  H   UNL     1     -13.905  10.976  72.714  1.00  0.00     0.000 HD 
ENDBRANCH  21  22
ENDBRANCH  20  21
ENDBRANCH  19  20
ENDBRANCH  18  19
ENDBRANCH  17  18
ENDBRANCH  16  17
ENDBRANCH  15  16
ENDBRANCH  14  15
ENDBRANCH  13  14
ENDBRANCH  12  13
ENDBRANCH  11  12
ENDBRANCH  10  11
ENDBRANCH   9  10
ENDBRANCH   8   9
ENDBRANCH   7   8
ENDBRANCH   6   7
ENDBRANCH   5   6
ENDBRANCH   4   5
ENDBRANCH   3   4
ENDBRANCH   2   3
TORSDOF 20
ENDMDL
MODEL      284
REMARK 921   NORMALIZED FREE ENERGY PREDICTED BY IDOCK:   -3.03 KCAL/MOL
REMARK 922        TOTAL FREE ENERGY PREDICTED BY IDOCK:   -9.45 KCAL/MOL
REMARK 923 INTER-LIGAND FREE ENERGY PREDICTED BY IDOCK:   -6.99 KCAL/MOL
REMARK 924 INTRA-LIGAND FREE ENERGY PREDICTED BY IDOCK:   -2.45 KCAL/MOL
REMARK 927      BINDING AFFINITY PREDICTED BY RF-SCORE:    0.00 PKD
ROOT
HETATM    1  C   UNL     1      -7.710  20.118  66.081  1.00  0.00    -0.280 C  
HETATM    2  C   UNL     1      -9.188  19.768  66.092  1.00  0.00    -0.418 C  
ENDROOT
BRANCH   2   3
HETATM    3  C   UNL     1      -9.875  20.320  67.338  1.00  0.00    -0.586 C  
BRANCH   3   4
HETATM    4  C   UNL     1     -10.095  19.224  68.376  1.00  0.00    -0.518 C  
BRANCH   4   5
HETATM    5  C   UNL     1     -10.419  17.896  67.698  1.00  0.00    -0.406 C  
BRANCH   5   6
HETATM    6  C   UNL     1      -9.545  16.776  68.254  1.00  0.00    -0.244 C  
BRANCH   6   7
HETATM    7  C   UNL     1      -8.102  17.241  68.400  1.00  0.00    -0.259 C  
BRANCH   7   8
HETATM    8  C   UNL     1      -7.192  16.475  67.449  1.00  0.00    -0.178 C  
BRANCH   8   9
HETATM    9  C   UNL     1      -6.249  15.566  68.225  1.00  0.00    -0.123 C  
BRANCH   9  10
HETATM   10  C   UNL     1      -6.384  14.125  67.752  1.00  0.00    -0.169 C  
BRANCH  10  11
HETATM   11  C   UNL     1      -6.809  13.223  68.902  1.00  0.00    -0.103 C  
BRANCH  11  12
HETATM   12  C   UNL     1      -7.716  12.109  68.399  1.00  0.00    -0.134 C  
BRANCH  12  13
HETATM   13  C   UNL     1      -7.729  10.948  69.381  1.00  0.00    -0.072 C  
BRANCH  13  14
HETATM   14  C   UNL     1      -8.802   9.937  69.001  1.00  0.00    -0.156 C  
BRANCH  14  15
HETATM   15  C   UNL     1      -9.921  10.613  68.223  1.00  0.00    -0.173 C  
BRANCH  15  16
HETATM   16  C   UNL     1     -11.208  10.624  69.036  1.00  0.00    -0.324 C  
BRANCH  16  17
HETATM   17  C   UNL     1     -11.607  12.052  69.392  1.00  0.00    -0.393 C  
BRANCH  17  18
HETATM   18  C   UNL     1     -10.976  13.043  68.422  1.00  0.00    -0.288 C  
BRANCH  18  19
HETATM   19  C   UNL     1     -12.020  13.603  67.462  1.00  0.00    -0.393 C  
BRANCH  19  20
HETATM   20  C   UNL     1     -11.351  14.349  66.313  1.00  0.00    -0.350 C  
BRANCH  20  21
HETATM   21  C   UNL     1     -10.780  13.376  65.288  1.00  0.00    -0.321 C  
BRANCH  21  22
HETATM   22  C   UNL     1     -11.887  12.700  64.491  1.00  0.00    -0.379 C  
HETATM   23  O   UNL     1     -12.542  13.658  63.669  1.00  0.00    -0.728 OA 
HETATM   24  H   UNL     1     -13.233  13.235  63.172  1.00  0.00     0.000 HD 
ENDBRANCH  21  22
ENDBRANCH  20  21
ENDBRANCH  19  20
ENDBRANCH  18  19
ENDBRANCH  17  18
ENDBRANCH  16  17
ENDBRANCH  15  16
ENDBRANCH  14  15
ENDBRANCH  13  14
ENDBRANCH  12  13
ENDBRANCH  11  12
ENDBRANCH  10  11
ENDBRANCH   9  10
ENDBRANCH   8   9
ENDBRANCH   7   8
ENDBRANCH   6   7
ENDBRANCH   5   6
ENDBRANCH   4   5
ENDBRANCH   3   4
ENDBRANCH   2   3
TORSDOF 20
ENDMDL
MODEL      285
REMARK 921   NORMALIZED FREE ENERGY PREDICTED BY IDOCK:   -3.03 KCAL/MOL
REMARK 922        TOTAL FREE ENERGY PREDICTED BY IDOCK:   -9.44 KCAL/MOL
REMARK 923 INTER-LIGAND FREE ENERGY PREDICTED BY IDOCK:   -7.39 KCAL/MOL
REMARK 924 INTRA-LIGAND FREE ENERGY PREDICTED BY IDOCK:   -2.04 KCAL/MOL
REMARK 927      BINDING AFFINITY PREDICTED BY RF-SCORE:    0.00 PKD
ROOT
HETATM    1  C   UNL     1      -6.810  16.524  67.219  1.00  0.00    -0.212 C  
HETATM    2  C   UNL     1      -7.833  17.084  66.245  1.00  0.00    -0.346 C  
ENDROOT
BRANCH   2   3
HETATM    3  C   UNL     1      -9.021  16.138  66.094  1.00  0.00    -0.372 C  
BRANCH   3   4
HETATM    4  C   UNL     1     -10.268  16.709  66.764  1.00  0.00    -0.301 C  
BRANCH   4   5
HETATM    5  C   UNL     1     -10.917  15.670  67.673  1.00  0.00    -0.315 C  
BRANCH   5   6
HETATM    6  C   UNL     1     -10.805  14.274  67.068  1.00  0.00    -0.297 C  
BRANCH   6   7
HETATM    7  C   UNL     1     -12.184  13.649  66.901  1.00  0.00    -0.398 C  
BRANCH   7   8
HETATM    8  C   UNL     1     -12.816  14.086  65.586  1.00  0.00    -0.442 C  
BRANCH   8   9
HETATM    9  C   UNL     1     -11.802  14.005  64.452  1.00  0.00    -0.453 C  
BRANCH   9  10
HETATM   10  C   UNL     1     -12.199  12.923  63.457  1.00  0.00    -0.595 C  
BRANCH  10  11
HETATM   11  C   UNL     1     -11.308  11.699  63.615  1.00  0.00    -0.485 C  
BRANCH  11  12
HETATM   12  C   UNL     1      -9.990  12.081  64.276  1.00  0.00    -0.266 C  
BRANCH  12  13
HETATM   13  C   UNL     1      -9.606  11.053  65.328  1.00  0.00    -0.270 C  
BRANCH  13  14
HETATM   14  C   UNL     1      -9.061   9.791  64.671  1.00  0.00    -0.294 C  
BRANCH  14  15
HETATM   15  C   UNL     1      -9.101   8.623  65.645  1.00  0.00    -0.221 C  
BRANCH  15  16
HETATM   16  C   UNL     1     -10.205   8.821  66.675  1.00  0.00    -0.340 C  
BRANCH  16  17
HETATM   17  C   UNL     1     -10.744   7.477  67.151  1.00  0.00    -0.379 C  
BRANCH  17  18
HETATM   18  C   UNL     1      -9.637   6.653  67.797  1.00  0.00    -0.129 C  
BRANCH  18  19
HETATM   19  C   UNL     1     -10.222   5.555  68.679  1.00  0.00    -0.261 C  
BRANCH  19  20
HETATM   20  C   UNL     1     -11.085   6.154  69.784  1.00  0.00    -0.486 C  
BRANCH  20  21
HETATM   21  C   UNL     1     -10.228   6.874  70.818  1.00  0.00    -0.212 C  
BRANCH  21  22
HETATM   22  C   UNL     1     -10.188   6.109  72.134  1.00  0.00    -0.186 C  
HETATM   23  O   UNL     1      -9.214   5.076  72.060  1.00  0.00    -0.134 OA 
HETATM   24  H   UNL     1      -9.189   4.598  72.881  1.00  0.00     0.000 HD 
ENDBRANCH  21  22
ENDBRANCH  20  21
ENDBRANCH  19  20
ENDBRANCH  18  19
ENDBRANCH  17  18
ENDBRANCH  16  17
ENDBRANCH  15  16
ENDBRANCH  14  15
ENDBRANCH  13  14
ENDBRANCH  12  13
ENDBRANCH  11  12
ENDBRANCH  10  11
ENDBRANCH   9  10
ENDBRANCH   8   9
ENDBRANCH   7   8
ENDBRANCH   6   7
ENDBRANCH   5   6
ENDBRANCH   4   5
ENDBRANCH   3   4
ENDBRANCH   2   3
TORSDOF 20
ENDMDL
MODEL      286
REMARK 921   NORMALIZED FREE ENERGY PREDICTED BY IDOCK:   -3.02 KCAL/MOL
REMARK 922        TOTAL FREE ENERGY PREDICTED BY IDOCK:   -9.43 KCAL/MOL
REMARK 923 INTER-LIGAND FREE ENERGY PREDICTED BY IDOCK:   -7.22 KCAL/MOL
REMARK 924 INTRA-LIGAND FREE ENERGY PREDICTED BY IDOCK:   -2.21 KCAL/MOL
REMARK 927      BINDING AFFINITY PREDICTED BY RF-SCORE:    0.00 PKD
ROOT
HETATM    1  C   UNL     1      -9.245   3.372  66.422  1.00  0.00    -0.174 C  
HETATM    2  C   UNL     1      -9.892   4.466  65.591  1.00  0.00    -0.229 C  
ENDROOT
BRANCH   2   3
HETATM    3  C   UNL     1      -9.683   5.837  66.227  1.00  0.00    -0.148 C  
BRANCH   3   4
HETATM    4  C   UNL     1     -10.963   6.338  66.890  1.00  0.00    -0.404 C  
BRANCH   4   5
HETATM    5  C   UNL     1     -10.648   7.393  67.945  1.00  0.00    -0.255 C  
BRANCH   5   6
HETATM    6  C   UNL     1      -9.145   7.484  68.190  1.00  0.00    -0.128 C  
BRANCH   6   7
HETATM    7  C   UNL     1      -8.741   8.914  68.529  1.00  0.00    -0.134 C  
BRANCH   7   8
HETATM    8  C   UNL     1      -9.955   9.833  68.509  1.00  0.00    -0.177 C  
BRANCH   8   9
HETATM    9  C   UNL     1      -9.684  11.060  67.647  1.00  0.00    -0.184 C  
BRANCH   9  10
HETATM   10  C   UNL     1      -9.041  10.655  66.328  1.00  0.00    -0.186 C  
BRANCH  10  11
HETATM   11  C   UNL     1     -10.089  10.109  65.369  1.00  0.00    -0.342 C  
BRANCH  11  12
HETATM   12  C   UNL     1      -9.696  10.399  63.927  1.00  0.00    -0.367 C  
BRANCH  12  13
HETATM   13  C   UNL     1     -10.205  11.768  63.502  1.00  0.00    -0.483 C  
BRANCH  13  14
HETATM   14  C   UNL     1     -11.660  11.950  63.916  1.00  0.00    -0.515 C  
BRANCH  14  15
HETATM   15  C   UNL     1     -11.808  13.162  64.824  1.00  0.00    -0.413 C  
BRANCH  15  16
HETATM   16  C   UNL     1     -10.566  14.041  64.751  1.00  0.00    -0.441 C  
BRANCH  16  17
HETATM   17  C   UNL     1     -10.029  14.330  66.148  1.00  0.00    -0.330 C  
BRANCH  17  18
HETATM   18  C   UNL     1     -10.905  15.356  66.859  1.00  0.00    -0.313 C  
BRANCH  18  19
HETATM   19  C   UNL     1     -10.253  16.734  66.835  1.00  0.00    -0.290 C  
BRANCH  19  20
HETATM   20  C   UNL     1     -10.546  17.491  68.126  1.00  0.00    -0.366 C  
BRANCH  20  21
HETATM   21  C   UNL     1      -9.535  18.610  68.345  1.00  0.00    -0.377 C  
BRANCH  21  22
HETATM   22  C   UNL     1     -10.123  19.967  67.981  1.00  0.00    -0.440 C  
HETATM   23  O   UNL     1      -9.210  20.684  67.161  1.00  0.00    -0.525 OA 
HETATM   24  H   UNL     1      -9.577  21.530  66.934  1.00  0.00     0.000 HD 
ENDBRANCH  21  22
ENDBRANCH  20  21
ENDBRANCH  19  20
ENDBRANCH  18  19
ENDBRANCH  17  18
ENDBRANCH  16  17
ENDBRANCH  15  16
ENDBRANCH  14  15
ENDBRANCH  13  14
ENDBRANCH  12  13
ENDBRANCH  11  12
ENDBRANCH  10  11
ENDBRANCH   9  10
ENDBRANCH   8   9
ENDBRANCH   7   8
ENDBRANCH   6   7
ENDBRANCH   5   6
ENDBRANCH   4   5
ENDBRANCH   3   4
ENDBRANCH   2   3
TORSDOF 20
ENDMDL
MODEL      287
REMARK 921   NORMALIZED FREE ENERGY PREDICTED BY IDOCK:   -3.02 KCAL/MOL
REMARK 922        TOTAL FREE ENERGY PREDICTED BY IDOCK:   -9.42 KCAL/MOL
REMARK 923 INTER-LIGAND FREE ENERGY PREDICTED BY IDOCK:   -6.83 KCAL/MOL
REMARK 924 INTRA-LIGAND FREE ENERGY PREDICTED BY IDOCK:   -2.59 KCAL/MOL
REMARK 927      BINDING AFFINITY PREDICTED BY RF-SCORE:    0.00 PKD
ROOT
HETATM    1  C   UNL     1     -12.754  10.914  71.034  1.00  0.00    -0.505 C  
HETATM    2  C   UNL     1     -13.123   9.836  72.039  1.00  0.00    -0.546 C  
ENDROOT
BRANCH   2   3
HETATM    3  C   UNL     1     -12.012   8.797  72.163  1.00  0.00    -0.436 C  
BRANCH   3   4
HETATM    4  C   UNL     1     -10.832   9.143  71.259  1.00  0.00    -0.402 C  
BRANCH   4   5
HETATM    5  C   UNL     1      -9.587   8.365  71.675  1.00  0.00    -0.288 C  
BRANCH   5   6
HETATM    6  C   UNL     1      -8.998   7.608  70.489  1.00  0.00    -0.151 C  
BRANCH   6   7
HETATM    7  C   UNL     1      -9.943   7.661  69.295  1.00  0.00    -0.180 C  
BRANCH   7   8
HETATM    8  C   UNL     1      -9.596   6.572  68.288  1.00  0.00    -0.131 C  
BRANCH   8   9
HETATM    9  C   UNL     1      -8.266   6.872  67.609  1.00  0.00    -0.117 C  
BRANCH   9  10
HETATM   10  C   UNL     1      -8.336   6.538  66.126  1.00  0.00    -0.129 C  
BRANCH  10  11
HETATM   11  C   UNL     1      -7.765   7.679  65.295  1.00  0.00    -0.110 C  
BRANCH  11  12
HETATM   12  C   UNL     1      -8.673   8.898  65.366  1.00  0.00    -0.224 C  
BRANCH  12  13
HETATM   13  C   UNL     1      -7.848  10.175  65.401  1.00  0.00    -0.142 C  
BRANCH  13  14
HETATM   14  C   UNL     1      -7.916  10.820  66.779  1.00  0.00    -0.138 C  
BRANCH  14  15
HETATM   15  C   UNL     1      -9.271  10.563  67.422  1.00  0.00    -0.154 C  
BRANCH  15  16
HETATM   16  C   UNL     1      -9.402  11.341  68.725  1.00  0.00    -0.136 C  
BRANCH  16  17
HETATM   17  C   UNL     1     -10.468  12.424  68.601  1.00  0.00    -0.224 C  
BRANCH  17  18
HETATM   18  C   UNL     1     -10.021  13.508  67.628  1.00  0.00    -0.229 C  
BRANCH  18  19
HETATM   19  C   UNL     1     -11.159  13.895  66.689  1.00  0.00    -0.310 C  
BRANCH  19  20
HETATM   20  C   UNL     1     -12.019  12.681  66.353  1.00  0.00    -0.425 C  
BRANCH  20  21
HETATM   21  C   UNL     1     -12.780  12.894  65.051  1.00  0.00    -0.474 C  
BRANCH  21  22
HETATM   22  C   UNL     1     -11.861  12.758  63.844  1.00  0.00    -0.468 C  
HETATM   23  O   UNL     1     -12.335  11.722  62.993  1.00  0.00    -0.913 OA 
HETATM   24  H   UNL     1     -11.761  11.637  62.240  1.00  0.00     0.000 HD 
ENDBRANCH  21  22
ENDBRANCH  20  21
ENDBRANCH  19  20
ENDBRANCH  18  19
ENDBRANCH  17  18
ENDBRANCH  16  17
ENDBRANCH  15  16
ENDBRANCH  14  15
ENDBRANCH  13  14
ENDBRANCH  12  13
ENDBRANCH  11  12
ENDBRANCH  10  11
ENDBRANCH   9  10
ENDBRANCH   8   9
ENDBRANCH   7   8
ENDBRANCH   6   7
ENDBRANCH   5   6
ENDBRANCH   4   5
ENDBRANCH   3   4
ENDBRANCH   2   3
TORSDOF 20
ENDMDL
MODEL      288
REMARK 921   NORMALIZED FREE ENERGY PREDICTED BY IDOCK:   -3.01 KCAL/MOL
REMARK 922        TOTAL FREE ENERGY PREDICTED BY IDOCK:   -9.40 KCAL/MOL
REMARK 923 INTER-LIGAND FREE ENERGY PREDICTED BY IDOCK:   -6.35 KCAL/MOL
REMARK 924 INTRA-LIGAND FREE ENERGY PREDICTED BY IDOCK:   -3.06 KCAL/MOL
REMARK 927      BINDING AFFINITY PREDICTED BY RF-SCORE:    0.00 PKD
ROOT
HETATM    1  C   UNL     1      -7.143   6.187  72.070  1.00  0.00    -0.083 C  
HETATM    2  C   UNL     1      -7.121   7.267  71.001  1.00  0.00    -0.064 C  
ENDROOT
BRANCH   2   3
HETATM    3  C   UNL     1      -7.424   8.637  71.599  1.00  0.00    -0.121 C  
BRANCH   3   4
HETATM    4  C   UNL     1      -7.879   9.619  70.523  1.00  0.00    -0.150 C  
BRANCH   4   5
HETATM    5  C   UNL     1      -7.968   8.928  69.165  1.00  0.00    -0.105 C  
BRANCH   5   6
HETATM    6  C   UNL     1      -8.158   9.949  68.048  1.00  0.00    -0.108 C  
BRANCH   6   7
HETATM    7  C   UNL     1      -7.624  11.312  68.469  1.00  0.00    -0.123 C  
BRANCH   7   8
HETATM    8  C   UNL     1      -8.213  12.412  67.594  1.00  0.00    -0.169 C  
BRANCH   8   9
HETATM    9  C   UNL     1      -8.928  11.814  66.390  1.00  0.00    -0.201 C  
BRANCH   9  10
HETATM   10  C   UNL     1      -9.993  12.770  65.872  1.00  0.00    -0.273 C  
BRANCH  10  11
HETATM   11  C   UNL     1     -10.144  13.960  66.810  1.00  0.00    -0.265 C  
BRANCH  11  12
HETATM   12  C   UNL     1     -11.561  14.029  67.361  1.00  0.00    -0.397 C  
BRANCH  12  13
HETATM   13  C   UNL     1     -12.016  12.657  67.833  1.00  0.00    -0.307 C  
BRANCH  13  14
HETATM   14  C   UNL     1     -11.467  12.359  69.222  1.00  0.00    -0.349 C  
BRANCH  14  15
HETATM   15  C   UNL     1     -11.447  10.859  69.478  1.00  0.00    -0.372 C  
BRANCH  15  16
HETATM   16  C   UNL     1     -12.027  10.543  70.851  1.00  0.00    -0.481 C  
BRANCH  16  17
HETATM   17  C   UNL     1     -11.374   9.297  71.437  1.00  0.00    -0.434 C  
BRANCH  17  18
HETATM   18  C   UNL     1     -12.411   8.423  72.132  1.00  0.00    -0.422 C  
BRANCH  18  19
HETATM   19  C   UNL     1     -12.488   7.048  71.477  1.00  0.00    -0.426 C  
BRANCH  19  20
HETATM   20  C   UNL     1     -11.168   6.698  70.799  1.00  0.00    -0.366 C  
BRANCH  20  21
HETATM   21  C   UNL     1     -11.407   6.008  69.461  1.00  0.00    -0.306 C  
BRANCH  21  22
HETATM   22  C   UNL     1     -10.811   6.810  68.311  1.00  0.00    -0.226 C  
HETATM   23  O   UNL     1     -11.303   6.313  67.073  1.00  0.00    -0.602 OA 
HETATM   24  H   UNL     1     -10.931   6.813  66.356  1.00  0.00     0.000 HD 
ENDBRANCH  21  22
ENDBRANCH  20  21
ENDBRANCH  19  20
ENDBRANCH  18  19
ENDBRANCH  17  18
ENDBRANCH  16  17
ENDBRANCH  15  16
ENDBRANCH  14  15
ENDBRANCH  13  14
ENDBRANCH  12  13
ENDBRANCH  11  12
ENDBRANCH  10  11
ENDBRANCH   9  10
ENDBRANCH   8   9
ENDBRANCH   7   8
ENDBRANCH   6   7
ENDBRANCH   5   6
ENDBRANCH   4   5
ENDBRANCH   3   4
ENDBRANCH   2   3
TORSDOF 20
ENDMDL
MODEL      289
REMARK 921   NORMALIZED FREE ENERGY PREDICTED BY IDOCK:   -3.01 KCAL/MOL
REMARK 922        TOTAL FREE ENERGY PREDICTED BY IDOCK:   -9.40 KCAL/MOL
REMARK 923 INTER-LIGAND FREE ENERGY PREDICTED BY IDOCK:   -6.40 KCAL/MOL
REMARK 924 INTRA-LIGAND FREE ENERGY PREDICTED BY IDOCK:   -3.01 KCAL/MOL
REMARK 927      BINDING AFFINITY PREDICTED BY RF-SCORE:    0.00 PKD
ROOT
HETATM    1  C   UNL     1     -11.905  15.754  69.426  1.00  0.00    -0.361 C  
HETATM    2  C   UNL     1     -11.441  15.267  68.064  1.00  0.00    -0.351 C  
ENDROOT
BRANCH   2   3
HETATM    3  C   UNL     1     -11.222  13.757  68.065  1.00  0.00    -0.293 C  
BRANCH   3   4
HETATM    4  C   UNL     1     -12.113  13.071  67.034  1.00  0.00    -0.330 C  
BRANCH   4   5
HETATM    5  C   UNL     1     -12.192  13.897  65.754  1.00  0.00    -0.488 C  
BRANCH   5   6
HETATM    6  C   UNL     1     -11.084  13.503  64.783  1.00  0.00    -0.368 C  
BRANCH   6   7
HETATM    7  C   UNL     1     -11.648  12.695  63.622  1.00  0.00    -0.575 C  
BRANCH   7   8
HETATM    8  C   UNL     1     -10.905  11.373  63.476  1.00  0.00    -0.430 C  
BRANCH   8   9
HETATM    9  C   UNL     1      -9.864  11.219  64.577  1.00  0.00    -0.317 C  
BRANCH   9  10
HETATM   10  C   UNL     1      -9.458   9.760  64.729  1.00  0.00    -0.318 C  
BRANCH  10  11
HETATM   11  C   UNL     1      -7.981   9.581  64.403  1.00  0.00    -0.135 C  
BRANCH  11  12
HETATM   12  C   UNL     1      -7.200   9.214  65.657  1.00  0.00    -0.082 C  
BRANCH  12  13
HETATM   13  C   UNL     1      -6.221  10.320  66.018  1.00  0.00    -0.097 C  
BRANCH  13  14
HETATM   14  C   UNL     1      -6.774  11.176  67.150  1.00  0.00    -0.106 C  
BRANCH  14  15
HETATM   15  C   UNL     1      -7.647  10.340  68.074  1.00  0.00    -0.088 C  
BRANCH  15  16
HETATM   16  C   UNL     1      -8.849  11.145  68.550  1.00  0.00    -0.161 C  
BRANCH  16  17
HETATM   17  C   UNL     1      -9.862  10.242  69.242  1.00  0.00    -0.244 C  
BRANCH  17  18
HETATM   18  C   UNL     1     -10.644   9.427  68.218  1.00  0.00    -0.256 C  
BRANCH  18  19
HETATM   19  C   UNL     1     -10.365   7.937  68.384  1.00  0.00    -0.235 C  
BRANCH  19  20
HETATM   20  C   UNL     1     -10.717   7.178  67.109  1.00  0.00    -0.422 C  
BRANCH  20  21
HETATM   21  C   UNL     1      -9.489   6.488  66.527  1.00  0.00    -0.190 C  
BRANCH  21  22
HETATM   22  C   UNL     1      -9.431   5.023  66.937  1.00  0.00    -0.142 C  
HETATM   23  O   UNL     1     -10.333   4.264  66.143  1.00  0.00    -0.404 OA 
HETATM   24  H   UNL     1     -10.297   3.350  66.399  1.00  0.00     0.000 HD 
ENDBRANCH  21  22
ENDBRANCH  20  21
ENDBRANCH  19  20
ENDBRANCH  18  19
ENDBRANCH  17  18
ENDBRANCH  16  17
ENDBRANCH  15  16
ENDBRANCH  14  15
ENDBRANCH  13  14
ENDBRANCH  12  13
ENDBRANCH  11  12
ENDBRANCH  10  11
ENDBRANCH   9  10
ENDBRANCH   8   9
ENDBRANCH   7   8
ENDBRANCH   6   7
ENDBRANCH   5   6
ENDBRANCH   4   5
ENDBRANCH   3   4
ENDBRANCH   2   3
TORSDOF 20
ENDMDL
MODEL      290
REMARK 921   NORMALIZED FREE ENERGY PREDICTED BY IDOCK:   -3.01 KCAL/MOL
REMARK 922        TOTAL FREE ENERGY PREDICTED BY IDOCK:   -9.39 KCAL/MOL
REMARK 923 INTER-LIGAND FREE ENERGY PREDICTED BY IDOCK:   -7.12 KCAL/MOL
REMARK 924 INTRA-LIGAND FREE ENERGY PREDICTED BY IDOCK:   -2.28 KCAL/MOL
REMARK 927      BINDING AFFINITY PREDICTED BY RF-SCORE:    0.00 PKD
ROOT
HETATM    1  C   UNL     1      -9.367  20.906  67.100  1.00  0.00    -0.310 C  
HETATM    2  C   UNL     1      -9.340  19.568  66.381  1.00  0.00    -0.443 C  
ENDROOT
BRANCH   2   3
HETATM    3  C   UNL     1     -10.554  18.721  66.750  1.00  0.00    -0.458 C  
BRANCH   3   4
HETATM    4  C   UNL     1     -10.132  17.415  67.418  1.00  0.00    -0.321 C  
BRANCH   4   5
HETATM    5  C   UNL     1      -8.690  17.068  67.061  1.00  0.00    -0.240 C  
BRANCH   5   6
HETATM    6  C   UNL     1      -8.627  15.782  66.244  1.00  0.00    -0.307 C  
BRANCH   6   7
HETATM    7  C   UNL     1     -10.028  15.320  65.859  1.00  0.00    -0.368 C  
BRANCH   7   8
HETATM    8  C   UNL     1     -10.240  13.865  66.253  1.00  0.00    -0.299 C  
BRANCH   8   9
HETATM    9  C   UNL     1      -9.731  13.612  67.666  1.00  0.00    -0.228 C  
BRANCH   9  10
HETATM   10  C   UNL     1     -10.870  13.709  68.671  1.00  0.00    -0.283 C  
BRANCH  10  11
HETATM   11  C   UNL     1     -12.019  12.796  68.264  1.00  0.00    -0.276 C  
BRANCH  11  12
HETATM   12  C   UNL     1     -12.006  11.520  69.095  1.00  0.00    -0.386 C  
BRANCH  12  13
HETATM   13  C   UNL     1     -11.911  11.850  70.576  1.00  0.00    -0.360 C  
BRANCH  13  14
HETATM   14  C   UNL     1     -12.132  10.600  71.418  1.00  0.00    -0.342 C  
BRANCH  14  15
HETATM   15  C   UNL     1     -11.643   9.365  70.678  1.00  0.00    -0.330 C  
BRANCH  15  16
HETATM   16  C   UNL     1     -10.192   9.067  71.032  1.00  0.00    -0.347 C  
BRANCH  16  17
HETATM   17  C   UNL     1      -9.300   9.198  69.803  1.00  0.00    -0.190 C  
BRANCH  17  18
HETATM   18  C   UNL     1      -9.411   7.959  68.923  1.00  0.00    -0.150 C  
BRANCH  18  19
HETATM   19  C   UNL     1     -10.199   8.263  67.654  1.00  0.00    -0.294 C  
BRANCH  19  20
HETATM   20  C   UNL     1      -9.290   8.862  66.585  1.00  0.00    -0.237 C  
BRANCH  20  21
HETATM   21  C   UNL     1      -9.920  10.103  65.965  1.00  0.00    -0.322 C  
BRANCH  21  22
HETATM   22  C   UNL     1      -9.578  10.215  64.485  1.00  0.00    -0.311 C  
HETATM   23  O   UNL     1     -10.339  11.261  63.893  1.00  0.00    -0.316 OA 
HETATM   24  H   UNL     1     -10.125  11.331  62.970  1.00  0.00     0.000 HD 
ENDBRANCH  21  22
ENDBRANCH  20  21
ENDBRANCH  19  20
ENDBRANCH  18  19
ENDBRANCH  17  18
ENDBRANCH  16  17
ENDBRANCH  15  16
ENDBRANCH  14  15
ENDBRANCH  13  14
ENDBRANCH  12  13
ENDBRANCH  11  12
ENDBRANCH  10  11
ENDBRANCH   9  10
ENDBRANCH   8   9
ENDBRANCH   7   8
ENDBRANCH   6   7
ENDBRANCH   5   6
ENDBRANCH   4   5
ENDBRANCH   3   4
ENDBRANCH   2   3
TORSDOF 20
ENDMDL
MODEL      291
REMARK 921   NORMALIZED FREE ENERGY PREDICTED BY IDOCK:   -3.01 KCAL/MOL
REMARK 922        TOTAL FREE ENERGY PREDICTED BY IDOCK:   -9.39 KCAL/MOL
REMARK 923 INTER-LIGAND FREE ENERGY PREDICTED BY IDOCK:   -7.14 KCAL/MOL
REMARK 924 INTRA-LIGAND FREE ENERGY PREDICTED BY IDOCK:   -2.25 KCAL/MOL
REMARK 927      BINDING AFFINITY PREDICTED BY RF-SCORE:    0.00 PKD
ROOT
HETATM    1  C   UNL     1     -12.946  10.287  71.518  1.00  0.00    -0.556 C  
HETATM    2  C   UNL     1     -12.205   9.009  71.873  1.00  0.00    -0.451 C  
ENDROOT
BRANCH   2   3
HETATM    3  C   UNL     1     -12.749   7.822  71.084  1.00  0.00    -0.205 C  
BRANCH   3   4
HETATM    4  C   UNL     1     -11.909   6.571  71.323  1.00  0.00    -0.385 C  
BRANCH   4   5
HETATM    5  C   UNL     1     -10.431   6.857  71.072  1.00  0.00    -0.235 C  
BRANCH   5   6
HETATM    6  C   UNL     1     -10.153   7.010  69.580  1.00  0.00    -0.194 C  
BRANCH   6   7
HETATM    7  C   UNL     1      -9.066   8.050  69.340  1.00  0.00    -0.148 C  
BRANCH   7   8
HETATM    8  C   UNL     1      -9.238   8.698  67.972  1.00  0.00    -0.147 C  
BRANCH   8   9
HETATM    9  C   UNL     1     -10.706   8.995  67.699  1.00  0.00    -0.232 C  
BRANCH   9  10
HETATM   10  C   UNL     1     -10.922  10.489  67.504  1.00  0.00    -0.365 C  
BRANCH  10  11
HETATM   11  C   UNL     1      -9.931  11.045  66.492  1.00  0.00    -0.253 C  
BRANCH  11  12
HETATM   12  C   UNL     1     -10.369  12.422  66.016  1.00  0.00    -0.275 C  
BRANCH  12  13
HETATM   13  C   UNL     1     -11.881  12.560  66.105  1.00  0.00    -0.459 C  
BRANCH  13  14
HETATM   14  C   UNL     1     -12.264  13.940  66.625  1.00  0.00    -0.465 C  
BRANCH  14  15
HETATM   15  C   UNL     1     -11.955  14.055  68.110  1.00  0.00    -0.382 C  
BRANCH  15  16
HETATM   16  C   UNL     1     -11.656  15.501  68.484  1.00  0.00    -0.379 C  
BRANCH  16  17
HETATM   17  C   UNL     1     -10.322  15.603  69.214  1.00  0.00    -0.250 C  
BRANCH  17  18
HETATM   18  C   UNL     1      -9.208  14.969  68.390  1.00  0.00    -0.193 C  
BRANCH  18  19
HETATM   19  C   UNL     1      -8.318  16.040  67.767  1.00  0.00    -0.159 C  
BRANCH  19  20
HETATM   20  C   UNL     1      -8.888  16.506  66.432  1.00  0.00    -0.345 C  
BRANCH  20  21
HETATM   21  C   UNL     1      -9.329  17.963  66.504  1.00  0.00    -0.290 C  
BRANCH  21  22
HETATM   22  C   UNL     1      -8.151  18.907  66.303  1.00  0.00    -0.269 C  
HETATM   23  O   UNL     1      -8.603  20.255  66.340  1.00  0.00    -0.498 OA 
HETATM   24  H   UNL     1      -7.869  20.844  66.215  1.00  0.00     0.000 HD 
ENDBRANCH  21  22
ENDBRANCH  20  21
ENDBRANCH  19  20
ENDBRANCH  18  19
ENDBRANCH  17  18
ENDBRANCH  16  17
ENDBRANCH  15  16
ENDBRANCH  14  15
ENDBRANCH  13  14
ENDBRANCH  12  13
ENDBRANCH  11  12
ENDBRANCH  10  11
ENDBRANCH   9  10
ENDBRANCH   8   9
ENDBRANCH   7   8
ENDBRANCH   6   7
ENDBRANCH   5   6
ENDBRANCH   4   5
ENDBRANCH   3   4
ENDBRANCH   2   3
TORSDOF 20
ENDMDL
MODEL      292
REMARK 921   NORMALIZED FREE ENERGY PREDICTED BY IDOCK:   -3.00 KCAL/MOL
REMARK 922        TOTAL FREE ENERGY PREDICTED BY IDOCK:   -9.38 KCAL/MOL
REMARK 923 INTER-LIGAND FREE ENERGY PREDICTED BY IDOCK:   -7.58 KCAL/MOL
REMARK 924 INTRA-LIGAND FREE ENERGY PREDICTED BY IDOCK:   -1.80 KCAL/MOL
REMARK 927      BINDING AFFINITY PREDICTED BY RF-SCORE:    0.00 PKD
ROOT
HETATM    1  C   UNL     1      -7.774   8.821  64.737  1.00  0.00    -0.113 C  
HETATM    2  C   UNL     1      -9.078   9.364  65.296  1.00  0.00    -0.287 C  
ENDROOT
BRANCH   2   3
HETATM    3  C   UNL     1      -9.684   8.401  66.312  1.00  0.00    -0.278 C  
BRANCH   3   4
HETATM    4  C   UNL     1     -10.661   9.120  67.238  1.00  0.00    -0.303 C  
BRANCH   4   5
HETATM    5  C   UNL     1     -10.299   8.876  68.700  1.00  0.00    -0.228 C  
BRANCH   5   6
HETATM    6  C   UNL     1     -10.033   7.396  68.954  1.00  0.00    -0.169 C  
BRANCH   6   7
HETATM    7  C   UNL     1      -9.196   7.209  70.213  1.00  0.00    -0.156 C  
BRANCH   7   8
HETATM    8  C   UNL     1     -10.091   7.088  71.439  1.00  0.00    -0.197 C  
BRANCH   8   9
HETATM    9  C   UNL     1     -11.345   6.288  71.111  1.00  0.00    -0.364 C  
BRANCH   9  10
HETATM   10  C   UNL     1     -12.580   6.975  71.676  1.00  0.00    -0.419 C  
BRANCH  10  11
HETATM   11  C   UNL     1     -12.279   8.432  72.002  1.00  0.00    -0.419 C  
BRANCH  11  12
HETATM   12  C   UNL     1     -13.564   9.183  72.321  1.00  0.00    -0.548 C  
BRANCH  12  13
HETATM   13  C   UNL     1     -13.408  10.662  72.004  1.00  0.00    -0.409 C  
BRANCH  13  14
HETATM   14  C   UNL     1     -12.243  10.885  71.049  1.00  0.00    -0.464 C  
BRANCH  14  15
HETATM   15  C   UNL     1     -12.254  12.311  70.518  1.00  0.00    -0.387 C  
BRANCH  15  16
HETATM   16  C   UNL     1     -12.819  13.267  71.561  1.00  0.00    -0.419 C  
BRANCH  16  17
HETATM   17  C   UNL     1     -13.049  14.647  70.957  1.00  0.00    -0.427 C  
BRANCH  17  18
HETATM   18  C   UNL     1     -11.878  15.571  71.269  1.00  0.00    -0.453 C  
BRANCH  18  19
HETATM   19  C   UNL     1     -10.784  15.435  70.216  1.00  0.00    -0.320 C  
BRANCH  19  20
HETATM   20  C   UNL     1     -10.844  16.590  69.222  1.00  0.00    -0.326 C  
BRANCH  20  21
HETATM   21  C   UNL     1     -10.980  16.076  67.794  1.00  0.00    -0.307 C  
BRANCH  21  22
HETATM   22  C   UNL     1     -11.424  14.619  67.771  1.00  0.00    -0.340 C  
HETATM   23  O   UNL     1     -10.336  13.791  67.381  1.00  0.00    -0.249 OA 
HETATM   24  H   UNL     1     -10.613  12.882  67.367  1.00  0.00     0.000 HD 
ENDBRANCH  21  22
ENDBRANCH  20  21
ENDBRANCH  19  20
ENDBRANCH  18  19
ENDBRANCH  17  18
ENDBRANCH  16  17
ENDBRANCH  15  16
ENDBRANCH  14  15
ENDBRANCH  13  14
ENDBRANCH  12  13
ENDBRANCH  11  12
ENDBRANCH  10  11
ENDBRANCH   9  10
ENDBRANCH   8   9
ENDBRANCH   7   8
ENDBRANCH   6   7
ENDBRANCH   5   6
ENDBRANCH   4   5
ENDBRANCH   3   4
ENDBRANCH   2   3
TORSDOF 20
ENDMDL
MODEL      293
REMARK 921   NORMALIZED FREE ENERGY PREDICTED BY IDOCK:   -3.00 KCAL/MOL
REMARK 922        TOTAL FREE ENERGY PREDICTED BY IDOCK:   -9.38 KCAL/MOL
REMARK 923 INTER-LIGAND FREE ENERGY PREDICTED BY IDOCK:   -7.08 KCAL/MOL
REMARK 924 INTRA-LIGAND FREE ENERGY PREDICTED BY IDOCK:   -2.29 KCAL/MOL
REMARK 927      BINDING AFFINITY PREDICTED BY RF-SCORE:    0.00 PKD
ROOT
HETATM    1  C   UNL     1     -12.624  11.982  63.564  1.00  0.00    -0.625 C  
HETATM    2  C   UNL     1     -11.617  13.092  63.814  1.00  0.00    -0.517 C  
ENDROOT
BRANCH   2   3
HETATM    3  C   UNL     1     -12.275  14.290  64.492  1.00  0.00    -0.476 C  
BRANCH   3   4
HETATM    4  C   UNL     1     -11.233  15.308  64.943  1.00  0.00    -0.422 C  
BRANCH   4   5
HETATM    5  C   UNL     1     -10.889  15.114  66.417  1.00  0.00    -0.326 C  
BRANCH   5   6
HETATM    6  C   UNL     1      -9.473  14.572  66.577  1.00  0.00    -0.310 C  
BRANCH   6   7
HETATM    7  C   UNL     1      -9.449  13.412  67.565  1.00  0.00    -0.219 C  
BRANCH   7   8
HETATM    8  C   UNL     1     -10.725  12.587  67.454  1.00  0.00    -0.254 C  
BRANCH   8   9
HETATM    9  C   UNL     1     -10.433  11.229  66.829  1.00  0.00    -0.291 C  
BRANCH   9  10
HETATM   10  C   UNL     1     -11.078  10.116  67.643  1.00  0.00    -0.275 C  
BRANCH  10  11
HETATM   11  C   UNL     1     -11.651  10.668  68.941  1.00  0.00    -0.320 C  
BRANCH  11  12
HETATM   12  C   UNL     1     -10.768  10.281  70.120  1.00  0.00    -0.334 C  
BRANCH  12  13
HETATM   13  C   UNL     1     -10.200   8.884  69.924  1.00  0.00    -0.209 C  
BRANCH  13  14
HETATM   14  C   UNL     1     -11.227   7.829  70.312  1.00  0.00    -0.215 C  
BRANCH  14  15
HETATM   15  C   UNL     1     -11.378   7.762  71.824  1.00  0.00    -0.302 C  
BRANCH  15  16
HETATM   16  C   UNL     1     -11.447   6.314  72.292  1.00  0.00    -0.351 C  
BRANCH  16  17
HETATM   17  C   UNL     1     -10.049   5.716  72.399  1.00  0.00    -0.214 C  
BRANCH  17  18
HETATM   18  C   UNL     1      -9.866   4.594  71.384  1.00  0.00    -0.264 C  
BRANCH  18  19
HETATM   19  C   UNL     1      -8.692   4.889  70.457  1.00  0.00    -0.131 C  
BRANCH  19  20
HETATM   20  C   UNL     1      -9.026   4.496  69.022  1.00  0.00    -0.151 C  
BRANCH  20  21
HETATM   21  C   UNL     1      -9.284   5.728  68.163  1.00  0.00    -0.110 C  
BRANCH  21  22
HETATM   22  C   UNL     1     -10.435   5.496  67.194  1.00  0.00    -0.257 C  
HETATM   23  O   UNL     1     -10.778   6.717  66.552  1.00  0.00    -0.510 OA 
HETATM   24  H   UNL     1     -11.496   6.572  65.948  1.00  0.00     0.000 HD 
ENDBRANCH  21  22
ENDBRANCH  20  21
ENDBRANCH  19  20
ENDBRANCH  18  19
ENDBRANCH  17  18
ENDBRANCH  16  17
ENDBRANCH  15  16
ENDBRANCH  14  15
ENDBRANCH  13  14
ENDBRANCH  12  13
ENDBRANCH  11  12
ENDBRANCH  10  11
ENDBRANCH   9  10
ENDBRANCH   8   9
ENDBRANCH   7   8
ENDBRANCH   6   7
ENDBRANCH   5   6
ENDBRANCH   4   5
ENDBRANCH   3   4
ENDBRANCH   2   3
TORSDOF 20
ENDMDL
MODEL      294
REMARK 921   NORMALIZED FREE ENERGY PREDICTED BY IDOCK:   -2.99 KCAL/MOL
REMARK 922        TOTAL FREE ENERGY PREDICTED BY IDOCK:   -9.36 KCAL/MOL
REMARK 923 INTER-LIGAND FREE ENERGY PREDICTED BY IDOCK:   -6.95 KCAL/MOL
REMARK 924 INTRA-LIGAND FREE ENERGY PREDICTED BY IDOCK:   -2.41 KCAL/MOL
REMARK 927      BINDING AFFINITY PREDICTED BY RF-SCORE:    0.00 PKD
ROOT
HETATM    1  C   UNL     1     -12.749  13.958  65.120  1.00  0.00    -0.434 C  
HETATM    2  C   UNL     1     -12.258  12.523  65.036  1.00  0.00    -0.519 C  
ENDROOT
BRANCH   2   3
HETATM    3  C   UNL     1     -10.766  12.433  65.343  1.00  0.00    -0.317 C  
BRANCH   3   4
HETATM    4  C   UNL     1     -10.519  12.312  66.844  1.00  0.00    -0.240 C  
BRANCH   4   5
HETATM    5  C   UNL     1     -11.484  11.311  67.471  1.00  0.00    -0.324 C  
BRANCH   5   6
HETATM    6  C   UNL     1     -12.132  11.893  68.723  1.00  0.00    -0.182 C  
BRANCH   6   7
HETATM    7  C   UNL     1     -11.314  11.549  69.962  1.00  0.00    -0.222 C  
BRANCH   7   8
HETATM    8  C   UNL     1     -11.798  10.244  70.579  1.00  0.00    -0.419 C  
BRANCH   8   9
HETATM    9  C   UNL     1     -12.947  10.502  71.546  1.00  0.00    -0.565 C  
BRANCH   9  10
HETATM   10  C   UNL     1     -13.211   9.272  72.403  1.00  0.00    -0.501 C  
BRANCH  10  11
HETATM   11  C   UNL     1     -13.414   8.044  71.527  1.00  0.00    -0.327 C  
BRANCH  11  12
HETATM   12  C   UNL     1     -12.457   6.933  71.937  1.00  0.00    -0.350 C  
BRANCH  12  13
HETATM   13  C   UNL     1     -11.303   7.497  72.750  1.00  0.00    -0.388 C  
BRANCH  13  14
HETATM   14  C   UNL     1      -9.982   6.886  72.300  1.00  0.00    -0.176 C  
BRANCH  14  15
HETATM   15  C   UNL     1     -10.224   5.774  71.291  1.00  0.00    -0.270 C  
BRANCH  15  16
HETATM   16  C   UNL     1      -8.924   5.383  70.602  1.00  0.00    -0.163 C  
BRANCH  16  17
HETATM   17  C   UNL     1      -8.616   6.337  69.453  1.00  0.00    -0.125 C  
BRANCH  17  18
HETATM   18  C   UNL     1      -9.855   6.563  68.596  1.00  0.00    -0.143 C  
BRANCH  18  19
HETATM   19  C   UNL     1     -10.047   8.047  68.301  1.00  0.00    -0.227 C  
BRANCH  19  20
HETATM   20  C   UNL     1      -9.918   8.321  66.806  1.00  0.00    -0.355 C  
BRANCH  20  21
HETATM   21  C   UNL     1      -8.518   8.812  66.459  1.00  0.00    -0.120 C  
BRANCH  21  22
HETATM   22  C   UNL     1      -8.301   8.844  64.952  1.00  0.00    -0.172 C  
HETATM   23  O   UNL     1      -9.353   9.570  64.329  1.00  0.00    -0.413 OA 
HETATM   24  H   UNL     1      -9.218   9.590  63.389  1.00  0.00     0.000 HD 
ENDBRANCH  21  22
ENDBRANCH  20  21
ENDBRANCH  19  20
ENDBRANCH  18  19
ENDBRANCH  17  18
ENDBRANCH  16  17
ENDBRANCH  15  16
ENDBRANCH  14  15
ENDBRANCH  13  14
ENDBRANCH  12  13
ENDBRANCH  11  12
ENDBRANCH  10  11
ENDBRANCH   9  10
ENDBRANCH   8   9
ENDBRANCH   7   8
ENDBRANCH   6   7
ENDBRANCH   5   6
ENDBRANCH   4   5
ENDBRANCH   3   4
ENDBRANCH   2   3
TORSDOF 20
ENDMDL
MODEL      295
REMARK 921   NORMALIZED FREE ENERGY PREDICTED BY IDOCK:   -2.99 KCAL/MOL
REMARK 922        TOTAL FREE ENERGY PREDICTED BY IDOCK:   -9.36 KCAL/MOL
REMARK 923 INTER-LIGAND FREE ENERGY PREDICTED BY IDOCK:   -6.16 KCAL/MOL
REMARK 924 INTRA-LIGAND FREE ENERGY PREDICTED BY IDOCK:   -3.20 KCAL/MOL
REMARK 927      BINDING AFFINITY PREDICTED BY RF-SCORE:    0.00 PKD
ROOT
HETATM    1  C   UNL     1     -13.089  10.510  71.484  1.00  0.00    -0.532 C  
HETATM    2  C   UNL     1     -12.969   9.181  72.209  1.00  0.00    -0.492 C  
ENDROOT
BRANCH   2   3
HETATM    3  C   UNL     1     -12.698   8.043  71.230  1.00  0.00    -0.234 C  
BRANCH   3   4
HETATM    4  C   UNL     1     -11.504   7.205  71.677  1.00  0.00    -0.299 C  
BRANCH   4   5
HETATM    5  C   UNL     1     -10.904   7.763  72.964  1.00  0.00    -0.451 C  
BRANCH   5   6
HETATM    6  C   UNL     1      -9.435   8.125  72.766  1.00  0.00    -0.349 C  
BRANCH   6   7
HETATM    7  C   UNL     1      -9.214   8.741  71.390  1.00  0.00    -0.325 C  
BRANCH   7   8
HETATM    8  C   UNL     1      -7.931   8.208  70.764  1.00  0.00    -0.097 C  
BRANCH   8   9
HETATM    9  C   UNL     1      -8.240   7.092  69.775  1.00  0.00    -0.131 C  
BRANCH   9  10
HETATM   10  C   UNL     1      -8.070   5.731  70.435  1.00  0.00    -0.106 C  
BRANCH  10  11
HETATM   11  C   UNL     1      -9.257   4.832  70.118  1.00  0.00    -0.195 C  
BRANCH  11  12
HETATM   12  C   UNL     1      -8.816   3.644  69.274  1.00  0.00    -0.157 C  
BRANCH  12  13
HETATM   13  C   UNL     1      -9.633   3.568  67.994  1.00  0.00    -0.166 C  
BRANCH  13  14
HETATM   14  C   UNL     1      -9.264   4.708  67.054  1.00  0.00    -0.137 C  
BRANCH  14  15
HETATM   15  C   UNL     1     -10.516   5.355  66.481  1.00  0.00    -0.352 C  
BRANCH  15  16
HETATM   16  C   UNL     1     -11.061   6.408  67.438  1.00  0.00    -0.412 C  
BRANCH  16  17
HETATM   17  C   UNL     1     -10.597   7.800  67.027  1.00  0.00    -0.396 C  
BRANCH  17  18
HETATM   18  C   UNL     1     -11.016   8.835  68.065  1.00  0.00     0.066 C  
BRANCH  18  19
HETATM   19  C   UNL     1     -10.391  10.192  67.762  1.00  0.00    -0.253 C  
BRANCH  19  20
HETATM   20  C   UNL     1     -11.334  11.322  68.161  1.00  0.00    -0.372 C  
BRANCH  20  21
HETATM   21  C   UNL     1     -10.577  12.634  68.325  1.00  0.00    -0.250 C  
BRANCH  21  22
HETATM   22  C   UNL     1     -11.398  13.653  69.105  1.00  0.00    -0.285 C  
HETATM   23  O   UNL     1     -10.716  14.900  69.133  1.00  0.00    -0.236 OA 
HETATM   24  H   UNL     1     -11.228  15.535  69.620  1.00  0.00     0.000 HD 
ENDBRANCH  21  22
ENDBRANCH  20  21
ENDBRANCH  19  20
ENDBRANCH  18  19
ENDBRANCH  17  18
ENDBRANCH  16  17
ENDBRANCH  15  16
ENDBRANCH  14  15
ENDBRANCH  13  14
ENDBRANCH  12  13
ENDBRANCH  11  12
ENDBRANCH  10  11
ENDBRANCH   9  10
ENDBRANCH   8   9
ENDBRANCH   7   8
ENDBRANCH   6   7
ENDBRANCH   5   6
ENDBRANCH   4   5
ENDBRANCH   3   4
ENDBRANCH   2   3
TORSDOF 20
ENDMDL
MODEL      296
REMARK 921   NORMALIZED FREE ENERGY PREDICTED BY IDOCK:   -2.99 KCAL/MOL
REMARK 922        TOTAL FREE ENERGY PREDICTED BY IDOCK:   -9.35 KCAL/MOL
REMARK 923 INTER-LIGAND FREE ENERGY PREDICTED BY IDOCK:   -6.23 KCAL/MOL
REMARK 924 INTRA-LIGAND FREE ENERGY PREDICTED BY IDOCK:   -3.12 KCAL/MOL
REMARK 927      BINDING AFFINITY PREDICTED BY RF-SCORE:    0.00 PKD
ROOT
HETATM    1  C   UNL     1     -10.008   3.357  64.484  1.00  0.00    -0.145 C  
HETATM    2  C   UNL     1      -9.505   4.582  65.228  1.00  0.00    -0.175 C  
ENDROOT
BRANCH   2   3
HETATM    3  C   UNL     1      -9.738   4.447  66.730  1.00  0.00    -0.235 C  
BRANCH   3   4
HETATM    4  C   UNL     1     -10.583   5.601  67.261  1.00  0.00    -0.328 C  
BRANCH   4   5
HETATM    5  C   UNL     1     -10.198   6.911  66.581  1.00  0.00    -0.215 C  
BRANCH   5   6
HETATM    6  C   UNL     1     -10.379   8.090  67.532  1.00  0.00    -0.330 C  
BRANCH   6   7
HETATM    7  C   UNL     1      -9.628   9.314  67.021  1.00  0.00    -0.223 C  
BRANCH   7   8
HETATM    8  C   UNL     1      -8.293   9.461  67.740  1.00  0.00    -0.115 C  
BRANCH   8   9
HETATM    9  C   UNL     1      -8.249   8.575  68.978  1.00  0.00    -0.116 C  
BRANCH   9  10
HETATM   10  C   UNL     1      -7.179   7.503  68.831  1.00  0.00    -0.082 C  
BRANCH  10  11
HETATM   11  C   UNL     1      -7.469   6.329  69.756  1.00  0.00    -0.081 C  
BRANCH  11  12
HETATM   12  C   UNL     1      -8.652   6.643  70.661  1.00  0.00    -0.142 C  
BRANCH  12  13
HETATM   13  C   UNL     1      -9.521   5.409  70.849  1.00  0.00    -0.214 C  
BRANCH  13  14
HETATM   14  C   UNL     1     -10.825   5.773  71.548  1.00  0.00    -0.316 C  
BRANCH  14  15
HETATM   15  C   UNL     1     -11.708   6.605  70.630  1.00  0.00    -0.452 C  
BRANCH  15  16
HETATM   16  C   UNL     1     -12.280   7.802  71.379  1.00  0.00    -0.343 C  
BRANCH  16  17
HETATM   17  C   UNL     1     -11.203   8.853  71.617  1.00  0.00    -0.415 C  
BRANCH  17  18
HETATM   18  C   UNL     1     -11.722  10.243  71.266  1.00  0.00    -0.378 C  
BRANCH  18  19
HETATM   19  C   UNL     1     -11.656  10.483  69.762  1.00  0.00    -0.368 C  
BRANCH  19  20
HETATM   20  C   UNL     1     -11.894  11.954  69.439  1.00  0.00    -0.389 C  
BRANCH  20  21
HETATM   21  C   UNL     1     -11.340  12.308  68.064  1.00  0.00    -0.348 C  
BRANCH  21  22
HETATM   22  C   UNL     1     -11.348  13.814  67.836  1.00  0.00    -0.299 C  
HETATM   23  O   UNL     1     -12.566  14.199  67.212  1.00  0.00    -0.516 OA 
HETATM   24  H   UNL     1     -12.571  15.139  67.070  1.00  0.00     0.000 HD 
ENDBRANCH  21  22
ENDBRANCH  20  21
ENDBRANCH  19  20
ENDBRANCH  18  19
ENDBRANCH  17  18
ENDBRANCH  16  17
ENDBRANCH  15  16
ENDBRANCH  14  15
ENDBRANCH  13  14
ENDBRANCH  12  13
ENDBRANCH  11  12
ENDBRANCH  10  11
ENDBRANCH   9  10
ENDBRANCH   8   9
ENDBRANCH   7   8
ENDBRANCH   6   7
ENDBRANCH   5   6
ENDBRANCH   4   5
ENDBRANCH   3   4
ENDBRANCH   2   3
TORSDOF 20
ENDMDL
MODEL      297
REMARK 921   NORMALIZED FREE ENERGY PREDICTED BY IDOCK:   -2.98 KCAL/MOL
REMARK 922        TOTAL FREE ENERGY PREDICTED BY IDOCK:   -9.33 KCAL/MOL
REMARK 923 INTER-LIGAND FREE ENERGY PREDICTED BY IDOCK:   -7.32 KCAL/MOL
REMARK 924 INTRA-LIGAND FREE ENERGY PREDICTED BY IDOCK:   -2.01 KCAL/MOL
REMARK 927      BINDING AFFINITY PREDICTED BY RF-SCORE:    0.00 PKD
ROOT
HETATM    1  C   UNL     1     -12.973  10.293  71.451  1.00  0.00    -0.540 C  
HETATM    2  C   UNL     1     -13.149   8.794  71.626  1.00  0.00    -0.394 C  
ENDROOT
BRANCH   2   3
HETATM    3  C   UNL     1     -11.799   8.093  71.744  1.00  0.00    -0.346 C  
BRANCH   3   4
HETATM    4  C   UNL     1     -11.961   6.576  71.691  1.00  0.00    -0.387 C  
BRANCH   4   5
HETATM    5  C   UNL     1     -11.007   5.967  70.667  1.00  0.00    -0.357 C  
BRANCH   5   6
HETATM    6  C   UNL     1     -10.688   6.966  69.560  1.00  0.00    -0.276 C  
BRANCH   6   7
HETATM    7  C   UNL     1     -10.998   6.372  68.192  1.00  0.00    -0.393 C  
BRANCH   7   8
HETATM    8  C   UNL     1     -10.571   7.325  67.084  1.00  0.00    -0.416 C  
BRANCH   8   9
HETATM    9  C   UNL     1      -9.258   6.868  66.460  1.00  0.00    -0.195 C  
BRANCH   9  10
HETATM   10  C   UNL     1      -8.319   8.050  66.265  1.00  0.00    -0.121 C  
BRANCH  10  11
HETATM   11  C   UNL     1      -8.598   9.130  67.300  1.00  0.00    -0.118 C  
BRANCH  11  12
HETATM   12  C   UNL     1      -7.350   9.965  67.548  1.00  0.00    -0.090 C  
BRANCH  12  13
HETATM   13  C   UNL     1      -7.715  11.284  68.212  1.00  0.00    -0.122 C  
BRANCH  13  14
HETATM   14  C   UNL     1      -9.200  11.577  68.040  1.00  0.00    -0.175 C  
BRANCH  14  15
HETATM   15  C   UNL     1      -9.405  12.945  67.407  1.00  0.00    -0.194 C  
BRANCH  15  16
HETATM   16  C   UNL     1     -10.709  13.568  67.888  1.00  0.00    -0.258 C  
BRANCH  16  17
HETATM   17  C   UNL     1     -11.375  14.356  66.766  1.00  0.00    -0.360 C  
BRANCH  17  18
HETATM   18  C   UNL     1     -12.618  13.630  66.265  1.00  0.00    -0.346 C  
BRANCH  18  19
HETATM   19  C   UNL     1     -12.243  12.534  65.273  1.00  0.00    -0.493 C  
BRANCH  19  20
HETATM   20  C   UNL     1     -11.453  13.112  64.103  1.00  0.00    -0.449 C  
BRANCH  20  21
HETATM   21  C   UNL     1     -10.486  12.081  63.534  1.00  0.00    -0.505 C  
BRANCH  21  22
HETATM   22  C   UNL     1     -10.320  10.897  64.479  1.00  0.00    -0.348 C  
HETATM   23  O   UNL     1      -9.644   9.840  63.812  1.00  0.00    -0.436 OA 
HETATM   24  H   UNL     1      -9.541   9.102  64.401  1.00  0.00     0.000 HD 
ENDBRANCH  21  22
ENDBRANCH  20  21
ENDBRANCH  19  20
ENDBRANCH  18  19
ENDBRANCH  17  18
ENDBRANCH  16  17
ENDBRANCH  15  16
ENDBRANCH  14  15
ENDBRANCH  13  14
ENDBRANCH  12  13
ENDBRANCH  11  12
ENDBRANCH  10  11
ENDBRANCH   9  10
ENDBRANCH   8   9
ENDBRANCH   7   8
ENDBRANCH   6   7
ENDBRANCH   5   6
ENDBRANCH   4   5
ENDBRANCH   3   4
ENDBRANCH   2   3
TORSDOF 20
ENDMDL
MODEL      298
REMARK 921   NORMALIZED FREE ENERGY PREDICTED BY IDOCK:   -2.98 KCAL/MOL
REMARK 922        TOTAL FREE ENERGY PREDICTED BY IDOCK:   -9.33 KCAL/MOL
REMARK 923 INTER-LIGAND FREE ENERGY PREDICTED BY IDOCK:   -7.15 KCAL/MOL
REMARK 924 INTRA-LIGAND FREE ENERGY PREDICTED BY IDOCK:   -2.18 KCAL/MOL
REMARK 927      BINDING AFFINITY PREDICTED BY RF-SCORE:    0.00 PKD
ROOT
HETATM    1  C   UNL     1      -9.402   5.027  71.749  1.00  0.00    -0.184 C  
HETATM    2  C   UNL     1      -8.794   5.227  70.372  1.00  0.00    -0.146 C  
ENDROOT
BRANCH   2   3
HETATM    3  C   UNL     1      -8.073   6.569  70.280  1.00  0.00    -0.121 C  
BRANCH   3   4
HETATM    4  C   UNL     1      -8.092   7.107  68.852  1.00  0.00    -0.121 C  
BRANCH   4   5
HETATM    5  C   UNL     1      -8.960   6.229  67.955  1.00  0.00    -0.114 C  
BRANCH   5   6
HETATM    6  C   UNL     1      -9.905   7.080  67.114  1.00  0.00    -0.225 C  
BRANCH   6   7
HETATM    7  C   UNL     1     -10.433   8.258  67.923  1.00  0.00    -0.259 C  
BRANCH   7   8
HETATM    8  C   UNL     1     -10.265   9.559  67.150  1.00  0.00    -0.305 C  
BRANCH   8   9
HETATM    9  C   UNL     1      -9.837   9.279  65.716  1.00  0.00    -0.302 C  
BRANCH   9  10
HETATM   10  C   UNL     1      -9.247  10.529  65.079  1.00  0.00    -0.245 C  
BRANCH  10  11
HETATM   11  C   UNL     1      -9.519  11.749  65.948  1.00  0.00    -0.239 C  
BRANCH  11  12
HETATM   12  C   UNL     1     -10.432  12.728  65.224  1.00  0.00    -0.312 C  
BRANCH  12  13
HETATM   13  C   UNL     1     -11.879  12.514  65.639  1.00  0.00    -0.493 C  
BRANCH  13  14
HETATM   14  C   UNL     1     -12.445  13.775  66.278  1.00  0.00    -0.441 C  
BRANCH  14  15
HETATM   15  C   UNL     1     -11.475  14.332  67.309  1.00  0.00    -0.371 C  
BRANCH  15  16
HETATM   16  C   UNL     1     -12.141  14.425  68.676  1.00  0.00    -0.274 C  
BRANCH  16  17
HETATM   17  C   UNL     1     -11.872  13.166  69.492  1.00  0.00    -0.383 C  
BRANCH  17  18
HETATM   18  C   UNL     1     -12.549  13.254  70.855  1.00  0.00    -0.386 C  
BRANCH  18  19
HETATM   19  C   UNL     1     -12.840  11.863  71.407  1.00  0.00    -0.411 C  
BRANCH  19  20
HETATM   20  C   UNL     1     -12.423  10.788  70.409  1.00  0.00    -0.430 C  
BRANCH  20  21
HETATM   21  C   UNL     1     -11.571   9.719  71.081  1.00  0.00    -0.469 C  
BRANCH  21  22
HETATM   22  C   UNL     1     -12.434   8.721  71.843  1.00  0.00    -0.372 C  
HETATM   23  O   UNL     1     -13.624   8.458  71.111  1.00  0.00    -0.548 OA 
HETATM   24  H   UNL     1     -14.162   7.836  71.586  1.00  0.00     0.000 HD 
ENDBRANCH  21  22
ENDBRANCH  20  21
ENDBRANCH  19  20
ENDBRANCH  18  19
ENDBRANCH  17  18
ENDBRANCH  16  17
ENDBRANCH  15  16
ENDBRANCH  14  15
ENDBRANCH  13  14
ENDBRANCH  12  13
ENDBRANCH  11  12
ENDBRANCH  10  11
ENDBRANCH   9  10
ENDBRANCH   8   9
ENDBRANCH   7   8
ENDBRANCH   6   7
ENDBRANCH   5   6
ENDBRANCH   4   5
ENDBRANCH   3   4
ENDBRANCH   2   3
TORSDOF 20
ENDMDL
MODEL      299
REMARK 921   NORMALIZED FREE ENERGY PREDICTED BY IDOCK:   -2.96 KCAL/MOL
REMARK 922        TOTAL FREE ENERGY PREDICTED BY IDOCK:   -9.29 KCAL/MOL
REMARK 923 INTER-LIGAND FREE ENERGY PREDICTED BY IDOCK:   -7.63 KCAL/MOL
REMARK 924 INTRA-LIGAND FREE ENERGY PREDICTED BY IDOCK:   -1.66 KCAL/MOL
REMARK 927      BINDING AFFINITY PREDICTED BY RF-SCORE:    0.00 PKD
ROOT
HETATM    1  C   UNL     1     -12.959  10.413  71.668  1.00  0.00    -0.581 C  
HETATM    2  C   UNL     1     -11.800  10.342  70.688  1.00  0.00    -0.445 C  
ENDROOT
BRANCH   2   3
HETATM    3  C   UNL     1     -11.992  11.328  69.539  1.00  0.00    -0.421 C  
BRANCH   3   4
HETATM    4  C   UNL     1     -11.386  10.789  68.246  1.00  0.00    -0.376 C  
BRANCH   4   5
HETATM    5  C   UNL     1     -10.784  11.921  67.419  1.00  0.00    -0.271 C  
BRANCH   5   6
HETATM    6  C   UNL     1     -11.648  12.219  66.197  1.00  0.00    -0.450 C  
BRANCH   6   7
HETATM    7  C   UNL     1     -12.256  13.613  66.296  1.00  0.00    -0.484 C  
BRANCH   7   8
HETATM    8  C   UNL     1     -12.385  14.240  64.914  1.00  0.00    -0.435 C  
BRANCH   8   9
HETATM    9  C   UNL     1     -11.269  15.250  64.677  1.00  0.00    -0.366 C  
BRANCH   9  10
HETATM   10  C   UNL     1     -10.762  15.806  66.000  1.00  0.00    -0.311 C  
BRANCH  10  11
HETATM   11  C   UNL     1     -10.228  17.220  65.815  1.00  0.00    -0.212 C  
BRANCH  11  12
HETATM   12  C   UNL     1     -10.621  18.097  66.995  1.00  0.00    -0.346 C  
BRANCH  12  13
HETATM   13  C   UNL     1     -10.555  19.567  66.611  1.00  0.00    -0.583 C  
BRANCH  13  14
HETATM   14  C   UNL     1      -9.665  20.334  67.580  1.00  0.00    -0.575 C  
BRANCH  14  15
HETATM   15  C   UNL     1      -9.046  19.389  68.599  1.00  0.00    -0.423 C  
BRANCH  15  16
HETATM   16  C   UNL     1      -7.526  19.456  68.539  1.00  0.00    -0.366 C  
BRANCH  16  17
HETATM   17  C   UNL     1      -6.949  18.145  68.018  1.00  0.00    -0.217 C  
BRANCH  17  18
HETATM   18  C   UNL     1      -7.233  17.008  68.992  1.00  0.00    -0.229 C  
BRANCH  18  19
HETATM   19  C   UNL     1      -5.956  16.242  69.319  1.00  0.00    -0.146 C  
BRANCH  19  20
HETATM   20  C   UNL     1      -6.278  14.818  69.761  1.00  0.00    -0.144 C  
BRANCH  20  21
HETATM   21  C   UNL     1      -6.602  13.935  68.562  1.00  0.00    -0.098 C  
BRANCH  21  22
HETATM   22  C   UNL     1      -6.045  12.529  68.745  1.00  0.00    -0.070 C  
HETATM   23  O   UNL     1      -5.589  12.026  67.496  1.00  0.00    -0.078 OA 
HETATM   24  H   UNL     1      -5.241  11.149  67.610  1.00  0.00     0.000 HD 
ENDBRANCH  21  22
ENDBRANCH  20  21
ENDBRANCH  19  20
ENDBRANCH  18  19
ENDBRANCH  17  18
ENDBRANCH  16  17
ENDBRANCH  15  16
ENDBRANCH  14  15
ENDBRANCH  13  14
ENDBRANCH  12  13
ENDBRANCH  11  12
ENDBRANCH  10  11
ENDBRANCH   9  10
ENDBRANCH   8   9
ENDBRANCH   7   8
ENDBRANCH   6   7
ENDBRANCH   5   6
ENDBRANCH   4   5
ENDBRANCH   3   4
ENDBRANCH   2   3
TORSDOF 20
ENDMDL
MODEL      300
REMARK 921   NORMALIZED FREE ENERGY PREDICTED BY IDOCK:   -2.96 KCAL/MOL
REMARK 922        TOTAL FREE ENERGY PREDICTED BY IDOCK:   -9.28 KCAL/MOL
REMARK 923 INTER-LIGAND FREE ENERGY PREDICTED BY IDOCK:   -7.29 KCAL/MOL
REMARK 924 INTRA-LIGAND FREE ENERGY PREDICTED BY IDOCK:   -1.99 KCAL/MOL
REMARK 927      BINDING AFFINITY PREDICTED BY RF-SCORE:    0.00 PKD
ROOT
HETATM    1  C   UNL     1     -12.938  10.417  71.522  1.00  0.00    -0.562 C  
HETATM    2  C   UNL     1     -12.839   8.996  72.051  1.00  0.00    -0.468 C  
ENDROOT
BRANCH   2   3
HETATM    3  C   UNL     1     -11.383   8.572  72.220  1.00  0.00    -0.441 C  
BRANCH   3   4
HETATM    4  C   UNL     1     -11.275   7.078  72.510  1.00  0.00    -0.312 C  
BRANCH   4   5
HETATM    5  C   UNL     1     -10.408   6.386  71.462  1.00  0.00    -0.239 C  
BRANCH   5   6
HETATM    6  C   UNL     1     -10.590   7.033  70.093  1.00  0.00    -0.249 C  
BRANCH   6   7
HETATM    7  C   UNL     1     -11.114   6.019  69.084  1.00  0.00    -0.405 C  
BRANCH   7   8
HETATM    8  C   UNL     1     -11.116   6.610  67.681  1.00  0.00    -0.357 C  
BRANCH   8   9
HETATM    9  C   UNL     1      -9.962   6.049  66.861  1.00  0.00    -0.207 C  
BRANCH   9  10
HETATM   10  C   UNL     1      -9.188   7.174  66.187  1.00  0.00    -0.126 C  
BRANCH  10  11
HETATM   11  C   UNL     1      -9.443   8.497  66.895  1.00  0.00    -0.237 C  
BRANCH  11  12
HETATM   12  C   UNL     1      -8.132   9.228  67.147  1.00  0.00    -0.109 C  
BRANCH  12  13
HETATM   13  C   UNL     1      -8.369  10.726  67.246  1.00  0.00    -0.124 C  
BRANCH  13  14
HETATM   14  C   UNL     1      -9.688  11.105  66.587  1.00  0.00    -0.224 C  
BRANCH  14  15
HETATM   15  C   UNL     1      -9.446  12.011  65.389  1.00  0.00    -0.080 C  
BRANCH  15  16
HETATM   16  C   UNL     1     -10.170  11.478  64.159  1.00  0.00    -0.374 C  
BRANCH  16  17
HETATM   17  C   UNL     1     -11.667  11.363  64.424  1.00  0.00     0.002 C  
BRANCH  17  18
HETATM   18  C   UNL     1     -12.452  12.239  63.456  1.00  0.00    -0.642 C  
BRANCH  18  19
HETATM   19  C   UNL     1     -12.401  13.702  63.885  1.00  0.00    -0.375 C  
BRANCH  19  20
HETATM   20  C   UNL     1     -12.581  13.828  65.394  1.00  0.00    -0.534 C  
BRANCH  20  21
HETATM   21  C   UNL     1     -11.670  14.908  65.964  1.00  0.00    -0.173 C  
BRANCH  21  22
HETATM   22  C   UNL     1     -10.829  15.556  64.872  1.00  0.00    -0.427 C  
HETATM   23  O   UNL     1     -10.328  16.806  65.328  1.00  0.00    -0.622 OA 
HETATM   24  H   UNL     1      -9.804  17.210  64.646  1.00  0.00     0.000 HD 
ENDBRANCH  21  22
ENDBRANCH  20  21
ENDBRANCH  19  20
ENDBRANCH  18  19
ENDBRANCH  17  18
ENDBRANCH  16  17
ENDBRANCH  15  16
ENDBRANCH  14  15
ENDBRANCH  13  14
ENDBRANCH  12  13
ENDBRANCH  11  12
ENDBRANCH  10  11
ENDBRANCH   9  10
ENDBRANCH   8   9
ENDBRANCH   7   8
ENDBRANCH   6   7
ENDBRANCH   5   6
ENDBRANCH   4   5
ENDBRANCH   3   4
ENDBRANCH   2   3
TORSDOF 20
ENDMDL
MODEL      301
REMARK 921   NORMALIZED FREE ENERGY PREDICTED BY IDOCK:   -2.96 KCAL/MOL
REMARK 922        TOTAL FREE ENERGY PREDICTED BY IDOCK:   -9.28 KCAL/MOL
REMARK 923 INTER-LIGAND FREE ENERGY PREDICTED BY IDOCK:   -6.99 KCAL/MOL
REMARK 924 INTRA-LIGAND FREE ENERGY PREDICTED BY IDOCK:   -2.29 KCAL/MOL
REMARK 927      BINDING AFFINITY PREDICTED BY RF-SCORE:    0.00 PKD
ROOT
HETATM    1  C   UNL     1      -7.777  14.424  67.921  1.00  0.00    -0.152 C  
HETATM    2  C   UNL     1      -7.239  15.651  67.204  1.00  0.00    -0.230 C  
ENDROOT
BRANCH   2   3
HETATM    3  C   UNL     1      -8.245  16.797  67.245  1.00  0.00    -0.198 C  
BRANCH   3   4
HETATM    4  C   UNL     1      -9.669  16.273  67.416  1.00  0.00    -0.234 C  
BRANCH   4   5
HETATM    5  C   UNL     1     -10.603  16.905  66.389  1.00  0.00    -0.183 C  
BRANCH   5   6
HETATM    6  C   UNL     1     -10.706  16.035  65.140  1.00  0.00    -0.429 C  
BRANCH   6   7
HETATM    7  C   UNL     1     -10.772  14.560  65.516  1.00  0.00    -0.350 C  
BRANCH   7   8
HETATM    8  C   UNL     1     -12.216  14.076  65.538  1.00  0.00    -0.455 C  
BRANCH   8   9
HETATM    9  C   UNL     1     -12.371  12.811  64.704  1.00  0.00    -0.524 C  
BRANCH   9  10
HETATM   10  C   UNL     1     -11.124  12.568  63.866  1.00  0.00    -0.476 C  
BRANCH  10  11
HETATM   11  C   UNL     1     -10.668  11.121  63.994  1.00  0.00    -0.409 C  
BRANCH  11  12
HETATM   12  C   UNL     1      -9.685  10.972  65.146  1.00  0.00    -0.302 C  
BRANCH  12  13
HETATM   13  C   UNL     1     -10.256  10.059  66.219  1.00  0.00    -0.285 C  
BRANCH  13  14
HETATM   14  C   UNL     1     -10.082  10.680  67.599  1.00  0.00    -0.208 C  
BRANCH  14  15
HETATM   15  C   UNL     1     -11.366  11.365  68.042  1.00  0.00    -0.372 C  
BRANCH  15  16
HETATM   16  C   UNL     1     -11.606  11.144  69.530  1.00  0.00    -0.392 C  
BRANCH  16  17
HETATM   17  C   UNL     1     -11.517   9.662  69.874  1.00  0.00    -0.144 C  
BRANCH  17  18
HETATM   18  C   UNL     1     -10.806   9.461  71.207  1.00  0.00    -0.431 C  
BRANCH  18  19
HETATM   19  C   UNL     1      -9.362   9.022  70.990  1.00  0.00    -0.339 C  
BRANCH  19  20
HETATM   20  C   UNL     1      -9.084   7.706  71.709  1.00  0.00    -0.161 C  
BRANCH  20  21
HETATM   21  C   UNL     1     -10.357   6.879  71.847  1.00  0.00    -0.210 C  
BRANCH  21  22
HETATM   22  C   UNL     1     -10.195   5.787  72.896  1.00  0.00    -0.190 C  
HETATM   23  O   UNL     1     -11.239   5.883  73.856  1.00  0.00    -0.315 OA 
HETATM   24  H   UNL     1     -11.139   5.202  74.510  1.00  0.00     0.000 HD 
ENDBRANCH  21  22
ENDBRANCH  20  21
ENDBRANCH  19  20
ENDBRANCH  18  19
ENDBRANCH  17  18
ENDBRANCH  16  17
ENDBRANCH  15  16
ENDBRANCH  14  15
ENDBRANCH  13  14
ENDBRANCH  12  13
ENDBRANCH  11  12
ENDBRANCH  10  11
ENDBRANCH   9  10
ENDBRANCH   8   9
ENDBRANCH   7   8
ENDBRANCH   6   7
ENDBRANCH   5   6
ENDBRANCH   4   5
ENDBRANCH   3   4
ENDBRANCH   2   3
TORSDOF 20
ENDMDL
MODEL      302
REMARK 921   NORMALIZED FREE ENERGY PREDICTED BY IDOCK:   -2.95 KCAL/MOL
REMARK 922        TOTAL FREE ENERGY PREDICTED BY IDOCK:   -9.26 KCAL/MOL
REMARK 923 INTER-LIGAND FREE ENERGY PREDICTED BY IDOCK:   -6.45 KCAL/MOL
REMARK 924 INTRA-LIGAND FREE ENERGY PREDICTED BY IDOCK:   -2.81 KCAL/MOL
REMARK 927      BINDING AFFINITY PREDICTED BY RF-SCORE:    0.00 PKD
ROOT
HETATM    1  C   UNL     1     -12.462  11.970  63.388  1.00  0.00    -0.625 C  
HETATM    2  C   UNL     1     -11.015  12.418  63.506  1.00  0.00    -0.506 C  
ENDROOT
BRANCH   2   3
HETATM    3  C   UNL     1     -10.769  13.139  64.828  1.00  0.00    -0.381 C  
BRANCH   3   4
HETATM    4  C   UNL     1     -11.948  12.959  65.781  1.00  0.00    -0.496 C  
BRANCH   4   5
HETATM    5  C   UNL     1     -11.526  12.178  67.021  1.00  0.00    -0.415 C  
BRANCH   5   6
HETATM    6  C   UNL     1     -11.486  13.085  68.247  1.00  0.00    -0.347 C  
BRANCH   6   7
HETATM    7  C   UNL     1     -12.030  14.468  67.910  1.00  0.00    -0.322 C  
BRANCH   7   8
HETATM    8  C   UNL     1     -11.141  15.553  68.504  1.00  0.00    -0.307 C  
BRANCH   8   9
HETATM    9  C   UNL     1      -9.753  15.510  67.878  1.00  0.00    -0.211 C  
BRANCH   9  10
HETATM   10  C   UNL     1      -8.680  15.504  68.957  1.00  0.00    -0.235 C  
BRANCH  10  11
HETATM   11  C   UNL     1      -7.857  14.225  68.885  1.00  0.00    -0.097 C  
BRANCH  11  12
HETATM   12  C   UNL     1      -7.654  13.803  67.437  1.00  0.00    -0.153 C  
BRANCH  12  13
HETATM   13  C   UNL     1      -7.783  12.294  67.300  1.00  0.00    -0.161 C  
BRANCH  13  14
HETATM   14  C   UNL     1      -7.933  11.642  68.668  1.00  0.00    -0.127 C  
BRANCH  14  15
HETATM   15  C   UNL     1      -8.230  10.157  68.522  1.00  0.00    -0.111 C  
BRANCH  15  16
HETATM   16  C   UNL     1      -9.595   9.824  69.111  1.00  0.00    -0.192 C  
BRANCH  16  17
HETATM   17  C   UNL     1     -10.354   8.865  68.201  1.00  0.00    -0.261 C  
BRANCH  17  18
HETATM   18  C   UNL     1      -9.927   7.425  68.461  1.00  0.00    -0.172 C  
BRANCH  18  19
HETATM   19  C   UNL     1     -11.025   6.451  68.051  1.00  0.00    -0.400 C  
BRANCH  19  20
HETATM   20  C   UNL     1     -10.469   5.363  67.139  1.00  0.00    -0.298 C  
BRANCH  20  21
HETATM   21  C   UNL     1      -9.012   5.637  66.787  1.00  0.00    -0.116 C  
BRANCH  21  22
HETATM   22  C   UNL     1      -8.757   5.445  65.298  1.00  0.00    -0.145 C  
HETATM   23  O   UNL     1      -9.937   4.966  64.666  1.00  0.00    -0.370 OA 
HETATM   24  H   UNL     1      -9.778   4.846  63.736  1.00  0.00     0.000 HD 
ENDBRANCH  21  22
ENDBRANCH  20  21
ENDBRANCH  19  20
ENDBRANCH  18  19
ENDBRANCH  17  18
ENDBRANCH  16  17
ENDBRANCH  15  16
ENDBRANCH  14  15
ENDBRANCH  13  14
ENDBRANCH  12  13
ENDBRANCH  11  12
ENDBRANCH  10  11
ENDBRANCH   9  10
ENDBRANCH   8   9
ENDBRANCH   7   8
ENDBRANCH   6   7
ENDBRANCH   5   6
ENDBRANCH   4   5
ENDBRANCH   3   4
ENDBRANCH   2   3
TORSDOF 20
ENDMDL
MODEL      303
REMARK 921   NORMALIZED FREE ENERGY PREDICTED BY IDOCK:   -2.95 KCAL/MOL
REMARK 922        TOTAL FREE ENERGY PREDICTED BY IDOCK:   -9.26 KCAL/MOL
REMARK 923 INTER-LIGAND FREE ENERGY PREDICTED BY IDOCK:   -7.56 KCAL/MOL
REMARK 924 INTRA-LIGAND FREE ENERGY PREDICTED BY IDOCK:   -1.70 KCAL/MOL
REMARK 927      BINDING AFFINITY PREDICTED BY RF-SCORE:    0.00 PKD
ROOT
HETATM    1  C   UNL     1     -10.524   9.241  69.047  1.00  0.00    -0.233 C  
HETATM    2  C   UNL     1     -10.554   8.491  70.368  1.00  0.00    -0.242 C  
ENDROOT
BRANCH   2   3
HETATM    3  C   UNL     1     -11.421   9.217  71.392  1.00  0.00    -0.439 C  
BRANCH   3   4
HETATM    4  C   UNL     1     -12.143  10.404  70.759  1.00  0.00    -0.463 C  
BRANCH   4   5
HETATM    5  C   UNL     1     -12.914  11.192  71.814  1.00  0.00    -0.526 C  
BRANCH   5   6
HETATM    6  C   UNL     1     -12.732  12.693  71.612  1.00  0.00    -0.292 C  
BRANCH   6   7
HETATM    7  C   UNL     1     -14.057  13.424  71.787  1.00  0.00    -0.009 C  
BRANCH   7   8
HETATM    8  C   UNL     1     -13.883  14.916  71.537  1.00  0.00    -0.550 C  
BRANCH   8   9
HETATM    9  C   UNL     1     -12.846  15.502  72.486  1.00  0.00    -0.514 C  
BRANCH   9  10
HETATM   10  C   UNL     1     -11.672  16.078  71.707  1.00  0.00    -0.593 C  
BRANCH  10  11
HETATM   11  C   UNL     1     -11.613  15.477  70.310  1.00  0.00    -0.355 C  
BRANCH  11  12
HETATM   12  C   UNL     1     -10.468  16.089  69.515  1.00  0.00    -0.286 C  
BRANCH  12  13
HETATM   13  C   UNL     1     -10.738  15.978  68.022  1.00  0.00    -0.309 C  
BRANCH  13  14
HETATM   14  C   UNL     1      -9.775  14.991  67.375  1.00  0.00    -0.216 C  
BRANCH  14  15
HETATM   15  C   UNL     1      -8.567  14.758  68.270  1.00  0.00    -0.164 C  
BRANCH  15  16
HETATM   16  C   UNL     1      -7.281  14.805  67.457  1.00  0.00    -0.222 C  
BRANCH  16  17
HETATM   17  C   UNL     1      -6.806  16.243  67.282  1.00  0.00    -0.230 C  
BRANCH  17  18
HETATM   18  C   UNL     1      -6.635  16.920  68.636  1.00  0.00    -0.173 C  
BRANCH  18  19
HETATM   19  C   UNL     1      -6.719  18.436  68.499  1.00  0.00    -0.253 C  
BRANCH  19  20
HETATM   20  C   UNL     1      -8.169  18.904  68.555  1.00  0.00    -0.388 C  
BRANCH  20  21
HETATM   21  C   UNL     1      -8.595  19.527  67.231  1.00  0.00    -0.341 C  
BRANCH  21  22
HETATM   22  C   UNL     1      -9.676  20.580  67.438  1.00  0.00    -0.446 C  
HETATM   23  O   UNL     1     -10.910  19.947  67.750  1.00  0.00    -0.318 OA 
HETATM   24  H   UNL     1     -11.585  20.603  67.879  1.00  0.00     0.000 HD 
ENDBRANCH  21  22
ENDBRANCH  20  21
ENDBRANCH  19  20
ENDBRANCH  18  19
ENDBRANCH  17  18
ENDBRANCH  16  17
ENDBRANCH  15  16
ENDBRANCH  14  15
ENDBRANCH  13  14
ENDBRANCH  12  13
ENDBRANCH  11  12
ENDBRANCH  10  11
ENDBRANCH   9  10
ENDBRANCH   8   9
ENDBRANCH   7   8
ENDBRANCH   6   7
ENDBRANCH   5   6
ENDBRANCH   4   5
ENDBRANCH   3   4
ENDBRANCH   2   3
TORSDOF 20
ENDMDL
MODEL      304
REMARK 921   NORMALIZED FREE ENERGY PREDICTED BY IDOCK:   -2.94 KCAL/MOL
REMARK 922        TOTAL FREE ENERGY PREDICTED BY IDOCK:   -9.25 KCAL/MOL
REMARK 923 INTER-LIGAND FREE ENERGY PREDICTED BY IDOCK:   -5.58 KCAL/MOL
REMARK 924 INTRA-LIGAND FREE ENERGY PREDICTED BY IDOCK:   -3.66 KCAL/MOL
REMARK 927      BINDING AFFINITY PREDICTED BY RF-SCORE:    0.00 PKD
ROOT
HETATM    1  C   UNL     1     -11.478   6.415  69.581  1.00  0.00    -0.446 C  
HETATM    2  C   UNL     1     -11.462   6.283  71.094  1.00  0.00    -0.362 C  
ENDROOT
BRANCH   2   3
HETATM    3  C   UNL     1     -12.650   7.006  71.721  1.00  0.00    -0.388 C  
BRANCH   3   4
HETATM    4  C   UNL     1     -12.227   8.347  72.314  1.00  0.00    -0.449 C  
BRANCH   4   5
HETATM    5  C   UNL     1     -13.304   9.403  72.084  1.00  0.00    -0.545 C  
BRANCH   5   6
HETATM    6  C   UNL     1     -12.838  10.442  71.070  1.00  0.00    -0.494 C  
BRANCH   6   7
HETATM    7  C   UNL     1     -11.358  10.260  70.754  1.00  0.00    -0.421 C  
BRANCH   7   8
HETATM    8  C   UNL     1     -11.122  10.299  69.250  1.00  0.00    -0.293 C  
BRANCH   8   9
HETATM    9  C   UNL     1      -9.723  10.814  68.940  1.00  0.00    -0.207 C  
BRANCH   9  10
HETATM   10  C   UNL     1      -9.136  10.080  67.743  1.00  0.00    -0.137 C  
BRANCH  10  11
HETATM   11  C   UNL     1     -10.063   8.957  67.298  1.00  0.00    -0.303 C  
BRANCH  11  12
HETATM   12  C   UNL     1      -9.406   8.125  66.206  1.00  0.00    -0.259 C  
BRANCH  12  13
HETATM   13  C   UNL     1      -9.772   6.657  66.362  1.00  0.00    -0.128 C  
BRANCH  13  14
HETATM   14  C   UNL     1      -8.538   5.778  66.209  1.00  0.00    -0.130 C  
BRANCH  14  15
HETATM   15  C   UNL     1      -7.919   5.487  67.568  1.00  0.00    -0.101 C  
BRANCH  15  16
HETATM   16  C   UNL     1      -6.637   6.289  67.755  1.00  0.00    -0.062 C  
BRANCH  16  17
HETATM   17  C   UNL     1      -6.802   7.312  68.873  1.00  0.00    -0.072 C  
BRANCH  17  18
HETATM   18  C   UNL     1      -8.014   6.978  69.734  1.00  0.00    -0.124 C  
BRANCH  18  19
HETATM   19  C   UNL     1      -8.229   8.041  70.805  1.00  0.00    -0.113 C  
BRANCH  19  20
HETATM   20  C   UNL     1      -7.005   8.151  71.709  1.00  0.00    -0.076 C  
BRANCH  20  21
HETATM   21  C   UNL     1      -7.346   7.759  73.141  1.00  0.00    -0.125 C  
BRANCH  21  22
HETATM   22  C   UNL     1      -8.853   7.681  73.349  1.00  0.00    -0.216 C  
HETATM   23  O   UNL     1      -9.189   6.452  73.978  1.00  0.00    -0.134 OA 
HETATM   24  H   UNL     1     -10.129   6.403  74.108  1.00  0.00     0.000 HD 
ENDBRANCH  21  22
ENDBRANCH  20  21
ENDBRANCH  19  20
ENDBRANCH  18  19
ENDBRANCH  17  18
ENDBRANCH  16  17
ENDBRANCH  15  16
ENDBRANCH  14  15
ENDBRANCH  13  14
ENDBRANCH  12  13
ENDBRANCH  11  12
ENDBRANCH  10  11
ENDBRANCH   9  10
ENDBRANCH   8   9
ENDBRANCH   7   8
ENDBRANCH   6   7
ENDBRANCH   5   6
ENDBRANCH   4   5
ENDBRANCH   3   4
ENDBRANCH   2   3
TORSDOF 20
ENDMDL
MODEL      305
REMARK 921   NORMALIZED FREE ENERGY PREDICTED BY IDOCK:   -2.92 KCAL/MOL
REMARK 922        TOTAL FREE ENERGY PREDICTED BY IDOCK:   -9.20 KCAL/MOL
REMARK 923 INTER-LIGAND FREE ENERGY PREDICTED BY IDOCK:   -6.57 KCAL/MOL
REMARK 924 INTRA-LIGAND FREE ENERGY PREDICTED BY IDOCK:   -2.64 KCAL/MOL
REMARK 927      BINDING AFFINITY PREDICTED BY RF-SCORE:    0.00 PKD
ROOT
HETATM    1  C   UNL     1     -11.911  11.008  69.176  1.00  0.00    -0.407 C  
HETATM    2  C   UNL     1     -11.966  11.532  67.751  1.00  0.00    -0.100 C  
ENDROOT
BRANCH   2   3
HETATM    3  C   UNL     1     -11.867  13.054  67.721  1.00  0.00    -0.395 C  
BRANCH   3   4
HETATM    4  C   UNL     1     -11.718  13.568  66.292  1.00  0.00    -0.401 C  
BRANCH   4   5
HETATM    5  C   UNL     1     -12.553  12.730  65.327  1.00  0.00    -0.460 C  
BRANCH   5   6
HETATM    6  C   UNL     1     -11.669  12.085  64.265  1.00  0.00    -0.425 C  
BRANCH   6   7
HETATM    7  C   UNL     1     -10.197  12.229  64.630  1.00  0.00    -0.311 C  
BRANCH   7   8
HETATM    8  C   UNL     1      -9.497  10.876  64.580  1.00  0.00    -0.284 C  
BRANCH   8   9
HETATM    9  C   UNL     1      -8.634  10.673  65.818  1.00  0.00    -0.186 C  
BRANCH   9  10
HETATM   10  C   UNL     1      -8.606  11.938  66.664  1.00  0.00    -0.163 C  
BRANCH  10  11
HETATM   11  C   UNL     1      -8.284  11.604  68.114  1.00  0.00    -0.151 C  
BRANCH  11  12
HETATM   12  C   UNL     1      -7.153  12.484  68.626  1.00  0.00    -0.100 C  
BRANCH  12  13
HETATM   13  C   UNL     1      -6.269  12.938  67.475  1.00  0.00    -0.154 C  
BRANCH  13  14
HETATM   14  C   UNL     1      -5.620  14.279  67.794  1.00  0.00    -0.046 C  
BRANCH  14  15
HETATM   15  C   UNL     1      -6.682  15.332  68.074  1.00  0.00    -0.156 C  
BRANCH  15  16
HETATM   16  C   UNL     1      -7.494  15.621  66.818  1.00  0.00    -0.063 C  
BRANCH  16  17
HETATM   17  C   UNL     1      -8.249  16.938  66.956  1.00  0.00    -0.228 C  
BRANCH  17  18
HETATM   18  C   UNL     1      -8.412  17.312  68.425  1.00  0.00    -0.254 C  
BRANCH  18  19
HETATM   19  C   UNL     1      -9.867  17.638  68.743  1.00  0.00    -0.334 C  
BRANCH  19  20
HETATM   20  C   UNL     1     -10.635  17.978  67.470  1.00  0.00    -0.402 C  
BRANCH  20  21
HETATM   21  C   UNL     1     -10.754  19.487  67.291  1.00  0.00    -0.604 C  
BRANCH  21  22
HETATM   22  C   UNL     1      -9.945  19.968  66.094  1.00  0.00    -0.468 C  
HETATM   23  O   UNL     1      -8.631  20.316  66.511  1.00  0.00    -0.475 OA 
HETATM   24  H   UNL     1      -8.126  20.616  65.764  1.00  0.00     0.000 HD 
ENDBRANCH  21  22
ENDBRANCH  20  21
ENDBRANCH  19  20
ENDBRANCH  18  19
ENDBRANCH  17  18
ENDBRANCH  16  17
ENDBRANCH  15  16
ENDBRANCH  14  15
ENDBRANCH  13  14
ENDBRANCH  12  13
ENDBRANCH  11  12
ENDBRANCH  10  11
ENDBRANCH   9  10
ENDBRANCH   8   9
ENDBRANCH   7   8
ENDBRANCH   6   7
ENDBRANCH   5   6
ENDBRANCH   4   5
ENDBRANCH   3   4
ENDBRANCH   2   3
TORSDOF 20
ENDMDL
MODEL      306
REMARK 921   NORMALIZED FREE ENERGY PREDICTED BY IDOCK:   -2.92 KCAL/MOL
REMARK 922        TOTAL FREE ENERGY PREDICTED BY IDOCK:   -9.19 KCAL/MOL
REMARK 923 INTER-LIGAND FREE ENERGY PREDICTED BY IDOCK:   -6.55 KCAL/MOL
REMARK 924 INTRA-LIGAND FREE ENERGY PREDICTED BY IDOCK:   -2.64 KCAL/MOL
REMARK 927      BINDING AFFINITY PREDICTED BY RF-SCORE:    0.00 PKD
ROOT
HETATM    1  C   UNL     1     -11.086  12.544  63.686  1.00  0.00    -0.523 C  
HETATM    2  C   UNL     1     -12.119  12.260  64.762  1.00  0.00    -0.436 C  
ENDROOT
BRANCH   2   3
HETATM    3  C   UNL     1     -12.738  13.553  65.285  1.00  0.00    -0.481 C  
BRANCH   3   4
HETATM    4  C   UNL     1     -12.043  14.019  66.560  1.00  0.00    -0.488 C  
BRANCH   4   5
HETATM    5  C   UNL     1     -11.871  12.859  67.537  1.00  0.00    -0.407 C  
BRANCH   5   6
HETATM    6  C   UNL     1     -10.672  13.091  68.449  1.00  0.00    -0.273 C  
BRANCH   6   7
HETATM    7  C   UNL     1      -9.381  12.669  67.759  1.00  0.00    -0.198 C  
BRANCH   7   8
HETATM    8  C   UNL     1      -9.514  11.263  67.187  1.00  0.00    -0.183 C  
BRANCH   8   9
HETATM    9  C   UNL     1      -8.227  10.846  66.486  1.00  0.00    -0.157 C  
BRANCH   9  10
HETATM   10  C   UNL     1      -8.534  10.220  65.133  1.00  0.00    -0.173 C  
BRANCH  10  11
HETATM   11  C   UNL     1      -8.966   8.770  65.301  1.00  0.00    -0.184 C  
BRANCH  11  12
HETATM   12  C   UNL     1      -7.920   7.989  66.083  1.00  0.00    -0.103 C  
BRANCH  12  13
HETATM   13  C   UNL     1      -8.058   6.499  65.816  1.00  0.00    -0.128 C  
BRANCH  13  14
HETATM   14  C   UNL     1      -7.671   5.695  67.051  1.00  0.00    -0.101 C  
BRANCH  14  15
HETATM   15  C   UNL     1      -8.913   5.261  67.816  1.00  0.00    -0.110 C  
BRANCH  15  16
HETATM   16  C   UNL     1     -10.144   5.332  66.922  1.00  0.00    -0.250 C  
BRANCH  16  17
HETATM   17  C   UNL     1     -11.094   6.425  67.400  1.00  0.00    -0.412 C  
BRANCH  17  18
HETATM   18  C   UNL     1     -10.800   6.796  68.849  1.00  0.00    -0.288 C  
BRANCH  18  19
HETATM   19  C   UNL     1     -10.404   8.264  68.963  1.00  0.00    -0.233 C  
BRANCH  19  20
HETATM   20  C   UNL     1     -10.322   8.689  70.425  1.00  0.00    -0.225 C  
BRANCH  20  21
HETATM   21  C   UNL     1     -11.709   8.750  71.055  1.00  0.00    -0.329 C  
BRANCH  21  22
HETATM   22  C   UNL     1     -11.797   7.858  72.286  1.00  0.00    -0.352 C  
HETATM   23  O   UNL     1     -13.048   7.183  72.303  1.00  0.00    -0.515 OA 
HETATM   24  H   UNL     1     -13.103   6.626  73.071  1.00  0.00     0.000 HD 
ENDBRANCH  21  22
ENDBRANCH  20  21
ENDBRANCH  19  20
ENDBRANCH  18  19
ENDBRANCH  17  18
ENDBRANCH  16  17
ENDBRANCH  15  16
ENDBRANCH  14  15
ENDBRANCH  13  14
ENDBRANCH  12  13
ENDBRANCH  11  12
ENDBRANCH  10  11
ENDBRANCH   9  10
ENDBRANCH   8   9
ENDBRANCH   7   8
ENDBRANCH   6   7
ENDBRANCH   5   6
ENDBRANCH   4   5
ENDBRANCH   3   4
ENDBRANCH   2   3
TORSDOF 20
ENDMDL
MODEL      307
REMARK 921   NORMALIZED FREE ENERGY PREDICTED BY IDOCK:   -2.91 KCAL/MOL
REMARK 922        TOTAL FREE ENERGY PREDICTED BY IDOCK:   -9.19 KCAL/MOL
REMARK 923 INTER-LIGAND FREE ENERGY PREDICTED BY IDOCK:   -7.42 KCAL/MOL
REMARK 924 INTRA-LIGAND FREE ENERGY PREDICTED BY IDOCK:   -1.77 KCAL/MOL
REMARK 927      BINDING AFFINITY PREDICTED BY RF-SCORE:    0.00 PKD
ROOT
HETATM    1  C   UNL     1     -10.705   5.887  66.900  1.00  0.00    -0.395 C  
HETATM    2  C   UNL     1     -10.849   6.081  68.399  1.00  0.00    -0.361 C  
ENDROOT
BRANCH   2   3
HETATM    3  C   UNL     1      -9.890   7.152  68.910  1.00  0.00    -0.156 C  
BRANCH   3   4
HETATM    4  C   UNL     1     -10.492   8.546  68.763  1.00  0.00    -0.208 C  
BRANCH   4   5
HETATM    5  C   UNL     1     -10.580   9.242  70.118  1.00  0.00    -0.266 C  
BRANCH   5   6
HETATM    6  C   UNL     1     -11.641   8.587  70.996  1.00  0.00    -0.317 C  
BRANCH   6   7
HETATM    7  C   UNL     1     -12.188   9.583  72.012  1.00  0.00    -0.370 C  
BRANCH   7   8
HETATM    8  C   UNL     1     -13.238  10.481  71.371  1.00  0.00    -0.441 C  
BRANCH   8   9
HETATM    9  C   UNL     1     -12.705  11.898  71.209  1.00  0.00    -0.401 C  
BRANCH   9  10
HETATM   10  C   UNL     1     -13.333  12.826  72.239  1.00  0.00    -0.563 C  
BRANCH  10  11
HETATM   11  C   UNL     1     -13.358  14.258  71.723  1.00  0.00    -0.450 C  
BRANCH  11  12
HETATM   12  C   UNL     1     -12.040  14.603  71.045  1.00  0.00    -0.393 C  
BRANCH  12  13
HETATM   13  C   UNL     1     -12.286  15.115  69.634  1.00  0.00    -0.292 C  
BRANCH  13  14
HETATM   14  C   UNL     1     -11.409  14.372  68.635  1.00  0.00    -0.298 C  
BRANCH  14  15
HETATM   15  C   UNL     1     -12.210  13.996  67.397  1.00  0.00    -0.289 C  
BRANCH  15  16
HETATM   16  C   UNL     1     -11.659  12.724  66.768  1.00  0.00    -0.431 C  
BRANCH  16  17
HETATM   17  C   UNL     1     -10.304  12.986  66.122  1.00  0.00    -0.285 C  
BRANCH  17  18
HETATM   18  C   UNL     1      -9.346  11.832  66.394  1.00  0.00    -0.229 C  
BRANCH  18  19
HETATM   19  C   UNL     1      -9.778  10.580  65.638  1.00  0.00    -0.289 C  
BRANCH  19  20
HETATM   20  C   UNL     1      -8.646   9.559  65.593  1.00  0.00    -0.154 C  
BRANCH  20  21
HETATM   21  C   UNL     1      -7.838   9.696  64.308  1.00  0.00    -0.130 C  
BRANCH  21  22
HETATM   22  C   UNL     1      -8.248   8.646  63.283  1.00  0.00    -0.162 C  
HETATM   23  O   UNL     1      -9.397   9.090  62.573  1.00  0.00    -0.544 OA 
HETATM   24  H   UNL     1      -9.653   8.436  61.934  1.00  0.00     0.000 HD 
ENDBRANCH  21  22
ENDBRANCH  20  21
ENDBRANCH  19  20
ENDBRANCH  18  19
ENDBRANCH  17  18
ENDBRANCH  16  17
ENDBRANCH  15  16
ENDBRANCH  14  15
ENDBRANCH  13  14
ENDBRANCH  12  13
ENDBRANCH  11  12
ENDBRANCH  10  11
ENDBRANCH   9  10
ENDBRANCH   8   9
ENDBRANCH   7   8
ENDBRANCH   6   7
ENDBRANCH   5   6
ENDBRANCH   4   5
ENDBRANCH   3   4
ENDBRANCH   2   3
TORSDOF 20
ENDMDL
MODEL      308
REMARK 921   NORMALIZED FREE ENERGY PREDICTED BY IDOCK:   -2.89 KCAL/MOL
REMARK 922        TOTAL FREE ENERGY PREDICTED BY IDOCK:   -9.14 KCAL/MOL
REMARK 923 INTER-LIGAND FREE ENERGY PREDICTED BY IDOCK:   -5.84 KCAL/MOL
REMARK 924 INTRA-LIGAND FREE ENERGY PREDICTED BY IDOCK:   -3.31 KCAL/MOL
REMARK 927      BINDING AFFINITY PREDICTED BY RF-SCORE:    0.00 PKD
ROOT
HETATM    1  C   UNL     1      -6.683  11.193  69.504  1.00  0.00    -0.132 C  
HETATM    2  C   UNL     1      -7.019   9.711  69.535  1.00  0.00    -0.059 C  
ENDROOT
BRANCH   2   3
HETATM    3  C   UNL     1      -8.423   9.477  70.085  1.00  0.00    -0.227 C  
BRANCH   3   4
HETATM    4  C   UNL     1      -8.374   9.000  71.533  1.00  0.00    -0.070 C  
BRANCH   4   5
HETATM    5  C   UNL     1      -7.684   7.643  71.632  1.00  0.00    -0.086 C  
BRANCH   5   6
HETATM    6  C   UNL     1      -8.358   6.765  72.681  1.00  0.00    -0.114 C  
BRANCH   6   7
HETATM    7  C   UNL     1      -9.376   7.569  73.480  1.00  0.00    -0.316 C  
BRANCH   7   8
HETATM    8  C   UNL     1     -10.768   6.968  73.333  1.00  0.00    -0.379 C  
BRANCH   8   9
HETATM    9  C   UNL     1     -11.648   7.859  72.466  1.00  0.00    -0.443 C  
BRANCH   9  10
HETATM   10  C   UNL     1     -12.210   7.072  71.290  1.00  0.00    -0.419 C  
BRANCH  10  11
HETATM   11  C   UNL     1     -11.132   6.836  70.242  1.00  0.00    -0.360 C  
BRANCH  11  12
HETATM   12  C   UNL     1     -10.837   5.348  70.105  1.00  0.00    -0.215 C  
BRANCH  12  13
HETATM   13  C   UNL     1      -9.594   5.127  69.259  1.00  0.00    -0.223 C  
BRANCH  13  14
HETATM   14  C   UNL     1      -9.099   6.446  68.679  1.00  0.00    -0.127 C  
BRANCH  14  15
HETATM   15  C   UNL     1      -9.272   6.463  67.168  1.00  0.00    -0.128 C  
BRANCH  15  16
HETATM   16  C   UNL     1     -10.367   7.442  66.765  1.00  0.00    -0.321 C  
BRANCH  16  17
HETATM   17  C   UNL     1      -9.812   8.858  66.666  1.00  0.00    -0.332 C  
BRANCH  17  18
HETATM   18  C   UNL     1     -10.785   9.860  67.276  1.00  0.00    -0.304 C  
BRANCH  18  19
HETATM   19  C   UNL     1     -10.266  11.285  67.117  1.00  0.00    -0.235 C  
BRANCH  19  20
HETATM   20  C   UNL     1     -10.422  12.066  68.418  1.00  0.00    -0.231 C  
BRANCH  20  21
HETATM   21  C   UNL     1     -10.462  13.566  68.154  1.00  0.00    -0.249 C  
BRANCH  21  22
HETATM   22  C   UNL     1     -11.757  13.972  67.463  1.00  0.00    -0.387 C  
HETATM   23  O   UNL     1     -12.611  14.631  68.389  1.00  0.00    -0.481 OA 
HETATM   24  H   UNL     1     -13.419  14.884  67.957  1.00  0.00     0.000 HD 
ENDBRANCH  21  22
ENDBRANCH  20  21
ENDBRANCH  19  20
ENDBRANCH  18  19
ENDBRANCH  17  18
ENDBRANCH  16  17
ENDBRANCH  15  16
ENDBRANCH  14  15
ENDBRANCH  13  14
ENDBRANCH  12  13
ENDBRANCH  11  12
ENDBRANCH  10  11
ENDBRANCH   9  10
ENDBRANCH   8   9
ENDBRANCH   7   8
ENDBRANCH   6   7
ENDBRANCH   5   6
ENDBRANCH   4   5
ENDBRANCH   3   4
ENDBRANCH   2   3
TORSDOF 20
ENDMDL
MODEL      309
REMARK 921   NORMALIZED FREE ENERGY PREDICTED BY IDOCK:   -2.89 KCAL/MOL
REMARK 922        TOTAL FREE ENERGY PREDICTED BY IDOCK:   -9.14 KCAL/MOL
REMARK 923 INTER-LIGAND FREE ENERGY PREDICTED BY IDOCK:   -6.30 KCAL/MOL
REMARK 924 INTRA-LIGAND FREE ENERGY PREDICTED BY IDOCK:   -2.84 KCAL/MOL
REMARK 927      BINDING AFFINITY PREDICTED BY RF-SCORE:    0.00 PKD
ROOT
HETATM    1  C   UNL     1      -7.405  17.185  67.628  1.00  0.00    -0.179 C  
HETATM    2  C   UNL     1      -7.921  17.206  66.200  1.00  0.00    -0.297 C  
ENDROOT
BRANCH   2   3
HETATM    3  C   UNL     1      -9.074  16.224  66.017  1.00  0.00    -0.332 C  
BRANCH   3   4
HETATM    4  C   UNL     1     -10.323  16.698  66.757  1.00  0.00    -0.295 C  
BRANCH   4   5
HETATM    5  C   UNL     1     -10.888  15.583  67.632  1.00  0.00    -0.306 C  
BRANCH   5   6
HETATM    6  C   UNL     1     -10.798  14.237  66.920  1.00  0.00    -0.298 C  
BRANCH   6   7
HETATM    7  C   UNL     1     -12.159  13.551  66.894  1.00  0.00    -0.417 C  
BRANCH   7   8
HETATM    8  C   UNL     1     -12.622  13.333  65.459  1.00  0.00    -0.505 C  
BRANCH   8   9
HETATM    9  C   UNL     1     -11.468  13.535  64.486  1.00  0.00    -0.407 C  
BRANCH   9  10
HETATM   10  C   UNL     1     -11.492  12.471  63.399  1.00  0.00    -0.523 C  
BRANCH  10  11
HETATM   11  C   UNL     1     -10.885  11.172  63.909  1.00  0.00    -0.346 C  
BRANCH  11  12
HETATM   12  C   UNL     1      -9.502  11.423  64.494  1.00  0.00    -0.160 C  
BRANCH  12  13
HETATM   13  C   UNL     1      -9.416  10.875  65.910  1.00  0.00    -0.241 C  
BRANCH  13  14
HETATM   14  C   UNL     1     -10.143   9.541  66.014  1.00  0.00    -0.319 C  
BRANCH  14  15
HETATM   15  C   UNL     1     -10.770   9.381  67.391  1.00  0.00    -0.280 C  
BRANCH  15  16
HETATM   16  C   UNL     1     -10.425  10.569  68.278  1.00  0.00    -0.211 C  
BRANCH  16  17
HETATM   17  C   UNL     1      -9.579  10.126  69.466  1.00  0.00    -0.243 C  
BRANCH  17  18
HETATM   18  C   UNL     1      -8.543   9.095  69.033  1.00  0.00    -0.133 C  
BRANCH  18  19
HETATM   19  C   UNL     1      -7.158   9.725  68.939  1.00  0.00    -0.067 C  
BRANCH  19  20
HETATM   20  C   UNL     1      -7.200  11.189  69.365  1.00  0.00    -0.091 C  
BRANCH  20  21
HETATM   21  C   UNL     1      -5.900  11.900  69.009  1.00  0.00    -0.059 C  
BRANCH  21  22
HETATM   22  C   UNL     1      -6.114  12.920  67.899  1.00  0.00    -0.125 C  
HETATM   23  O   UNL     1      -5.626  12.403  66.669  1.00  0.00    -0.467 OA 
HETATM   24  H   UNL     1      -5.759  13.040  65.976  1.00  0.00     0.000 HD 
ENDBRANCH  21  22
ENDBRANCH  20  21
ENDBRANCH  19  20
ENDBRANCH  18  19
ENDBRANCH  17  18
ENDBRANCH  16  17
ENDBRANCH  15  16
ENDBRANCH  14  15
ENDBRANCH  13  14
ENDBRANCH  12  13
ENDBRANCH  11  12
ENDBRANCH  10  11
ENDBRANCH   9  10
ENDBRANCH   8   9
ENDBRANCH   7   8
ENDBRANCH   6   7
ENDBRANCH   5   6
ENDBRANCH   4   5
ENDBRANCH   3   4
ENDBRANCH   2   3
TORSDOF 20
ENDMDL
MODEL      310
REMARK 921   NORMALIZED FREE ENERGY PREDICTED BY IDOCK:   -2.89 KCAL/MOL
REMARK 922        TOTAL FREE ENERGY PREDICTED BY IDOCK:   -9.13 KCAL/MOL
REMARK 923 INTER-LIGAND FREE ENERGY PREDICTED BY IDOCK:   -6.45 KCAL/MOL
REMARK 924 INTRA-LIGAND FREE ENERGY PREDICTED BY IDOCK:   -2.68 KCAL/MOL
REMARK 927      BINDING AFFINITY PREDICTED BY RF-SCORE:    0.00 PKD
ROOT
HETATM    1  C   UNL     1     -10.387   3.747  64.097  1.00  0.00    -0.260 C  
HETATM    2  C   UNL     1      -9.538   4.573  65.047  1.00  0.00    -0.150 C  
ENDROOT
BRANCH   2   3
HETATM    3  C   UNL     1      -9.851   4.234  66.501  1.00  0.00    -0.238 C  
BRANCH   3   4
HETATM    4  C   UNL     1     -10.620   5.365  67.177  1.00  0.00    -0.274 C  
BRANCH   4   5
HETATM    5  C   UNL     1     -10.000   6.717  66.840  1.00  0.00    -0.252 C  
BRANCH   5   6
HETATM    6  C   UNL     1     -10.634   7.828  67.671  1.00  0.00    -0.283 C  
BRANCH   6   7
HETATM    7  C   UNL     1     -10.709   9.122  66.871  1.00  0.00    -0.149 C  
BRANCH   7   8
HETATM    8  C   UNL     1      -9.814  10.188  67.489  1.00  0.00    -0.211 C  
BRANCH   8   9
HETATM    9  C   UNL     1      -9.345   9.758  68.873  1.00  0.00    -0.158 C  
BRANCH   9  10
HETATM   10  C   UNL     1      -7.826   9.794  68.958  1.00  0.00    -0.087 C  
BRANCH  10  11
HETATM   11  C   UNL     1      -7.364   9.523  70.383  1.00  0.00    -0.146 C  
BRANCH  11  12
HETATM   12  C   UNL     1      -8.505   8.952  71.213  1.00  0.00    -0.239 C  
BRANCH  12  13
HETATM   13  C   UNL     1      -8.007   7.812  72.089  1.00  0.00    -0.130 C  
BRANCH  13  14
HETATM   14  C   UNL     1      -9.128   6.817  72.361  1.00  0.00    -0.142 C  
BRANCH  14  15
HETATM   15  C   UNL     1     -10.032   6.686  71.144  1.00  0.00    -0.198 C  
BRANCH  15  16
HETATM   16  C   UNL     1     -11.495   6.813  71.549  1.00  0.00    -0.329 C  
BRANCH  16  17
HETATM   17  C   UNL     1     -11.658   7.837  72.666  1.00  0.00    -0.398 C  
BRANCH  17  18
HETATM   18  C   UNL     1     -12.700   8.883  72.288  1.00  0.00    -0.464 C  
BRANCH  18  19
HETATM   19  C   UNL     1     -12.394   9.483  70.920  1.00  0.00    -0.305 C  
BRANCH  19  20
HETATM   20  C   UNL     1     -12.313  11.004  71.003  1.00  0.00    -0.490 C  
BRANCH  20  21
HETATM   21  C   UNL     1     -13.386  11.558  71.933  1.00  0.00    -0.408 C  
BRANCH  21  22
HETATM   22  C   UNL     1     -13.164  13.039  72.212  1.00  0.00    -0.435 C  
HETATM   23  O   UNL     1     -14.384  13.637  72.632  1.00  0.00    -0.703 OA 
HETATM   24  H   UNL     1     -14.245  14.561  72.806  1.00  0.00     0.000 HD 
ENDBRANCH  21  22
ENDBRANCH  20  21
ENDBRANCH  19  20
ENDBRANCH  18  19
ENDBRANCH  17  18
ENDBRANCH  16  17
ENDBRANCH  15  16
ENDBRANCH  14  15
ENDBRANCH  13  14
ENDBRANCH  12  13
ENDBRANCH  11  12
ENDBRANCH  10  11
ENDBRANCH   9  10
ENDBRANCH   8   9
ENDBRANCH   7   8
ENDBRANCH   6   7
ENDBRANCH   5   6
ENDBRANCH   4   5
ENDBRANCH   3   4
ENDBRANCH   2   3
TORSDOF 20
ENDMDL
MODEL      311
REMARK 921   NORMALIZED FREE ENERGY PREDICTED BY IDOCK:   -2.89 KCAL/MOL
REMARK 922        TOTAL FREE ENERGY PREDICTED BY IDOCK:   -9.13 KCAL/MOL
REMARK 923 INTER-LIGAND FREE ENERGY PREDICTED BY IDOCK:   -6.95 KCAL/MOL
REMARK 924 INTRA-LIGAND FREE ENERGY PREDICTED BY IDOCK:   -2.18 KCAL/MOL
REMARK 927      BINDING AFFINITY PREDICTED BY RF-SCORE:    0.00 PKD
ROOT
HETATM    1  C   UNL     1      -6.088  20.980  63.850  1.00  0.00    -0.358 C  
HETATM    2  C   UNL     1      -5.637  19.718  64.565  1.00  0.00    -0.253 C  
ENDROOT
BRANCH   2   3
HETATM    3  C   UNL     1      -6.808  19.034  65.264  1.00  0.00    -0.138 C  
BRANCH   3   4
HETATM    4  C   UNL     1      -6.956  19.528  66.701  1.00  0.00    -0.216 C  
BRANCH   4   5
HETATM    5  C   UNL     1      -8.075  18.779  67.417  1.00  0.00    -0.265 C  
BRANCH   5   6
HETATM    6  C   UNL     1      -9.392  19.541  67.311  1.00  0.00    -0.403 C  
BRANCH   6   7
HETATM    7  C   UNL     1     -10.540  18.591  66.993  1.00  0.00    -0.421 C  
BRANCH   7   8
HETATM    8  C   UNL     1     -10.021  17.338  66.299  1.00  0.00    -0.311 C  
BRANCH   8   9
HETATM    9  C   UNL     1     -11.019  16.850  65.257  1.00  0.00    -0.049 C  
BRANCH   9  10
HETATM   10  C   UNL     1     -10.873  15.351  65.038  1.00  0.00    -0.462 C  
BRANCH  10  11
HETATM   11  C   UNL     1     -12.119  14.785  64.370  1.00  0.00    -0.457 C  
BRANCH  11  12
HETATM   12  C   UNL     1     -11.913  13.321  64.011  1.00  0.00    -0.525 C  
BRANCH  12  13
HETATM   13  C   UNL     1     -10.436  12.965  64.050  1.00  0.00    -0.395 C  
BRANCH  13  14
HETATM   14  C   UNL     1     -10.204  11.730  64.911  1.00  0.00    -0.315 C  
BRANCH  14  15
HETATM   15  C   UNL     1     -11.299  11.598  65.959  1.00  0.00    -0.261 C  
BRANCH  15  16
HETATM   16  C   UNL     1     -11.005  12.493  67.156  1.00  0.00    -0.302 C  
BRANCH  16  17
HETATM   17  C   UNL     1      -9.513  12.786  67.256  1.00  0.00    -0.204 C  
BRANCH  17  18
HETATM   18  C   UNL     1      -9.244  13.859  68.305  1.00  0.00    -0.207 C  
BRANCH  18  19
HETATM   19  C   UNL     1     -10.475  14.085  69.176  1.00  0.00    -0.103 C  
BRANCH  19  20
HETATM   20  C   UNL     1     -10.689  15.574  69.431  1.00  0.00    -0.251 C  
BRANCH  20  21
HETATM   21  C   UNL     1     -12.091  15.840  69.966  1.00  0.00    -0.344 C  
BRANCH  21  22
HETATM   22  C   UNL     1     -12.541  14.736  70.913  1.00  0.00    -0.336 C  
HETATM   23  O   UNL     1     -13.480  15.255  71.846  1.00  0.00    -0.378 OA 
HETATM   24  H   UNL     1     -13.760  14.565  72.436  1.00  0.00     0.000 HD 
ENDBRANCH  21  22
ENDBRANCH  20  21
ENDBRANCH  19  20
ENDBRANCH  18  19
ENDBRANCH  17  18
ENDBRANCH  16  17
ENDBRANCH  15  16
ENDBRANCH  14  15
ENDBRANCH  13  14
ENDBRANCH  12  13
ENDBRANCH  11  12
ENDBRANCH  10  11
ENDBRANCH   9  10
ENDBRANCH   8   9
ENDBRANCH   7   8
ENDBRANCH   6   7
ENDBRANCH   5   6
ENDBRANCH   4   5
ENDBRANCH   3   4
ENDBRANCH   2   3
TORSDOF 20
ENDMDL
MODEL      312
REMARK 921   NORMALIZED FREE ENERGY PREDICTED BY IDOCK:   -2.89 KCAL/MOL
REMARK 922        TOTAL FREE ENERGY PREDICTED BY IDOCK:   -9.13 KCAL/MOL
REMARK 923 INTER-LIGAND FREE ENERGY PREDICTED BY IDOCK:   -6.99 KCAL/MOL
REMARK 924 INTRA-LIGAND FREE ENERGY PREDICTED BY IDOCK:   -2.14 KCAL/MOL
REMARK 927      BINDING AFFINITY PREDICTED BY RF-SCORE:    0.00 PKD
ROOT
HETATM    1  C   UNL     1      -8.628   7.682  67.567  1.00  0.00    -0.119 C  
HETATM    2  C   UNL     1      -7.483   7.953  68.528  1.00  0.00    -0.096 C  
ENDROOT
BRANCH   2   3
HETATM    3  C   UNL     1      -6.890   6.650  69.057  1.00  0.00    -0.058 C  
BRANCH   3   4
HETATM    4  C   UNL     1      -7.285   6.417  70.513  1.00  0.00    -0.074 C  
BRANCH   4   5
HETATM    5  C   UNL     1      -7.764   4.983  70.719  1.00  0.00    -0.078 C  
BRANCH   5   6
HETATM    6  C   UNL     1      -8.322   4.405  69.423  1.00  0.00    -0.083 C  
BRANCH   6   7
HETATM    7  C   UNL     1      -9.846   4.444  69.429  1.00  0.00    -0.239 C  
BRANCH   7   8
HETATM    8  C   UNL     1     -10.359   5.128  70.690  1.00  0.00    -0.305 C  
BRANCH   8   9
HETATM    9  C   UNL     1     -11.148   6.382  70.337  1.00  0.00    -0.400 C  
BRANCH   9  10
HETATM   10  C   UNL     1     -10.716   7.549  71.213  1.00  0.00    -0.242 C  
BRANCH  10  11
HETATM   11  C   UNL     1     -11.830   8.582  71.314  1.00  0.00    -0.335 C  
BRANCH  11  12
HETATM   12  C   UNL     1     -11.332   9.949  70.867  1.00  0.00    -0.446 C  
BRANCH  12  13
HETATM   13  C   UNL     1     -11.033   9.944  69.376  1.00  0.00    -0.263 C  
BRANCH  13  14
HETATM   14  C   UNL     1     -10.490  11.297  68.934  1.00  0.00    -0.232 C  
BRANCH  14  15
HETATM   15  C   UNL     1     -11.627  12.221  68.523  1.00  0.00    -0.359 C  
BRANCH  15  16
HETATM   16  C   UNL     1     -11.600  12.467  67.020  1.00  0.00    -0.437 C  
BRANCH  16  17
HETATM   17  C   UNL     1     -12.147  13.852  66.692  1.00  0.00    -0.485 C  
BRANCH  17  18
HETATM   18  C   UNL     1     -12.487  13.957  65.210  1.00  0.00    -0.504 C  
BRANCH  18  19
HETATM   19  C   UNL     1     -12.688  12.575  64.600  1.00  0.00    -0.434 C  
BRANCH  19  20
HETATM   20  C   UNL     1     -11.855  12.418  63.332  1.00  0.00    -0.571 C  
BRANCH  20  21
HETATM   21  C   UNL     1     -10.371  12.312  63.663  1.00  0.00    -0.463 C  
BRANCH  21  22
HETATM   22  C   UNL     1      -9.825  10.933  63.319  1.00  0.00    -0.365 C  
HETATM   23  O   UNL     1     -10.064  10.038  64.397  1.00  0.00    -0.404 OA 
HETATM   24  H   UNL     1      -9.723   9.177  64.183  1.00  0.00     0.000 HD 
ENDBRANCH  21  22
ENDBRANCH  20  21
ENDBRANCH  19  20
ENDBRANCH  18  19
ENDBRANCH  17  18
ENDBRANCH  16  17
ENDBRANCH  15  16
ENDBRANCH  14  15
ENDBRANCH  13  14
ENDBRANCH  12  13
ENDBRANCH  11  12
ENDBRANCH  10  11
ENDBRANCH   9  10
ENDBRANCH   8   9
ENDBRANCH   7   8
ENDBRANCH   6   7
ENDBRANCH   5   6
ENDBRANCH   4   5
ENDBRANCH   3   4
ENDBRANCH   2   3
TORSDOF 20
ENDMDL
MODEL      313
REMARK 921   NORMALIZED FREE ENERGY PREDICTED BY IDOCK:   -2.87 KCAL/MOL
REMARK 922        TOTAL FREE ENERGY PREDICTED BY IDOCK:   -9.10 KCAL/MOL
REMARK 923 INTER-LIGAND FREE ENERGY PREDICTED BY IDOCK:   -7.07 KCAL/MOL
REMARK 924 INTRA-LIGAND FREE ENERGY PREDICTED BY IDOCK:   -2.03 KCAL/MOL
REMARK 927      BINDING AFFINITY PREDICTED BY RF-SCORE:    0.00 PKD
ROOT
HETATM    1  C   UNL     1      -9.542  14.619  67.919  1.00  0.00    -0.212 C  
HETATM    2  C   UNL     1     -10.697  14.390  68.879  1.00  0.00    -0.260 C  
ENDROOT
BRANCH   2   3
HETATM    3  C   UNL     1     -11.257  15.714  69.390  1.00  0.00    -0.313 C  
BRANCH   3   4
HETATM    4  C   UNL     1     -12.089  15.508  70.653  1.00  0.00    -0.430 C  
BRANCH   4   5
HETATM    5  C   UNL     1     -12.436  14.034  70.837  1.00  0.00    -0.439 C  
BRANCH   5   6
HETATM    6  C   UNL     1     -13.219  13.817  72.127  1.00  0.00    -0.538 C  
BRANCH   6   7
HETATM    7  C   UNL     1     -13.704  12.376  72.227  1.00  0.00    -0.271 C  
BRANCH   7   8
HETATM    8  C   UNL     1     -12.828  11.456  71.387  1.00  0.00    -0.502 C  
BRANCH   8   9
HETATM    9  C   UNL     1     -12.771  10.063  72.000  1.00  0.00    -0.439 C  
BRANCH   9  10
HETATM   10  C   UNL     1     -11.579   9.288  71.456  1.00  0.00    -0.452 C  
BRANCH  10  11
HETATM   11  C   UNL     1     -11.268   8.093  72.346  1.00  0.00    -0.452 C  
BRANCH  11  12
HETATM   12  C   UNL     1     -12.089   6.884  71.921  1.00  0.00    -0.370 C  
BRANCH  12  13
HETATM   13  C   UNL     1     -12.254   6.857  70.410  1.00  0.00    -0.175 C  
BRANCH  13  14
HETATM   14  C   UNL     1     -11.100   6.105  69.759  1.00  0.00    -0.486 C  
BRANCH  14  15
HETATM   15  C   UNL     1     -11.134   6.281  68.248  1.00  0.00    -0.364 C  
BRANCH  15  16
HETATM   16  C   UNL     1      -9.859   6.955  67.758  1.00  0.00    -0.161 C  
BRANCH  16  17
HETATM   17  C   UNL     1      -9.641   8.281  68.477  1.00  0.00    -0.154 C  
BRANCH  17  18
HETATM   18  C   UNL     1     -10.591   9.346  67.940  1.00  0.00    -0.293 C  
BRANCH  18  19
HETATM   19  C   UNL     1      -9.991  10.043  66.723  1.00  0.00    -0.267 C  
BRANCH  19  20
HETATM   20  C   UNL     1      -8.810  10.918  67.130  1.00  0.00    -0.135 C  
BRANCH  20  21
HETATM   21  C   UNL     1      -7.618  10.691  66.208  1.00  0.00    -0.137 C  
BRANCH  21  22
HETATM   22  C   UNL     1      -8.013   9.871  64.986  1.00  0.00    -0.137 C  
HETATM   23  O   UNL     1      -6.957   8.983  64.641  1.00  0.00    -0.083 OA 
HETATM   24  H   UNL     1      -7.203   8.472  63.879  1.00  0.00     0.000 HD 
ENDBRANCH  21  22
ENDBRANCH  20  21
ENDBRANCH  19  20
ENDBRANCH  18  19
ENDBRANCH  17  18
ENDBRANCH  16  17
ENDBRANCH  15  16
ENDBRANCH  14  15
ENDBRANCH  13  14
ENDBRANCH  12  13
ENDBRANCH  11  12
ENDBRANCH  10  11
ENDBRANCH   9  10
ENDBRANCH   8   9
ENDBRANCH   7   8
ENDBRANCH   6   7
ENDBRANCH   5   6
ENDBRANCH   4   5
ENDBRANCH   3   4
ENDBRANCH   2   3
TORSDOF 20
ENDMDL
MODEL      314
REMARK 921   NORMALIZED FREE ENERGY PREDICTED BY IDOCK:   -2.87 KCAL/MOL
REMARK 922        TOTAL FREE ENERGY PREDICTED BY IDOCK:   -9.10 KCAL/MOL
REMARK 923 INTER-LIGAND FREE ENERGY PREDICTED BY IDOCK:   -6.55 KCAL/MOL
REMARK 924 INTRA-LIGAND FREE ENERGY PREDICTED BY IDOCK:   -2.56 KCAL/MOL
REMARK 927      BINDING AFFINITY PREDICTED BY RF-SCORE:    0.00 PKD
ROOT
HETATM    1  C   UNL     1     -12.522  10.518  70.597  1.00  0.00    -0.456 C  
HETATM    2  C   UNL     1     -12.869   9.737  71.853  1.00  0.00    -0.520 C  
ENDROOT
BRANCH   2   3
HETATM    3  C   UNL     1     -11.891   8.587  72.073  1.00  0.00    -0.429 C  
BRANCH   3   4
HETATM    4  C   UNL     1     -11.313   8.095  70.749  1.00  0.00    -0.283 C  
BRANCH   4   5
HETATM    5  C   UNL     1     -11.509   6.590  70.600  1.00  0.00    -0.433 C  
BRANCH   5   6
HETATM    6  C   UNL     1     -10.706   6.052  69.420  1.00  0.00    -0.403 C  
BRANCH   6   7
HETATM    7  C   UNL     1     -10.599   7.100  68.319  1.00  0.00    -0.230 C  
BRANCH   7   8
HETATM    8  C   UNL     1     -10.938   6.492  66.965  1.00  0.00    -0.466 C  
BRANCH   8   9
HETATM    9  C   UNL     1     -10.486   5.039  66.901  1.00  0.00    -0.243 C  
BRANCH   9  10
HETATM   10  C   UNL     1     -10.474   4.546  65.461  1.00  0.00    -0.241 C  
BRANCH  10  11
HETATM   11  C   UNL     1      -9.071   4.120  65.054  1.00  0.00    -0.143 C  
BRANCH  11  12
HETATM   12  C   UNL     1      -8.223   5.336  64.709  1.00  0.00    -0.130 C  
BRANCH  12  13
HETATM   13  C   UNL     1      -7.082   5.489  65.702  1.00  0.00    -0.067 C  
BRANCH  13  14
HETATM   14  C   UNL     1      -7.239   6.774  66.505  1.00  0.00    -0.073 C  
BRANCH  14  15
HETATM   15  C   UNL     1      -6.678   7.958  65.732  1.00  0.00    -0.045 C  
BRANCH  15  16
HETATM   16  C   UNL     1      -7.619   9.152  65.823  1.00  0.00    -0.091 C  
BRANCH  16  17
HETATM   17  C   UNL     1      -8.905   8.884  65.050  1.00  0.00    -0.183 C  
BRANCH  17  18
HETATM   18  C   UNL     1      -9.873  10.051  65.197  1.00  0.00    -0.388 C  
BRANCH  18  19
HETATM   19  C   UNL     1     -10.048  10.430  66.664  1.00  0.00    -0.279 C  
BRANCH  19  20
HETATM   20  C   UNL     1     -11.103  11.520  66.818  1.00  0.00    -0.361 C  
BRANCH  20  21
HETATM   21  C   UNL     1     -10.732  12.758  66.011  1.00  0.00    -0.295 C  
BRANCH  21  22
HETATM   22  C   UNL     1     -11.085  14.035  66.762  1.00  0.00    -0.306 C  
HETATM   23  O   UNL     1     -12.378  13.911  67.340  1.00  0.00    -0.479 OA 
HETATM   24  H   UNL     1     -12.599  14.707  67.809  1.00  0.00     0.000 HD 
ENDBRANCH  21  22
ENDBRANCH  20  21
ENDBRANCH  19  20
ENDBRANCH  18  19
ENDBRANCH  17  18
ENDBRANCH  16  17
ENDBRANCH  15  16
ENDBRANCH  14  15
ENDBRANCH  13  14
ENDBRANCH  12  13
ENDBRANCH  11  12
ENDBRANCH  10  11
ENDBRANCH   9  10
ENDBRANCH   8   9
ENDBRANCH   7   8
ENDBRANCH   6   7
ENDBRANCH   5   6
ENDBRANCH   4   5
ENDBRANCH   3   4
ENDBRANCH   2   3
TORSDOF 20
ENDMDL
MODEL      315
REMARK 921   NORMALIZED FREE ENERGY PREDICTED BY IDOCK:   -2.87 KCAL/MOL
REMARK 922        TOTAL FREE ENERGY PREDICTED BY IDOCK:   -9.10 KCAL/MOL
REMARK 923 INTER-LIGAND FREE ENERGY PREDICTED BY IDOCK:   -6.79 KCAL/MOL
REMARK 924 INTRA-LIGAND FREE ENERGY PREDICTED BY IDOCK:   -2.30 KCAL/MOL
REMARK 927      BINDING AFFINITY PREDICTED BY RF-SCORE:    0.00 PKD
ROOT
HETATM    1  C   UNL     1     -12.452  11.902  63.356  1.00  0.00    -0.582 C  
HETATM    2  C   UNL     1     -11.463  12.886  63.956  1.00  0.00    -0.478 C  
ENDROOT
BRANCH   2   3
HETATM    3  C   UNL     1     -12.183  13.994  64.718  1.00  0.00    -0.454 C  
BRANCH   3   4
HETATM    4  C   UNL     1     -11.222  14.747  65.634  1.00  0.00    -0.343 C  
BRANCH   4   5
HETATM    5  C   UNL     1     -11.614  14.563  67.097  1.00  0.00    -0.406 C  
BRANCH   5   6
HETATM    6  C   UNL     1     -10.661  13.599  67.797  1.00  0.00    -0.255 C  
BRANCH   6   7
HETATM    7  C   UNL     1     -11.431  12.634  68.689  1.00  0.00    -0.347 C  
BRANCH   7   8
HETATM    8  C   UNL     1     -11.760  11.352  67.934  1.00  0.00    -0.300 C  
BRANCH   8   9
HETATM    9  C   UNL     1     -10.712  11.077  66.863  1.00  0.00    -0.325 C  
BRANCH   9  10
HETATM   10  C   UNL     1      -9.760   9.980  67.316  1.00  0.00    -0.206 C  
BRANCH  10  11
HETATM   11  C   UNL     1     -10.502   8.934  68.137  1.00  0.00    -0.254 C  
BRANCH  11  12
HETATM   12  C   UNL     1      -9.981   8.912  69.568  1.00  0.00    -0.191 C  
BRANCH  12  13
HETATM   13  C   UNL     1     -11.068   8.443  70.522  1.00  0.00    -0.267 C  
BRANCH  13  14
HETATM   14  C   UNL     1     -10.712   8.804  71.958  1.00  0.00    -0.417 C  
BRANCH  14  15
HETATM   15  C   UNL     1      -9.212   8.687  72.182  1.00  0.00    -0.326 C  
BRANCH  15  16
HETATM   16  C   UNL     1      -8.921   7.912  73.461  1.00  0.00    -0.343 C  
BRANCH  16  17
HETATM   17  C   UNL     1      -8.394   6.519  73.137  1.00  0.00    -0.120 C  
BRANCH  17  18
HETATM   18  C   UNL     1      -9.322   5.449  73.702  1.00  0.00    -0.133 C  
BRANCH  18  19
HETATM   19  C   UNL     1     -10.227   4.886  72.612  1.00  0.00    -0.238 C  
BRANCH  19  20
HETATM   20  C   UNL     1      -9.405   4.427  71.412  1.00  0.00    -0.206 C  
BRANCH  20  21
HETATM   21  C   UNL     1     -10.016   4.927  70.108  1.00  0.00    -0.325 C  
BRANCH  21  22
HETATM   22  C   UNL     1      -9.217   4.447  68.904  1.00  0.00    -0.140 C  
HETATM   23  O   UNL     1      -9.247   3.027  68.842  1.00  0.00    -0.137 OA 
HETATM   24  H   UNL     1      -8.748   2.728  68.090  1.00  0.00     0.000 HD 
ENDBRANCH  21  22
ENDBRANCH  20  21
ENDBRANCH  19  20
ENDBRANCH  18  19
ENDBRANCH  17  18
ENDBRANCH  16  17
ENDBRANCH  15  16
ENDBRANCH  14  15
ENDBRANCH  13  14
ENDBRANCH  12  13
ENDBRANCH  11  12
ENDBRANCH  10  11
ENDBRANCH   9  10
ENDBRANCH   8   9
ENDBRANCH   7   8
ENDBRANCH   6   7
ENDBRANCH   5   6
ENDBRANCH   4   5
ENDBRANCH   3   4
ENDBRANCH   2   3
TORSDOF 20
ENDMDL
MODEL      316
REMARK 921   NORMALIZED FREE ENERGY PREDICTED BY IDOCK:   -2.87 KCAL/MOL
REMARK 922        TOTAL FREE ENERGY PREDICTED BY IDOCK:   -9.09 KCAL/MOL
REMARK 923 INTER-LIGAND FREE ENERGY PREDICTED BY IDOCK:   -5.44 KCAL/MOL
REMARK 924 INTRA-LIGAND FREE ENERGY PREDICTED BY IDOCK:   -3.65 KCAL/MOL
REMARK 927      BINDING AFFINITY PREDICTED BY RF-SCORE:    0.00 PKD
ROOT
HETATM    1  C   UNL     1     -12.697   7.615  71.384  1.00  0.00    -0.357 C  
HETATM    2  C   UNL     1     -11.705   6.745  72.137  1.00  0.00    -0.332 C  
ENDROOT
BRANCH   2   3
HETATM    3  C   UNL     1     -10.413   7.506  72.422  1.00  0.00    -0.291 C  
BRANCH   3   4
HETATM    4  C   UNL     1     -10.350   8.803  71.621  1.00  0.00    -0.391 C  
BRANCH   4   5
HETATM    5  C   UNL     1      -8.976   8.975  70.979  1.00  0.00    -0.304 C  
BRANCH   5   6
HETATM    6  C   UNL     1      -8.087   7.769  71.268  1.00  0.00    -0.096 C  
BRANCH   6   7
HETATM    7  C   UNL     1      -7.140   7.508  70.104  1.00  0.00    -0.060 C  
BRANCH   7   8
HETATM    8  C   UNL     1      -7.415   8.476  68.961  1.00  0.00    -0.089 C  
BRANCH   8   9
HETATM    9  C   UNL     1      -7.007   7.862  67.628  1.00  0.00    -0.074 C  
BRANCH   9  10
HETATM   10  C   UNL     1      -6.289   6.538  67.847  1.00  0.00    -0.040 C  
BRANCH  10  11
HETATM   11  C   UNL     1      -6.580   5.578  66.702  1.00  0.00    -0.056 C  
BRANCH  11  12
HETATM   12  C   UNL     1      -8.035   5.134  66.734  1.00  0.00    -0.104 C  
BRANCH  12  13
HETATM   13  C   UNL     1      -8.364   4.484  68.069  1.00  0.00    -0.094 C  
BRANCH  13  14
HETATM   14  C   UNL     1      -9.858   4.571  68.354  1.00  0.00    -0.153 C  
BRANCH  14  15
HETATM   15  C   UNL     1     -10.220   5.950  68.885  1.00  0.00    -0.254 C  
BRANCH  15  16
HETATM   16  C   UNL     1     -11.213   6.638  67.957  1.00  0.00    -0.217 C  
BRANCH  16  17
HETATM   17  C   UNL     1     -10.553   7.808  67.236  1.00  0.00    -0.376 C  
BRANCH  17  18
HETATM   18  C   UNL     1     -10.766   9.104  68.009  1.00  0.00    -0.205 C  
BRANCH  18  19
HETATM   19  C   UNL     1     -10.600  10.313  67.095  1.00  0.00    -0.320 C  
BRANCH  19  20
HETATM   20  C   UNL     1     -11.273  11.542  67.698  1.00  0.00    -0.343 C  
BRANCH  20  21
HETATM   21  C   UNL     1     -10.701  12.824  67.107  1.00  0.00    -0.264 C  
BRANCH  21  22
HETATM   22  C   UNL     1     -11.803  13.711  66.541  1.00  0.00    -0.404 C  
HETATM   23  O   UNL     1     -12.388  14.478  67.585  1.00  0.00    -0.617 OA 
HETATM   24  H   UNL     1     -13.075  15.031  67.232  1.00  0.00     0.000 HD 
ENDBRANCH  21  22
ENDBRANCH  20  21
ENDBRANCH  19  20
ENDBRANCH  18  19
ENDBRANCH  17  18
ENDBRANCH  16  17
ENDBRANCH  15  16
ENDBRANCH  14  15
ENDBRANCH  13  14
ENDBRANCH  12  13
ENDBRANCH  11  12
ENDBRANCH  10  11
ENDBRANCH   9  10
ENDBRANCH   8   9
ENDBRANCH   7   8
ENDBRANCH   6   7
ENDBRANCH   5   6
ENDBRANCH   4   5
ENDBRANCH   3   4
ENDBRANCH   2   3
TORSDOF 20
ENDMDL
MODEL      317
REMARK 921   NORMALIZED FREE ENERGY PREDICTED BY IDOCK:   -2.85 KCAL/MOL
REMARK 922        TOTAL FREE ENERGY PREDICTED BY IDOCK:   -9.05 KCAL/MOL
REMARK 923 INTER-LIGAND FREE ENERGY PREDICTED BY IDOCK:   -6.52 KCAL/MOL
REMARK 924 INTRA-LIGAND FREE ENERGY PREDICTED BY IDOCK:   -2.53 KCAL/MOL
REMARK 927      BINDING AFFINITY PREDICTED BY RF-SCORE:    0.00 PKD
ROOT
HETATM    1  C   UNL     1     -11.504   9.387  71.415  1.00  0.00    -0.449 C  
HETATM    2  C   UNL     1     -10.258   8.752  72.008  1.00  0.00    -0.401 C  
ENDROOT
BRANCH   2   3
HETATM    3  C   UNL     1      -9.239   8.421  70.921  1.00  0.00    -0.192 C  
BRANCH   3   4
HETATM    4  C   UNL     1      -8.742   9.687  70.230  1.00  0.00    -0.248 C  
BRANCH   4   5
HETATM    5  C   UNL     1      -8.723   9.503  68.715  1.00  0.00    -0.128 C  
BRANCH   5   6
HETATM    6  C   UNL     1     -10.103   9.109  68.199  1.00  0.00    -0.225 C  
BRANCH   6   7
HETATM    7  C   UNL     1     -10.273   9.526  66.744  1.00  0.00    -0.313 C  
BRANCH   7   8
HETATM    8  C   UNL     1      -9.262   8.808  65.859  1.00  0.00    -0.282 C  
BRANCH   8   9
HETATM    9  C   UNL     1      -9.132   9.511  64.514  1.00  0.00    -0.250 C  
BRANCH   9  10
HETATM   10  C   UNL     1      -9.552  10.969  64.630  1.00  0.00    -0.297 C  
BRANCH  10  11
HETATM   11  C   UNL     1     -10.426  11.369  63.449  1.00  0.00    -0.452 C  
BRANCH  11  12
HETATM   12  C   UNL     1     -11.089  12.714  63.708  1.00  0.00    -0.504 C  
BRANCH  12  13
HETATM   13  C   UNL     1     -12.457  12.520  64.344  1.00  0.00    -0.530 C  
BRANCH  13  14
HETATM   14  C   UNL     1     -12.659  13.503  65.489  1.00  0.00    -0.531 C  
BRANCH  14  15
HETATM   15  C   UNL     1     -11.510  13.410  66.482  1.00  0.00    -0.372 C  
BRANCH  15  16
HETATM   16  C   UNL     1     -11.890  12.522  67.660  1.00  0.00    -0.381 C  
BRANCH  16  17
HETATM   17  C   UNL     1     -10.851  12.628  68.771  1.00  0.00    -0.267 C  
BRANCH  17  18
HETATM   18  C   UNL     1     -10.443  14.080  68.988  1.00  0.00    -0.169 C  
BRANCH  18  19
HETATM   19  C   UNL     1      -9.177  14.411  68.205  1.00  0.00    -0.201 C  
BRANCH  19  20
HETATM   20  C   UNL     1      -8.126  13.322  68.394  1.00  0.00    -0.134 C  
BRANCH  20  21
HETATM   21  C   UNL     1      -7.418  13.011  67.081  1.00  0.00    -0.004 C  
BRANCH  21  22
HETATM   22  C   UNL     1      -6.872  11.590  67.070  1.00  0.00    -0.147 C  
HETATM   23  O   UNL     1      -5.644  11.541  67.784  1.00  0.00    -0.044 OA 
HETATM   24  H   UNL     1      -5.303  10.654  67.777  1.00  0.00     0.000 HD 
ENDBRANCH  21  22
ENDBRANCH  20  21
ENDBRANCH  19  20
ENDBRANCH  18  19
ENDBRANCH  17  18
ENDBRANCH  16  17
ENDBRANCH  15  16
ENDBRANCH  14  15
ENDBRANCH  13  14
ENDBRANCH  12  13
ENDBRANCH  11  12
ENDBRANCH  10  11
ENDBRANCH   9  10
ENDBRANCH   8   9
ENDBRANCH   7   8
ENDBRANCH   6   7
ENDBRANCH   5   6
ENDBRANCH   4   5
ENDBRANCH   3   4
ENDBRANCH   2   3
TORSDOF 20
ENDMDL
MODEL      318
REMARK 921   NORMALIZED FREE ENERGY PREDICTED BY IDOCK:   -2.84 KCAL/MOL
REMARK 922        TOTAL FREE ENERGY PREDICTED BY IDOCK:   -9.04 KCAL/MOL
REMARK 923 INTER-LIGAND FREE ENERGY PREDICTED BY IDOCK:   -6.72 KCAL/MOL
REMARK 924 INTRA-LIGAND FREE ENERGY PREDICTED BY IDOCK:   -2.32 KCAL/MOL
REMARK 927      BINDING AFFINITY PREDICTED BY RF-SCORE:    0.00 PKD
ROOT
HETATM    1  C   UNL     1      -7.118  17.370  67.362  1.00  0.00    -0.186 C  
HETATM    2  C   UNL     1      -8.214  17.804  66.404  1.00  0.00    -0.290 C  
ENDROOT
BRANCH   2   3
HETATM    3  C   UNL     1      -9.121  16.632  66.038  1.00  0.00    -0.259 C  
BRANCH   3   4
HETATM    4  C   UNL     1     -10.255  16.478  67.047  1.00  0.00    -0.288 C  
BRANCH   4   5
HETATM    5  C   UNL     1     -10.135  15.155  67.798  1.00  0.00    -0.230 C  
BRANCH   5   6
HETATM    6  C   UNL     1     -10.427  13.978  66.873  1.00  0.00    -0.276 C  
BRANCH   6   7
HETATM    7  C   UNL     1     -11.863  13.499  67.050  1.00  0.00    -0.447 C  
BRANCH   7   8
HETATM    8  C   UNL     1     -12.706  13.874  65.838  1.00  0.00    -0.466 C  
BRANCH   8   9
HETATM    9  C   UNL     1     -11.824  14.094  64.617  1.00  0.00    -0.443 C  
BRANCH   9  10
HETATM   10  C   UNL     1     -12.271  13.205  63.466  1.00  0.00    -0.552 C  
BRANCH  10  11
HETATM   11  C   UNL     1     -11.644  11.823  63.583  1.00  0.00    -0.521 C  
BRANCH  11  12
HETATM   12  C   UNL     1     -10.134  11.935  63.745  1.00  0.00    -0.423 C  
BRANCH  12  13
HETATM   13  C   UNL     1      -9.681  11.233  65.016  1.00  0.00    -0.293 C  
BRANCH  13  14
HETATM   14  C   UNL     1      -9.585   9.730  64.792  1.00  0.00    -0.284 C  
BRANCH  14  15
HETATM   15  C   UNL     1      -9.373   9.007  66.114  1.00  0.00    -0.294 C  
BRANCH  15  16
HETATM   16  C   UNL     1     -10.492   9.340  67.092  1.00  0.00    -0.319 C  
BRANCH  16  17
HETATM   17  C   UNL     1     -10.255   8.657  68.434  1.00  0.00    -0.232 C  
BRANCH  17  18
HETATM   18  C   UNL     1      -8.823   8.145  68.531  1.00  0.00    -0.134 C  
BRANCH  18  19
HETATM   19  C   UNL     1      -8.764   6.848  69.331  1.00  0.00    -0.133 C  
BRANCH  19  20
HETATM   20  C   UNL     1      -9.131   5.656  68.454  1.00  0.00    -0.121 C  
BRANCH  20  21
HETATM   21  C   UNL     1      -8.090   5.438  67.363  1.00  0.00    -0.101 C  
BRANCH  21  22
HETATM   22  C   UNL     1      -8.737   5.369  65.986  1.00  0.00    -0.137 C  
HETATM   23  O   UNL     1     -10.148   5.493  66.111  1.00  0.00    -0.296 OA 
HETATM   24  H   UNL     1     -10.552   5.450  65.253  1.00  0.00     0.000 HD 
ENDBRANCH  21  22
ENDBRANCH  20  21
ENDBRANCH  19  20
ENDBRANCH  18  19
ENDBRANCH  17  18
ENDBRANCH  16  17
ENDBRANCH  15  16
ENDBRANCH  14  15
ENDBRANCH  13  14
ENDBRANCH  12  13
ENDBRANCH  11  12
ENDBRANCH  10  11
ENDBRANCH   9  10
ENDBRANCH   8   9
ENDBRANCH   7   8
ENDBRANCH   6   7
ENDBRANCH   5   6
ENDBRANCH   4   5
ENDBRANCH   3   4
ENDBRANCH   2   3
TORSDOF 20
ENDMDL
MODEL      319
REMARK 921   NORMALIZED FREE ENERGY PREDICTED BY IDOCK:   -2.84 KCAL/MOL
REMARK 922        TOTAL FREE ENERGY PREDICTED BY IDOCK:   -9.03 KCAL/MOL
REMARK 923 INTER-LIGAND FREE ENERGY PREDICTED BY IDOCK:   -6.42 KCAL/MOL
REMARK 924 INTRA-LIGAND FREE ENERGY PREDICTED BY IDOCK:   -2.62 KCAL/MOL
REMARK 927      BINDING AFFINITY PREDICTED BY RF-SCORE:    0.00 PKD
ROOT
HETATM    1  C   UNL     1      -5.775  14.168  69.635  1.00  0.00    -0.101 C  
HETATM    2  C   UNL     1      -7.093  14.917  69.728  1.00  0.00    -0.156 C  
ENDROOT
BRANCH   2   3
HETATM    3  C   UNL     1      -7.416  15.625  68.415  1.00  0.00    -0.120 C  
BRANCH   3   4
HETATM    4  C   UNL     1      -8.105  14.679  67.435  1.00  0.00    -0.216 C  
BRANCH   4   5
HETATM    5  C   UNL     1      -9.056  13.739  68.170  1.00  0.00    -0.194 C  
BRANCH   5   6
HETATM    6  C   UNL     1      -8.863  12.300  67.704  1.00  0.00    -0.175 C  
BRANCH   6   7
HETATM    7  C   UNL     1      -9.592  11.333  68.629  1.00  0.00    -0.195 C  
BRANCH   7   8
HETATM    8  C   UNL     1     -10.688  10.592  67.875  1.00  0.00    -0.305 C  
BRANCH   8   9
HETATM    9  C   UNL     1     -10.434   9.090  67.899  1.00  0.00    -0.291 C  
BRANCH   9  10
HETATM   10  C   UNL     1      -8.995   8.785  67.509  1.00  0.00    -0.142 C  
BRANCH  10  11
HETATM   11  C   UNL     1      -8.928   8.263  66.081  1.00  0.00    -0.222 C  
BRANCH  11  12
HETATM   12  C   UNL     1      -8.528   9.378  65.124  1.00  0.00    -0.166 C  
BRANCH  12  13
HETATM   13  C   UNL     1      -9.761   9.997  64.483  1.00  0.00    -0.310 C  
BRANCH  13  14
HETATM   14  C   UNL     1      -9.366  10.883  63.310  1.00  0.00    -0.324 C  
BRANCH  14  15
HETATM   15  C   UNL     1     -10.296  12.083  63.210  1.00  0.00    -0.398 C  
BRANCH  15  16
HETATM   16  C   UNL     1     -11.679  11.734  63.744  1.00  0.00    -0.499 C  
BRANCH  16  17
HETATM   17  C   UNL     1     -12.051  12.642  64.911  1.00  0.00    -0.494 C  
BRANCH  17  18
HETATM   18  C   UNL     1     -11.062  13.796  65.029  1.00  0.00    -0.348 C  
BRANCH  18  19
HETATM   19  C   UNL     1     -11.779  15.138  64.926  1.00  0.00    -0.290 C  
BRANCH  19  20
HETATM   20  C   UNL     1     -10.792  16.290  65.080  1.00  0.00    -0.337 C  
BRANCH  20  21
HETATM   21  C   UNL     1     -10.654  16.699  66.541  1.00  0.00    -0.203 C  
BRANCH  21  22
HETATM   22  C   UNL     1     -10.163  18.136  66.669  1.00  0.00    -0.381 C  
HETATM   23  O   UNL     1     -10.444  18.848  65.472  1.00  0.00    -0.550 OA 
HETATM   24  H   UNL     1     -10.138  19.744  65.552  1.00  0.00     0.000 HD 
ENDBRANCH  21  22
ENDBRANCH  20  21
ENDBRANCH  19  20
ENDBRANCH  18  19
ENDBRANCH  17  18
ENDBRANCH  16  17
ENDBRANCH  15  16
ENDBRANCH  14  15
ENDBRANCH  13  14
ENDBRANCH  12  13
ENDBRANCH  11  12
ENDBRANCH  10  11
ENDBRANCH   9  10
ENDBRANCH   8   9
ENDBRANCH   7   8
ENDBRANCH   6   7
ENDBRANCH   5   6
ENDBRANCH   4   5
ENDBRANCH   3   4
ENDBRANCH   2   3
TORSDOF 20
ENDMDL
MODEL      320
REMARK 921   NORMALIZED FREE ENERGY PREDICTED BY IDOCK:   -2.83 KCAL/MOL
REMARK 922        TOTAL FREE ENERGY PREDICTED BY IDOCK:   -9.02 KCAL/MOL
REMARK 923 INTER-LIGAND FREE ENERGY PREDICTED BY IDOCK:   -7.22 KCAL/MOL
REMARK 924 INTRA-LIGAND FREE ENERGY PREDICTED BY IDOCK:   -1.80 KCAL/MOL
REMARK 927      BINDING AFFINITY PREDICTED BY RF-SCORE:    0.00 PKD
ROOT
HETATM    1  C   UNL     1      -7.922   8.103  73.456  1.00  0.00    -0.247 C  
HETATM    2  C   UNL     1      -9.435   8.078  73.322  1.00  0.00    -0.336 C  
ENDROOT
BRANCH   2   3
HETATM    3  C   UNL     1      -9.890   6.917  72.442  1.00  0.00    -0.172 C  
BRANCH   3   4
HETATM    4  C   UNL     1      -9.753   7.262  70.962  1.00  0.00    -0.169 C  
BRANCH   4   5
HETATM    5  C   UNL     1     -10.983   6.803  70.184  1.00  0.00    -0.340 C  
BRANCH   5   6
HETATM    6  C   UNL     1     -10.584   5.903  69.020  1.00  0.00    -0.360 C  
BRANCH   6   7
HETATM    7  C   UNL     1     -11.263   6.355  67.733  1.00  0.00    -0.258 C  
BRANCH   7   8
HETATM    8  C   UNL     1     -10.540   7.557  67.139  1.00  0.00    -0.415 C  
BRANCH   8   9
HETATM    9  C   UNL     1      -9.033   7.342  67.163  1.00  0.00    -0.134 C  
BRANCH   9  10
HETATM   10  C   UNL     1      -8.302   8.646  66.876  1.00  0.00    -0.108 C  
BRANCH  10  11
HETATM   11  C   UNL     1      -9.094   9.831  67.411  1.00  0.00    -0.148 C  
BRANCH  11  12
HETATM   12  C   UNL     1      -9.039  10.996  66.433  1.00  0.00    -0.191 C  
BRANCH  12  13
HETATM   13  C   UNL     1      -9.106  10.492  65.000  1.00  0.00    -0.231 C  
BRANCH  13  14
HETATM   14  C   UNL     1     -10.484  10.750  64.406  1.00  0.00    -0.344 C  
BRANCH  14  15
HETATM   15  C   UNL     1     -10.456  11.974  63.503  1.00  0.00    -0.505 C  
BRANCH  15  16
HETATM   16  C   UNL     1     -10.744  13.237  64.304  1.00  0.00    -0.408 C  
BRANCH  16  17
HETATM   17  C   UNL     1     -12.167  13.216  64.849  1.00  0.00    -0.477 C  
BRANCH  17  18
HETATM   18  C   UNL     1     -12.161  13.025  66.362  1.00  0.00    -0.428 C  
BRANCH  18  19
HETATM   19  C   UNL     1     -11.376  14.139  67.045  1.00  0.00    -0.346 C  
BRANCH  19  20
HETATM   20  C   UNL     1     -11.875  14.355  68.470  1.00  0.00    -0.369 C  
BRANCH  20  21
HETATM   21  C   UNL     1     -10.933  15.267  69.247  1.00  0.00    -0.261 C  
BRANCH  21  22
HETATM   22  C   UNL     1     -11.569  15.739  70.548  1.00  0.00    -0.375 C  
HETATM   23  O   UNL     1     -12.973  15.525  70.503  1.00  0.00    -0.599 OA 
HETATM   24  H   UNL     1     -13.370  15.819  71.315  1.00  0.00     0.000 HD 
ENDBRANCH  21  22
ENDBRANCH  20  21
ENDBRANCH  19  20
ENDBRANCH  18  19
ENDBRANCH  17  18
ENDBRANCH  16  17
ENDBRANCH  15  16
ENDBRANCH  14  15
ENDBRANCH  13  14
ENDBRANCH  12  13
ENDBRANCH  11  12
ENDBRANCH  10  11
ENDBRANCH   9  10
ENDBRANCH   8   9
ENDBRANCH   7   8
ENDBRANCH   6   7
ENDBRANCH   5   6
ENDBRANCH   4   5
ENDBRANCH   3   4
ENDBRANCH   2   3
TORSDOF 20
ENDMDL
MODEL      321
REMARK 921   NORMALIZED FREE ENERGY PREDICTED BY IDOCK:   -2.83 KCAL/MOL
REMARK 922        TOTAL FREE ENERGY PREDICTED BY IDOCK:   -9.00 KCAL/MOL
REMARK 923 INTER-LIGAND FREE ENERGY PREDICTED BY IDOCK:   -6.71 KCAL/MOL
REMARK 924 INTRA-LIGAND FREE ENERGY PREDICTED BY IDOCK:   -2.29 KCAL/MOL
REMARK 927      BINDING AFFINITY PREDICTED BY RF-SCORE:    0.00 PKD
ROOT
HETATM    1  C   UNL     1      -9.726   4.320  69.985  1.00  0.00    -0.287 C  
HETATM    2  C   UNL     1      -9.854   5.653  70.702  1.00  0.00    -0.244 C  
ENDROOT
BRANCH   2   3
HETATM    3  C   UNL     1     -10.269   5.456  72.157  1.00  0.00    -0.253 C  
BRANCH   3   4
HETATM    4  C   UNL     1     -11.740   5.808  72.363  1.00  0.00    -0.281 C  
BRANCH   4   5
HETATM    5  C   UNL     1     -12.237   6.724  71.248  1.00  0.00    -0.415 C  
BRANCH   5   6
HETATM    6  C   UNL     1     -13.403   7.581  71.729  1.00  0.00    -0.370 C  
BRANCH   6   7
HETATM    7  C   UNL     1     -12.929   8.986  72.080  1.00  0.00    -0.470 C  
BRANCH   7   8
HETATM    8  C   UNL     1     -11.602   9.290  71.398  1.00  0.00    -0.437 C  
BRANCH   8   9
HETATM    9  C   UNL     1     -11.730  10.510  70.495  1.00  0.00    -0.443 C  
BRANCH   9  10
HETATM   10  C   UNL     1     -12.610  11.568  71.147  1.00  0.00    -0.463 C  
BRANCH  10  11
HETATM   11  C   UNL     1     -12.192  12.961  70.698  1.00  0.00    -0.386 C  
BRANCH  11  12
HETATM   12  C   UNL     1     -12.031  13.009  69.186  1.00  0.00    -0.320 C  
BRANCH  12  13
HETATM   13  C   UNL     1     -11.919  14.448  68.707  1.00  0.00    -0.331 C  
BRANCH  13  14
HETATM   14  C   UNL     1     -11.615  15.378  69.874  1.00  0.00    -0.342 C  
BRANCH  14  15
HETATM   15  C   UNL     1     -10.440  16.285  69.542  1.00  0.00    -0.299 C  
BRANCH  15  16
HETATM   16  C   UNL     1      -9.159  15.473  69.403  1.00  0.00    -0.280 C  
BRANCH  16  17
HETATM   17  C   UNL     1      -8.525  15.697  68.035  1.00  0.00    -0.146 C  
BRANCH  17  18
HETATM   18  C   UNL     1      -7.912  14.405  67.509  1.00  0.00    -0.208 C  
BRANCH  18  19
HETATM   19  C   UNL     1      -8.970  13.537  66.835  1.00  0.00    -0.219 C  
BRANCH  19  20
HETATM   20  C   UNL     1      -8.518  12.082  66.778  1.00  0.00    -0.155 C  
BRANCH  20  21
HETATM   21  C   UNL     1      -9.299  11.228  67.769  1.00  0.00    -0.163 C  
BRANCH  21  22
HETATM   22  C   UNL     1      -8.374  10.592  68.799  1.00  0.00    -0.136 C  
HETATM   23  O   UNL     1      -7.029  10.970  68.537  1.00  0.00    -0.064 OA 
HETATM   24  H   UNL     1      -6.453  10.573  69.179  1.00  0.00     0.000 HD 
ENDBRANCH  21  22
ENDBRANCH  20  21
ENDBRANCH  19  20
ENDBRANCH  18  19
ENDBRANCH  17  18
ENDBRANCH  16  17
ENDBRANCH  15  16
ENDBRANCH  14  15
ENDBRANCH  13  14
ENDBRANCH  12  13
ENDBRANCH  11  12
ENDBRANCH  10  11
ENDBRANCH   9  10
ENDBRANCH   8   9
ENDBRANCH   7   8
ENDBRANCH   6   7
ENDBRANCH   5   6
ENDBRANCH   4   5
ENDBRANCH   3   4
ENDBRANCH   2   3
TORSDOF 20
ENDMDL
MODEL      322
REMARK 921   NORMALIZED FREE ENERGY PREDICTED BY IDOCK:   -2.82 KCAL/MOL
REMARK 922        TOTAL FREE ENERGY PREDICTED BY IDOCK:   -9.00 KCAL/MOL
REMARK 923 INTER-LIGAND FREE ENERGY PREDICTED BY IDOCK:   -5.90 KCAL/MOL
REMARK 924 INTRA-LIGAND FREE ENERGY PREDICTED BY IDOCK:   -3.10 KCAL/MOL
REMARK 927      BINDING AFFINITY PREDICTED BY RF-SCORE:    0.00 PKD
ROOT
HETATM    1  C   UNL     1      -8.669  14.893  69.311  1.00  0.00    -0.097 C  
HETATM    2  C   UNL     1     -10.077  15.451  69.419  1.00  0.00    -0.269 C  
ENDROOT
BRANCH   2   3
HETATM    3  C   UNL     1     -10.330  16.514  68.353  1.00  0.00    -0.294 C  
BRANCH   3   4
HETATM    4  C   UNL     1     -10.716  15.876  67.021  1.00  0.00    -0.292 C  
BRANCH   4   5
HETATM    5  C   UNL     1     -11.685  14.718  67.237  1.00  0.00    -0.366 C  
BRANCH   5   6
HETATM    6  C   UNL     1     -11.422  13.597  66.237  1.00  0.00    -0.352 C  
BRANCH   6   7
HETATM    7  C   UNL     1     -11.752  12.241  66.849  1.00  0.00    -0.404 C  
BRANCH   7   8
HETATM    8  C   UNL     1     -12.033  12.380  68.340  1.00  0.00    -0.269 C  
BRANCH   8   9
HETATM    9  C   UNL     1     -11.200  11.385  69.137  1.00  0.00    -0.335 C  
BRANCH   9  10
HETATM   10  C   UNL     1      -9.735  11.469  68.732  1.00  0.00    -0.137 C  
BRANCH  10  11
HETATM   11  C   UNL     1      -8.907  10.455  69.509  1.00  0.00    -0.111 C  
BRANCH  11  12
HETATM   12  C   UNL     1      -7.533  10.289  68.875  1.00  0.00    -0.094 C  
BRANCH  12  13
HETATM   13  C   UNL     1      -7.409  11.165  67.638  1.00  0.00    -0.095 C  
BRANCH  13  14
HETATM   14  C   UNL     1      -7.476  10.318  66.374  1.00  0.00    -0.114 C  
BRANCH  14  15
HETATM   15  C   UNL     1      -8.788  10.556  65.641  1.00  0.00    -0.197 C  
BRANCH  15  16
HETATM   16  C   UNL     1      -9.411   9.234  65.213  1.00  0.00    -0.269 C  
BRANCH  16  17
HETATM   17  C   UNL     1      -9.156   8.156  66.260  1.00  0.00    -0.231 C  
BRANCH  17  18
HETATM   18  C   UNL     1     -10.362   8.005  67.180  1.00  0.00    -0.395 C  
BRANCH  18  19
HETATM   19  C   UNL     1     -10.758   6.539  67.318  1.00  0.00    -0.427 C  
BRANCH  19  20
HETATM   20  C   UNL     1     -10.470   6.033  68.728  1.00  0.00    -0.307 C  
BRANCH  20  21
HETATM   21  C   UNL     1     -10.669   7.139  69.757  1.00  0.00    -0.257 C  
BRANCH  21  22
HETATM   22  C   UNL     1     -11.134   6.575  71.093  1.00  0.00    -0.282 C  
HETATM   23  O   UNL     1     -12.549   6.673  71.189  1.00  0.00    -0.303 OA 
HETATM   24  H   UNL     1     -12.840   6.321  72.023  1.00  0.00     0.000 HD 
ENDBRANCH  21  22
ENDBRANCH  20  21
ENDBRANCH  19  20
ENDBRANCH  18  19
ENDBRANCH  17  18
ENDBRANCH  16  17
ENDBRANCH  15  16
ENDBRANCH  14  15
ENDBRANCH  13  14
ENDBRANCH  12  13
ENDBRANCH  11  12
ENDBRANCH  10  11
ENDBRANCH   9  10
ENDBRANCH   8   9
ENDBRANCH   7   8
ENDBRANCH   6   7
ENDBRANCH   5   6
ENDBRANCH   4   5
ENDBRANCH   3   4
ENDBRANCH   2   3
TORSDOF 20
ENDMDL
MODEL      323
REMARK 921   NORMALIZED FREE ENERGY PREDICTED BY IDOCK:   -2.82 KCAL/MOL
REMARK 922        TOTAL FREE ENERGY PREDICTED BY IDOCK:   -8.99 KCAL/MOL
REMARK 923 INTER-LIGAND FREE ENERGY PREDICTED BY IDOCK:   -7.50 KCAL/MOL
REMARK 924 INTRA-LIGAND FREE ENERGY PREDICTED BY IDOCK:   -1.49 KCAL/MOL
REMARK 927      BINDING AFFINITY PREDICTED BY RF-SCORE:    0.00 PKD
ROOT
HETATM    1  C   UNL     1      -8.433   4.217  66.443  1.00  0.00    -0.112 C  
HETATM    2  C   UNL     1      -9.111   5.271  65.585  1.00  0.00    -0.158 C  
ENDROOT
BRANCH   2   3
HETATM    3  C   UNL     1      -9.132   6.624  66.290  1.00  0.00    -0.168 C  
BRANCH   3   4
HETATM    4  C   UNL     1     -10.480   6.874  66.961  1.00  0.00    -0.374 C  
BRANCH   4   5
HETATM    5  C   UNL     1     -10.606   8.331  67.394  1.00  0.00    -0.324 C  
BRANCH   5   6
HETATM    6  C   UNL     1     -10.004   9.262  66.346  1.00  0.00    -0.356 C  
BRANCH   6   7
HETATM    7  C   UNL     1     -10.088  10.713  66.805  1.00  0.00    -0.272 C  
BRANCH   7   8
HETATM    8  C   UNL     1     -11.327  10.934  67.662  1.00  0.00    -0.345 C  
BRANCH   8   9
HETATM    9  C   UNL     1     -11.697  12.411  67.699  1.00  0.00    -0.412 C  
BRANCH   9  10
HETATM   10  C   UNL     1     -10.751  13.221  66.826  1.00  0.00    -0.279 C  
BRANCH  10  11
HETATM   11  C   UNL     1     -11.447  14.468  66.297  1.00  0.00    -0.358 C  
BRANCH  11  12
HETATM   12  C   UNL     1     -10.516  15.252  65.383  1.00  0.00    -0.422 C  
BRANCH  12  13
HETATM   13  C   UNL     1      -9.833  16.372  66.153  1.00  0.00    -0.362 C  
BRANCH  13  14
HETATM   14  C   UNL     1     -10.669  16.780  67.358  1.00  0.00    -0.244 C  
BRANCH  14  15
HETATM   15  C   UNL     1     -10.380  18.223  67.744  1.00  0.00    -0.419 C  
BRANCH  15  16
HETATM   16  C   UNL     1     -10.861  19.175  66.657  1.00  0.00    -0.369 C  
BRANCH  16  17
HETATM   17  C   UNL     1      -9.747  20.133  66.249  1.00  0.00    -0.515 C  
BRANCH  17  18
HETATM   18  C   UNL     1      -8.847  20.447  67.437  1.00  0.00    -0.430 C  
BRANCH  18  19
HETATM   19  C   UNL     1      -7.386  20.522  67.006  1.00  0.00    -0.372 C  
BRANCH  19  20
HETATM   20  C   UNL     1      -6.662  19.218  67.325  1.00  0.00    -0.207 C  
BRANCH  20  21
HETATM   21  C   UNL     1      -5.590  19.433  68.386  1.00  0.00    -0.216 C  
BRANCH  21  22
HETATM   22  C   UNL     1      -6.155  19.250  69.789  1.00  0.00    -0.267 C  
HETATM   23  O   UNL     1      -6.092  20.481  70.497  1.00  0.00    -0.517 OA 
HETATM   24  H   UNL     1      -6.445  20.367  71.372  1.00  0.00     0.000 HD 
ENDBRANCH  21  22
ENDBRANCH  20  21
ENDBRANCH  19  20
ENDBRANCH  18  19
ENDBRANCH  17  18
ENDBRANCH  16  17
ENDBRANCH  15  16
ENDBRANCH  14  15
ENDBRANCH  13  14
ENDBRANCH  12  13
ENDBRANCH  11  12
ENDBRANCH  10  11
ENDBRANCH   9  10
ENDBRANCH   8   9
ENDBRANCH   7   8
ENDBRANCH   6   7
ENDBRANCH   5   6
ENDBRANCH   4   5
ENDBRANCH   3   4
ENDBRANCH   2   3
TORSDOF 20
ENDMDL
MODEL      324
REMARK 921   NORMALIZED FREE ENERGY PREDICTED BY IDOCK:   -2.82 KCAL/MOL
REMARK 922        TOTAL FREE ENERGY PREDICTED BY IDOCK:   -8.99 KCAL/MOL
REMARK 923 INTER-LIGAND FREE ENERGY PREDICTED BY IDOCK:   -7.09 KCAL/MOL
REMARK 924 INTRA-LIGAND FREE ENERGY PREDICTED BY IDOCK:   -1.90 KCAL/MOL
REMARK 927      BINDING AFFINITY PREDICTED BY RF-SCORE:    0.00 PKD
ROOT
HETATM    1  C   UNL     1      -9.258   3.363  66.339  1.00  0.00    -0.174 C  
HETATM    2  C   UNL     1     -10.321   4.405  66.038  1.00  0.00    -0.210 C  
ENDROOT
BRANCH   2   3
HETATM    3  C   UNL     1      -9.955   5.756  66.646  1.00  0.00    -0.212 C  
BRANCH   3   4
HETATM    4  C   UNL     1     -10.833   6.073  67.853  1.00  0.00    -0.378 C  
BRANCH   4   5
HETATM    5  C   UNL     1     -10.603   7.505  68.327  1.00  0.00    -0.185 C  
BRANCH   5   6
HETATM    6  C   UNL     1     -10.252   8.415  67.154  1.00  0.00    -0.362 C  
BRANCH   6   7
HETATM    7  C   UNL     1     -10.088   9.856  67.622  1.00  0.00    -0.241 C  
BRANCH   7   8
HETATM    8  C   UNL     1     -11.206  10.239  68.582  1.00  0.00    -0.263 C  
BRANCH   8   9
HETATM    9  C   UNL     1     -11.760  11.615  68.238  1.00  0.00    -0.374 C  
BRANCH   9  10
HETATM   10  C   UNL     1     -11.001  12.220  67.066  1.00  0.00    -0.314 C  
BRANCH  10  11
HETATM   11  C   UNL     1     -11.895  13.171  66.284  1.00  0.00    -0.455 C  
BRANCH  11  12
HETATM   12  C   UNL     1     -11.408  13.303  64.848  1.00  0.00    -0.337 C  
BRANCH  12  13
HETATM   13  C   UNL     1     -10.171  14.185  64.785  1.00  0.00    -0.311 C  
BRANCH  13  14
HETATM   14  C   UNL     1     -10.559  15.657  64.827  1.00  0.00    -0.212 C  
BRANCH  14  15
HETATM   15  C   UNL     1     -10.162  16.275  66.159  1.00  0.00    -0.361 C  
BRANCH  15  16
HETATM   16  C   UNL     1      -8.715  15.939  66.496  1.00  0.00    -0.350 C  
BRANCH  16  17
HETATM   17  C   UNL     1      -8.576  15.573  67.969  1.00  0.00    -0.155 C  
BRANCH  17  18
HETATM   18  C   UNL     1      -9.635  16.286  68.802  1.00  0.00    -0.242 C  
BRANCH  18  19
HETATM   19  C   UNL     1     -10.153  15.379  69.912  1.00  0.00    -0.253 C  
BRANCH  19  20
HETATM   20  C   UNL     1     -11.646  15.597  70.136  1.00  0.00    -0.366 C  
BRANCH  20  21
HETATM   21  C   UNL     1     -12.114  14.910  71.413  1.00  0.00    -0.392 C  
BRANCH  21  22
HETATM   22  C   UNL     1     -12.783  15.898  72.359  1.00  0.00    -0.444 C  
HETATM   23  O   UNL     1     -11.798  16.717  72.974  1.00  0.00    -0.496 OA 
HETATM   24  H   UNL     1     -12.216  17.333  73.565  1.00  0.00     0.000 HD 
ENDBRANCH  21  22
ENDBRANCH  20  21
ENDBRANCH  19  20
ENDBRANCH  18  19
ENDBRANCH  17  18
ENDBRANCH  16  17
ENDBRANCH  15  16
ENDBRANCH  14  15
ENDBRANCH  13  14
ENDBRANCH  12  13
ENDBRANCH  11  12
ENDBRANCH  10  11
ENDBRANCH   9  10
ENDBRANCH   8   9
ENDBRANCH   7   8
ENDBRANCH   6   7
ENDBRANCH   5   6
ENDBRANCH   4   5
ENDBRANCH   3   4
ENDBRANCH   2   3
TORSDOF 20
ENDMDL
MODEL      325
REMARK 921   NORMALIZED FREE ENERGY PREDICTED BY IDOCK:   -2.82 KCAL/MOL
REMARK 922        TOTAL FREE ENERGY PREDICTED BY IDOCK:   -8.98 KCAL/MOL
REMARK 923 INTER-LIGAND FREE ENERGY PREDICTED BY IDOCK:   -7.34 KCAL/MOL
REMARK 924 INTRA-LIGAND FREE ENERGY PREDICTED BY IDOCK:   -1.64 KCAL/MOL
REMARK 927      BINDING AFFINITY PREDICTED BY RF-SCORE:    0.00 PKD
ROOT
HETATM    1  C   UNL     1      -5.837  20.133  64.300  1.00  0.00    -0.305 C  
HETATM    2  C   UNL     1      -5.527  19.018  65.284  1.00  0.00    -0.216 C  
ENDROOT
BRANCH   2   3
HETATM    3  C   UNL     1      -6.777  18.599  66.052  1.00  0.00    -0.285 C  
BRANCH   3   4
HETATM    4  C   UNL     1      -6.975  19.463  67.294  1.00  0.00    -0.218 C  
BRANCH   4   5
HETATM    5  C   UNL     1      -8.276  19.099  68.003  1.00  0.00    -0.339 C  
BRANCH   5   6
HETATM    6  C   UNL     1      -9.481  19.606  67.218  1.00  0.00    -0.446 C  
BRANCH   6   7
HETATM    7  C   UNL     1     -10.481  18.480  66.980  1.00  0.00    -0.440 C  
BRANCH   7   8
HETATM    8  C   UNL     1      -9.813  17.123  67.163  1.00  0.00    -0.271 C  
BRANCH   8   9
HETATM    9  C   UNL     1     -10.085  16.226  65.963  1.00  0.00    -0.377 C  
BRANCH   9  10
HETATM   10  C   UNL     1     -10.451  14.820  66.419  1.00  0.00    -0.294 C  
BRANCH  10  11
HETATM   11  C   UNL     1     -11.939  14.566  66.225  1.00  0.00    -0.335 C  
BRANCH  11  12
HETATM   12  C   UNL     1     -12.166  13.229  65.533  1.00  0.00    -0.506 C  
BRANCH  12  13
HETATM   13  C   UNL     1     -11.951  13.363  64.034  1.00  0.00    -0.520 C  
BRANCH  13  14
HETATM   14  C   UNL     1     -11.052  12.246  63.520  1.00  0.00    -0.533 C  
BRANCH  14  15
HETATM   15  C   UNL     1     -10.099  11.783  64.612  1.00  0.00    -0.310 C  
BRANCH  15  16
HETATM   16  C   UNL     1      -9.875  10.279  64.524  1.00  0.00    -0.384 C  
BRANCH  16  17
HETATM   17  C   UNL     1      -9.152   9.770  65.766  1.00  0.00    -0.221 C  
BRANCH  17  18
HETATM   18  C   UNL     1      -9.825  10.290  67.031  1.00  0.00    -0.238 C  
BRANCH  18  19
HETATM   19  C   UNL     1     -10.660   9.197  67.689  1.00  0.00    -0.307 C  
BRANCH  19  20
HETATM   20  C   UNL     1     -10.019   7.828  67.480  1.00  0.00    -0.242 C  
BRANCH  20  21
HETATM   21  C   UNL     1      -9.632   7.197  68.812  1.00  0.00    -0.144 C  
BRANCH  21  22
HETATM   22  C   UNL     1     -10.496   7.728  69.948  1.00  0.00    -0.232 C  
HETATM   23  O   UNL     1      -9.899   7.407  71.197  1.00  0.00    -0.175 OA 
HETATM   24  H   UNL     1     -10.439   7.738  71.906  1.00  0.00     0.000 HD 
ENDBRANCH  21  22
ENDBRANCH  20  21
ENDBRANCH  19  20
ENDBRANCH  18  19
ENDBRANCH  17  18
ENDBRANCH  16  17
ENDBRANCH  15  16
ENDBRANCH  14  15
ENDBRANCH  13  14
ENDBRANCH  12  13
ENDBRANCH  11  12
ENDBRANCH  10  11
ENDBRANCH   9  10
ENDBRANCH   8   9
ENDBRANCH   7   8
ENDBRANCH   6   7
ENDBRANCH   5   6
ENDBRANCH   4   5
ENDBRANCH   3   4
ENDBRANCH   2   3
TORSDOF 20
ENDMDL
MODEL      326
REMARK 921   NORMALIZED FREE ENERGY PREDICTED BY IDOCK:   -2.81 KCAL/MOL
REMARK 922        TOTAL FREE ENERGY PREDICTED BY IDOCK:   -8.97 KCAL/MOL
REMARK 923 INTER-LIGAND FREE ENERGY PREDICTED BY IDOCK:   -6.83 KCAL/MOL
REMARK 924 INTRA-LIGAND FREE ENERGY PREDICTED BY IDOCK:   -2.14 KCAL/MOL
REMARK 927      BINDING AFFINITY PREDICTED BY RF-SCORE:    0.00 PKD
ROOT
HETATM    1  C   UNL     1      -8.677  16.243  68.928  1.00  0.00    -0.253 C  
HETATM    2  C   UNL     1      -9.746  17.015  68.174  1.00  0.00    -0.268 C  
ENDROOT
BRANCH   2   3
HETATM    3  C   UNL     1     -11.140  16.493  68.508  1.00  0.00    -0.335 C  
BRANCH   3   4
HETATM    4  C   UNL     1     -11.181  15.893  69.911  1.00  0.00    -0.348 C  
BRANCH   4   5
HETATM    5  C   UNL     1     -12.565  15.327  70.216  1.00  0.00    -0.388 C  
BRANCH   5   6
HETATM    6  C   UNL     1     -12.464  13.898  70.739  1.00  0.00    -0.445 C  
BRANCH   6   7
HETATM    7  C   UNL     1     -11.705  13.017  69.755  1.00  0.00    -0.346 C  
BRANCH   7   8
HETATM    8  C   UNL     1     -12.073  11.553  69.950  1.00  0.00    -0.389 C  
BRANCH   8   9
HETATM    9  C   UNL     1     -12.806  11.356  71.271  1.00  0.00    -0.481 C  
BRANCH   9  10
HETATM   10  C   UNL     1     -13.310   9.925  71.395  1.00  0.00    -0.447 C  
BRANCH  10  11
HETATM   11  C   UNL     1     -12.546   9.182  72.481  1.00  0.00    -0.311 C  
BRANCH  11  12
HETATM   12  C   UNL     1     -11.205   8.696  71.952  1.00  0.00    -0.413 C  
BRANCH  12  13
HETATM   13  C   UNL     1     -11.182   7.177  71.873  1.00  0.00    -0.282 C  
BRANCH  13  14
HETATM   14  C   UNL     1     -11.895   6.695  70.617  1.00  0.00    -0.443 C  
BRANCH  14  15
HETATM   15  C   UNL     1     -10.935   5.931  69.718  1.00  0.00    -0.452 C  
BRANCH  15  16
HETATM   16  C   UNL     1     -10.731   6.671  68.402  1.00  0.00    -0.314 C  
BRANCH  16  17
HETATM   17  C   UNL     1      -9.251   6.948  68.164  1.00  0.00    -0.126 C  
BRANCH  17  18
HETATM   18  C   UNL     1      -9.042   8.382  67.690  1.00  0.00    -0.144 C  
BRANCH  18  19
HETATM   19  C   UNL     1      -9.804   9.362  68.575  1.00  0.00    -0.171 C  
BRANCH  19  20
HETATM   20  C   UNL     1      -8.872  10.003  69.598  1.00  0.00    -0.217 C  
BRANCH  20  21
HETATM   21  C   UNL     1      -7.443  10.064  69.072  1.00  0.00    -0.087 C  
BRANCH  21  22
HETATM   22  C   UNL     1      -6.444  10.257  70.206  1.00  0.00    -0.137 C  
HETATM   23  O   UNL     1      -5.856   9.009  70.545  1.00  0.00    -0.033 OA 
HETATM   24  H   UNL     1      -5.233   9.129  71.253  1.00  0.00     0.000 HD 
ENDBRANCH  21  22
ENDBRANCH  20  21
ENDBRANCH  19  20
ENDBRANCH  18  19
ENDBRANCH  17  18
ENDBRANCH  16  17
ENDBRANCH  15  16
ENDBRANCH  14  15
ENDBRANCH  13  14
ENDBRANCH  12  13
ENDBRANCH  11  12
ENDBRANCH  10  11
ENDBRANCH   9  10
ENDBRANCH   8   9
ENDBRANCH   7   8
ENDBRANCH   6   7
ENDBRANCH   5   6
ENDBRANCH   4   5
ENDBRANCH   3   4
ENDBRANCH   2   3
TORSDOF 20
ENDMDL
MODEL      327
REMARK 921   NORMALIZED FREE ENERGY PREDICTED BY IDOCK:   -2.80 KCAL/MOL
REMARK 922        TOTAL FREE ENERGY PREDICTED BY IDOCK:   -8.95 KCAL/MOL
REMARK 923 INTER-LIGAND FREE ENERGY PREDICTED BY IDOCK:   -6.39 KCAL/MOL
REMARK 924 INTRA-LIGAND FREE ENERGY PREDICTED BY IDOCK:   -2.56 KCAL/MOL
REMARK 927      BINDING AFFINITY PREDICTED BY RF-SCORE:    0.00 PKD
ROOT
HETATM    1  C   UNL     1     -10.364  15.562  69.946  1.00  0.00    -0.322 C  
HETATM    2  C   UNL     1     -11.314  14.495  69.430  1.00  0.00    -0.314 C  
ENDROOT
BRANCH   2   3
HETATM    3  C   UNL     1     -12.642  14.532  70.179  1.00  0.00    -0.339 C  
BRANCH   3   4
HETATM    4  C   UNL     1     -12.445  14.234  71.663  1.00  0.00    -0.419 C  
BRANCH   4   5
HETATM    5  C   UNL     1     -13.357  13.096  72.111  1.00  0.00    -0.621 C  
BRANCH   5   6
HETATM    6  C   UNL     1     -13.352  11.962  71.092  1.00  0.00     0.243 C  
BRANCH   6   7
HETATM    7  C   UNL     1     -12.624  10.744  71.646  1.00  0.00    -0.456 C  
BRANCH   7   8
HETATM    8  C   UNL     1     -11.453  10.365  70.749  1.00  0.00    -0.422 C  
BRANCH   8   9
HETATM    9  C   UNL     1     -11.750  10.725  69.299  1.00  0.00    -0.374 C  
BRANCH   9  10
HETATM   10  C   UNL     1     -10.894   9.892  68.355  1.00  0.00    -0.263 C  
BRANCH  10  11
HETATM   11  C   UNL     1      -9.548  10.565  68.121  1.00  0.00    -0.163 C  
BRANCH  11  12
HETATM   12  C   UNL     1      -8.422   9.543  68.195  1.00  0.00    -0.119 C  
BRANCH  12  13
HETATM   13  C   UNL     1      -7.530   9.820  69.395  1.00  0.00    -0.099 C  
BRANCH  13  14
HETATM   14  C   UNL     1      -8.129   9.216  70.658  1.00  0.00    -0.198 C  
BRANCH  14  15
HETATM   15  C   UNL     1      -8.040   7.698  70.618  1.00  0.00    -0.108 C  
BRANCH  15  16
HETATM   16  C   UNL     1      -7.315   7.171  71.849  1.00  0.00    -0.081 C  
BRANCH  16  17
HETATM   17  C   UNL     1      -8.249   6.319  72.701  1.00  0.00    -0.106 C  
BRANCH  17  18
HETATM   18  C   UNL     1      -9.045   7.192  73.663  1.00  0.00    -0.226 C  
BRANCH  18  19
HETATM   19  C   UNL     1     -10.507   6.763  73.703  1.00  0.00    -0.374 C  
BRANCH  19  20
HETATM   20  C   UNL     1     -11.344   7.609  72.749  1.00  0.00    -0.419 C  
BRANCH  20  21
HETATM   21  C   UNL     1     -12.234   6.731  71.877  1.00  0.00    -0.377 C  
BRANCH  21  22
HETATM   22  C   UNL     1     -11.456   6.146  70.705  1.00  0.00    -0.251 C  
HETATM   23  O   UNL     1     -11.663   6.941  69.545  1.00  0.00    -0.585 OA 
HETATM   24  H   UNL     1     -11.178   6.577  68.815  1.00  0.00     0.000 HD 
ENDBRANCH  21  22
ENDBRANCH  20  21
ENDBRANCH  19  20
ENDBRANCH  18  19
ENDBRANCH  17  18
ENDBRANCH  16  17
ENDBRANCH  15  16
ENDBRANCH  14  15
ENDBRANCH  13  14
ENDBRANCH  12  13
ENDBRANCH  11  12
ENDBRANCH  10  11
ENDBRANCH   9  10
ENDBRANCH   8   9
ENDBRANCH   7   8
ENDBRANCH   6   7
ENDBRANCH   5   6
ENDBRANCH   4   5
ENDBRANCH   3   4
ENDBRANCH   2   3
TORSDOF 20
ENDMDL
MODEL      328
REMARK 921   NORMALIZED FREE ENERGY PREDICTED BY IDOCK:   -2.80 KCAL/MOL
REMARK 922        TOTAL FREE ENERGY PREDICTED BY IDOCK:   -8.94 KCAL/MOL
REMARK 923 INTER-LIGAND FREE ENERGY PREDICTED BY IDOCK:   -6.41 KCAL/MOL
REMARK 924 INTRA-LIGAND FREE ENERGY PREDICTED BY IDOCK:   -2.53 KCAL/MOL
REMARK 927      BINDING AFFINITY PREDICTED BY RF-SCORE:    0.00 PKD
ROOT
HETATM    1  C   UNL     1     -11.871  14.278  66.151  1.00  0.00    -0.413 C  
HETATM    2  C   UNL     1     -11.766  12.799  65.820  1.00  0.00    -0.449 C  
ENDROOT
BRANCH   2   3
HETATM    3  C   UNL     1     -10.376  12.451  65.295  1.00  0.00    -0.308 C  
BRANCH   3   4
HETATM    4  C   UNL     1      -9.553  11.727  66.357  1.00  0.00    -0.234 C  
BRANCH   4   5
HETATM    5  C   UNL     1     -10.412  10.716  67.110  1.00  0.00    -0.295 C  
BRANCH   5   6
HETATM    6  C   UNL     1     -10.327  10.947  68.616  1.00  0.00    -0.206 C  
BRANCH   6   7
HETATM    7  C   UNL     1      -9.436   9.899  69.271  1.00  0.00    -0.218 C  
BRANCH   7   8
HETATM    8  C   UNL     1     -10.278   8.862  70.003  1.00  0.00    -0.214 C  
BRANCH   8   9
HETATM    9  C   UNL     1     -11.201   9.535  71.010  1.00  0.00    -0.432 C  
BRANCH   9  10
HETATM   10  C   UNL     1     -12.175   8.525  71.600  1.00  0.00    -0.371 C  
BRANCH  10  11
HETATM   11  C   UNL     1     -11.955   7.149  70.987  1.00  0.00    -0.387 C  
BRANCH  11  12
HETATM   12  C   UNL     1     -11.788   6.100  72.076  1.00  0.00    -0.336 C  
BRANCH  12  13
HETATM   13  C   UNL     1     -10.862   6.609  73.169  1.00  0.00    -0.298 C  
BRANCH  13  14
HETATM   14  C   UNL     1      -9.424   6.193  72.890  1.00  0.00    -0.150 C  
BRANCH  14  15
HETATM   15  C   UNL     1      -9.388   4.992  71.957  1.00  0.00    -0.168 C  
BRANCH  15  16
HETATM   16  C   UNL     1      -7.950   4.605  71.636  1.00  0.00    -0.101 C  
BRANCH  16  17
HETATM   17  C   UNL     1      -7.723   4.577  70.129  1.00  0.00    -0.053 C  
BRANCH  17  18
HETATM   18  C   UNL     1      -8.689   5.522  69.423  1.00  0.00    -0.107 C  
BRANCH  18  19
HETATM   19  C   UNL     1      -8.008   6.213  68.246  1.00  0.00    -0.107 C  
BRANCH  19  20
HETATM   20  C   UNL     1      -9.040   6.687  67.228  1.00  0.00    -0.119 C  
BRANCH  20  21
HETATM   21  C   UNL     1     -10.279   5.800  67.253  1.00  0.00    -0.248 C  
BRANCH  21  22
HETATM   22  C   UNL     1     -10.266   4.799  66.106  1.00  0.00    -0.281 C  
HETATM   23  O   UNL     1     -11.459   4.927  65.342  1.00  0.00    -0.908 OA 
HETATM   24  H   UNL     1     -11.450   4.302  64.626  1.00  0.00     0.000 HD 
ENDBRANCH  21  22
ENDBRANCH  20  21
ENDBRANCH  19  20
ENDBRANCH  18  19
ENDBRANCH  17  18
ENDBRANCH  16  17
ENDBRANCH  15  16
ENDBRANCH  14  15
ENDBRANCH  13  14
ENDBRANCH  12  13
ENDBRANCH  11  12
ENDBRANCH  10  11
ENDBRANCH   9  10
ENDBRANCH   8   9
ENDBRANCH   7   8
ENDBRANCH   6   7
ENDBRANCH   5   6
ENDBRANCH   4   5
ENDBRANCH   3   4
ENDBRANCH   2   3
TORSDOF 20
ENDMDL
MODEL      329
REMARK 921   NORMALIZED FREE ENERGY PREDICTED BY IDOCK:   -2.79 KCAL/MOL
REMARK 922        TOTAL FREE ENERGY PREDICTED BY IDOCK:   -8.93 KCAL/MOL
REMARK 923 INTER-LIGAND FREE ENERGY PREDICTED BY IDOCK:   -6.68 KCAL/MOL
REMARK 924 INTRA-LIGAND FREE ENERGY PREDICTED BY IDOCK:   -2.24 KCAL/MOL
REMARK 927      BINDING AFFINITY PREDICTED BY RF-SCORE:    0.00 PKD
ROOT
HETATM    1  C   UNL     1      -7.874  20.123  66.257  1.00  0.00    -0.281 C  
HETATM    2  C   UNL     1      -9.300  19.599  66.236  1.00  0.00    -0.453 C  
ENDROOT
BRANCH   2   3
HETATM    3  C   UNL     1     -10.032  19.943  67.529  1.00  0.00    -0.552 C  
BRANCH   3   4
HETATM    4  C   UNL     1     -10.362  18.684  68.326  1.00  0.00    -0.388 C  
BRANCH   4   5
HETATM    5  C   UNL     1     -10.416  17.464  67.411  1.00  0.00    -0.336 C  
BRANCH   5   6
HETATM    6  C   UNL     1      -9.638  16.298  68.013  1.00  0.00    -0.224 C  
BRANCH   6   7
HETATM    7  C   UNL     1      -8.334  16.785  68.634  1.00  0.00    -0.252 C  
BRANCH   7   8
HETATM    8  C   UNL     1      -7.161  16.510  67.702  1.00  0.00    -0.158 C  
BRANCH   8   9
HETATM    9  C   UNL     1      -6.296  15.382  68.247  1.00  0.00    -0.123 C  
BRANCH   9  10
HETATM   10  C   UNL     1      -6.629  14.069  67.552  1.00  0.00    -0.101 C  
BRANCH  10  11
HETATM   11  C   UNL     1      -7.106  13.036  68.562  1.00  0.00    -0.105 C  
BRANCH  11  12
HETATM   12  C   UNL     1      -8.536  12.611  68.256  1.00  0.00    -0.163 C  
BRANCH  12  13
HETATM   13  C   UNL     1      -8.665  11.097  68.312  1.00  0.00    -0.151 C  
BRANCH  13  14
HETATM   14  C   UNL     1      -9.569  10.595  67.194  1.00  0.00    -0.189 C  
BRANCH  14  15
HETATM   15  C   UNL     1     -10.686  11.591  66.923  1.00  0.00    -0.304 C  
BRANCH  15  16
HETATM   16  C   UNL     1     -11.853  11.360  67.873  1.00  0.00    -0.239 C  
BRANCH  16  17
HETATM   17  C   UNL     1     -12.028  12.549  68.810  1.00  0.00    -0.283 C  
BRANCH  17  18
HETATM   18  C   UNL     1     -12.020  12.094  70.264  1.00  0.00    -0.389 C  
BRANCH  18  19
HETATM   19  C   UNL     1     -12.535  10.664  70.388  1.00  0.00    -0.421 C  
BRANCH  19  20
HETATM   20  C   UNL     1     -11.546   9.799  71.163  1.00  0.00    -0.469 C  
BRANCH  20  21
HETATM   21  C   UNL     1     -12.274   8.858  72.116  1.00  0.00    -0.437 C  
BRANCH  21  22
HETATM   22  C   UNL     1     -12.890   7.683  71.370  1.00  0.00    -0.319 C  
HETATM   23  O   UNL     1     -11.870   6.947  70.707  1.00  0.00    -0.348 OA 
HETATM   24  H   UNL     1     -12.254   6.213  70.241  1.00  0.00     0.000 HD 
ENDBRANCH  21  22
ENDBRANCH  20  21
ENDBRANCH  19  20
ENDBRANCH  18  19
ENDBRANCH  17  18
ENDBRANCH  16  17
ENDBRANCH  15  16
ENDBRANCH  14  15
ENDBRANCH  13  14
ENDBRANCH  12  13
ENDBRANCH  11  12
ENDBRANCH  10  11
ENDBRANCH   9  10
ENDBRANCH   8   9
ENDBRANCH   7   8
ENDBRANCH   6   7
ENDBRANCH   5   6
ENDBRANCH   4   5
ENDBRANCH   3   4
ENDBRANCH   2   3
TORSDOF 20
ENDMDL
MODEL      330
REMARK 921   NORMALIZED FREE ENERGY PREDICTED BY IDOCK:   -2.79 KCAL/MOL
REMARK 922        TOTAL FREE ENERGY PREDICTED BY IDOCK:   -8.93 KCAL/MOL
REMARK 923 INTER-LIGAND FREE ENERGY PREDICTED BY IDOCK:   -5.67 KCAL/MOL
REMARK 924 INTRA-LIGAND FREE ENERGY PREDICTED BY IDOCK:   -3.26 KCAL/MOL
REMARK 927      BINDING AFFINITY PREDICTED BY RF-SCORE:    0.00 PKD
ROOT
HETATM    1  C   UNL     1     -10.394   4.081  64.731  1.00  0.00    -0.212 C  
HETATM    2  C   UNL     1      -9.722   4.705  65.942  1.00  0.00    -0.208 C  
ENDROOT
BRANCH   2   3
HETATM    3  C   UNL     1     -10.685   5.619  66.695  1.00  0.00    -0.339 C  
BRANCH   3   4
HETATM    4  C   UNL     1     -10.157   7.049  66.748  1.00  0.00    -0.270 C  
BRANCH   4   5
HETATM    5  C   UNL     1      -8.635   7.068  66.645  1.00  0.00    -0.124 C  
BRANCH   5   6
HETATM    6  C   UNL     1      -8.003   7.400  67.993  1.00  0.00    -0.119 C  
BRANCH   6   7
HETATM    7  C   UNL     1      -7.210   6.211  68.523  1.00  0.00    -0.084 C  
BRANCH   7   8
HETATM    8  C   UNL     1      -8.097   5.310  69.371  1.00  0.00    -0.092 C  
BRANCH   8   9
HETATM    9  C   UNL     1      -8.919   6.136  70.353  1.00  0.00    -0.151 C  
BRANCH   9  10
HETATM   10  C   UNL     1     -10.376   5.698  70.331  1.00  0.00    -0.330 C  
BRANCH  10  11
HETATM   11  C   UNL     1     -11.291   6.896  70.121  1.00  0.00    -0.364 C  
BRANCH  11  12
HETATM   12  C   UNL     1     -12.404   6.907  71.159  1.00  0.00    -0.419 C  
BRANCH  12  13
HETATM   13  C   UNL     1     -12.138   7.970  72.214  1.00  0.00    -0.392 C  
BRANCH  13  14
HETATM   14  C   UNL     1     -12.926   9.237  71.908  1.00  0.00    -0.489 C  
BRANCH  14  15
HETATM   15  C   UNL     1     -12.006  10.318  71.359  1.00  0.00    -0.419 C  
BRANCH  15  16
HETATM   16  C   UNL     1     -12.393  10.675  69.930  1.00  0.00    -0.304 C  
BRANCH  16  17
HETATM   17  C   UNL     1     -11.184  11.191  69.158  1.00  0.00    -0.328 C  
BRANCH  17  18
HETATM   18  C   UNL     1     -11.125  10.563  67.770  1.00  0.00    -0.382 C  
BRANCH  18  19
HETATM   19  C   UNL     1      -9.759  10.790  67.131  1.00  0.00    -0.198 C  
BRANCH  19  20
HETATM   20  C   UNL     1      -8.726  11.171  68.186  1.00  0.00    -0.144 C  
BRANCH  20  21
HETATM   21  C   UNL     1      -7.309  10.982  67.657  1.00  0.00    -0.094 C  
BRANCH  21  22
HETATM   22  C   UNL     1      -7.313  10.656  66.169  1.00  0.00    -0.138 C  
HETATM   23  O   UNL     1      -6.284   9.719  65.879  1.00  0.00    -0.066 OA 
HETATM   24  H   UNL     1      -6.287   9.516  64.951  1.00  0.00     0.000 HD 
ENDBRANCH  21  22
ENDBRANCH  20  21
ENDBRANCH  19  20
ENDBRANCH  18  19
ENDBRANCH  17  18
ENDBRANCH  16  17
ENDBRANCH  15  16
ENDBRANCH  14  15
ENDBRANCH  13  14
ENDBRANCH  12  13
ENDBRANCH  11  12
ENDBRANCH  10  11
ENDBRANCH   9  10
ENDBRANCH   8   9
ENDBRANCH   7   8
ENDBRANCH   6   7
ENDBRANCH   5   6
ENDBRANCH   4   5
ENDBRANCH   3   4
ENDBRANCH   2   3
TORSDOF 20
ENDMDL
MODEL      331
REMARK 921   NORMALIZED FREE ENERGY PREDICTED BY IDOCK:   -2.79 KCAL/MOL
REMARK 922        TOTAL FREE ENERGY PREDICTED BY IDOCK:   -8.91 KCAL/MOL
REMARK 923 INTER-LIGAND FREE ENERGY PREDICTED BY IDOCK:   -7.41 KCAL/MOL
REMARK 924 INTRA-LIGAND FREE ENERGY PREDICTED BY IDOCK:   -1.51 KCAL/MOL
REMARK 927      BINDING AFFINITY PREDICTED BY RF-SCORE:    0.00 PKD
ROOT
HETATM    1  C   UNL     1      -8.556  16.419  68.823  1.00  0.00    -0.250 C  
HETATM    2  C   UNL     1      -9.726  17.240  68.307  1.00  0.00    -0.294 C  
ENDROOT
BRANCH   2   3
HETATM    3  C   UNL     1     -11.054  16.547  68.597  1.00  0.00    -0.329 C  
BRANCH   3   4
HETATM    4  C   UNL     1     -11.075  15.965  70.007  1.00  0.00    -0.356 C  
BRANCH   4   5
HETATM    5  C   UNL     1     -12.450  15.390  70.334  1.00  0.00    -0.447 C  
BRANCH   5   6
HETATM    6  C   UNL     1     -12.357  13.897  70.631  1.00  0.00    -0.451 C  
BRANCH   6   7
HETATM    7  C   UNL     1     -11.803  13.142  69.428  1.00  0.00    -0.383 C  
BRANCH   7   8
HETATM    8  C   UNL     1     -11.949  11.639  69.625  1.00  0.00    -0.390 C  
BRANCH   8   9
HETATM    9  C   UNL     1     -12.473  11.329  71.020  1.00  0.00    -0.503 C  
BRANCH   9  10
HETATM   10  C   UNL     1     -13.223  10.004  71.028  1.00  0.00    -0.399 C  
BRANCH  10  11
HETATM   11  C   UNL     1     -12.787   9.150  72.210  1.00  0.00    -0.472 C  
BRANCH  11  12
HETATM   12  C   UNL     1     -11.407   8.559  71.961  1.00  0.00    -0.425 C  
BRANCH  12  13
HETATM   13  C   UNL     1     -11.103   7.471  72.979  1.00  0.00    -0.413 C  
BRANCH  13  14
HETATM   14  C   UNL     1     -11.604   6.120  72.487  1.00  0.00    -0.294 C  
BRANCH  14  15
HETATM   15  C   UNL     1     -10.449   5.281  71.962  1.00  0.00    -0.283 C  
BRANCH  15  16
HETATM   16  C   UNL     1     -10.450   5.261  70.439  1.00  0.00    -0.322 C  
BRANCH  16  17
HETATM   17  C   UNL     1      -9.407   6.226  69.887  1.00  0.00    -0.158 C  
BRANCH  17  18
HETATM   18  C   UNL     1     -10.043   7.197  68.900  1.00  0.00    -0.177 C  
BRANCH  18  19
HETATM   19  C   UNL     1      -9.441   7.028  67.509  1.00  0.00    -0.144 C  
BRANCH  19  20
HETATM   20  C   UNL     1     -10.434   6.354  66.568  1.00  0.00    -0.150 C  
BRANCH  20  21
HETATM   21  C   UNL     1     -10.113   4.874  66.403  1.00  0.00    -0.286 C  
BRANCH  21  22
HETATM   22  C   UNL     1     -10.677   4.328  65.098  1.00  0.00    -0.105 C  
HETATM   23  O   UNL     1     -10.234   2.992  64.904  1.00  0.00    -0.376 OA 
HETATM   24  H   UNL     1     -10.586   2.651  64.090  1.00  0.00     0.000 HD 
ENDBRANCH  21  22
ENDBRANCH  20  21
ENDBRANCH  19  20
ENDBRANCH  18  19
ENDBRANCH  17  18
ENDBRANCH  16  17
ENDBRANCH  15  16
ENDBRANCH  14  15
ENDBRANCH  13  14
ENDBRANCH  12  13
ENDBRANCH  11  12
ENDBRANCH  10  11
ENDBRANCH   9  10
ENDBRANCH   8   9
ENDBRANCH   7   8
ENDBRANCH   6   7
ENDBRANCH   5   6
ENDBRANCH   4   5
ENDBRANCH   3   4
ENDBRANCH   2   3
TORSDOF 20
ENDMDL
MODEL      332
REMARK 921   NORMALIZED FREE ENERGY PREDICTED BY IDOCK:   -2.78 KCAL/MOL
REMARK 922        TOTAL FREE ENERGY PREDICTED BY IDOCK:   -8.89 KCAL/MOL
REMARK 923 INTER-LIGAND FREE ENERGY PREDICTED BY IDOCK:   -5.53 KCAL/MOL
REMARK 924 INTRA-LIGAND FREE ENERGY PREDICTED BY IDOCK:   -3.36 KCAL/MOL
REMARK 927      BINDING AFFINITY PREDICTED BY RF-SCORE:    0.00 PKD
ROOT
HETATM    1  C   UNL     1      -5.932  10.506  67.076  1.00  0.00    -0.053 C  
HETATM    2  C   UNL     1      -6.889   9.384  67.440  1.00  0.00    -0.080 C  
ENDROOT
BRANCH   2   3
HETATM    3  C   UNL     1      -7.313   9.475  68.902  1.00  0.00    -0.073 C  
BRANCH   3   4
HETATM    4  C   UNL     1      -7.021   8.173  69.642  1.00  0.00    -0.049 C  
BRANCH   4   5
HETATM    5  C   UNL     1      -8.294   7.611  70.269  1.00  0.00    -0.132 C  
BRANCH   5   6
HETATM    6  C   UNL     1      -8.499   6.154  69.869  1.00  0.00    -0.129 C  
BRANCH   6   7
HETATM    7  C   UNL     1      -7.614   5.793  68.682  1.00  0.00    -0.089 C  
BRANCH   7   8
HETATM    8  C   UNL     1      -8.452   5.624  67.421  1.00  0.00    -0.106 C  
BRANCH   8   9
HETATM    9  C   UNL     1      -9.915   5.391  67.776  1.00  0.00    -0.198 C  
BRANCH   9  10
HETATM   10  C   UNL     1     -10.811   6.355  67.011  1.00  0.00    -0.464 C  
BRANCH  10  11
HETATM   11  C   UNL     1     -10.119   7.700  66.833  1.00  0.00    -0.348 C  
BRANCH  11  12
HETATM   12  C   UNL     1     -10.666   8.716  67.827  1.00  0.00    -0.178 C  
BRANCH  12  13
HETATM   13  C   UNL     1     -10.492  10.129  67.293  1.00  0.00    -0.313 C  
BRANCH  13  14
HETATM   14  C   UNL     1     -11.139  11.139  68.232  1.00  0.00    -0.310 C  
BRANCH  14  15
HETATM   15  C   UNL     1     -11.115  10.628  69.665  1.00  0.00    -0.342 C  
BRANCH  15  16
HETATM   16  C   UNL     1     -12.531  10.372  70.165  1.00  0.00    -0.247 C  
BRANCH  16  17
HETATM   17  C   UNL     1     -12.596  10.498  71.683  1.00  0.00    -0.498 C  
BRANCH  17  18
HETATM   18  C   UNL     1     -12.473   9.129  72.341  1.00  0.00    -0.350 C  
BRANCH  18  19
HETATM   19  C   UNL     1     -12.835   8.020  71.359  1.00  0.00    -0.289 C  
BRANCH  19  20
HETATM   20  C   UNL     1     -11.789   6.911  71.388  1.00  0.00    -0.373 C  
BRANCH  20  21
HETATM   21  C   UNL     1     -11.045   6.895  72.718  1.00  0.00    -0.304 C  
BRANCH  21  22
HETATM   22  C   UNL     1     -10.572   5.491  73.070  1.00  0.00    -0.239 C  
HETATM   23  O   UNL     1     -11.616   4.780  73.722  1.00  0.00    -0.365 OA 
HETATM   24  H   UNL     1     -11.321   3.904  73.941  1.00  0.00     0.000 HD 
ENDBRANCH  21  22
ENDBRANCH  20  21
ENDBRANCH  19  20
ENDBRANCH  18  19
ENDBRANCH  17  18
ENDBRANCH  16  17
ENDBRANCH  15  16
ENDBRANCH  14  15
ENDBRANCH  13  14
ENDBRANCH  12  13
ENDBRANCH  11  12
ENDBRANCH  10  11
ENDBRANCH   9  10
ENDBRANCH   8   9
ENDBRANCH   7   8
ENDBRANCH   6   7
ENDBRANCH   5   6
ENDBRANCH   4   5
ENDBRANCH   3   4
ENDBRANCH   2   3
TORSDOF 20
ENDMDL
MODEL      333
REMARK 921   NORMALIZED FREE ENERGY PREDICTED BY IDOCK:   -2.77 KCAL/MOL
REMARK 922        TOTAL FREE ENERGY PREDICTED BY IDOCK:   -8.88 KCAL/MOL
REMARK 923 INTER-LIGAND FREE ENERGY PREDICTED BY IDOCK:   -7.45 KCAL/MOL
REMARK 924 INTRA-LIGAND FREE ENERGY PREDICTED BY IDOCK:   -1.44 KCAL/MOL
REMARK 927      BINDING AFFINITY PREDICTED BY RF-SCORE:    0.00 PKD
ROOT
HETATM    1  C   UNL     1      -7.744  20.084  65.836  1.00  0.00    -0.298 C  
HETATM    2  C   UNL     1      -9.227  19.891  66.103  1.00  0.00    -0.414 C  
ENDROOT
BRANCH   2   3
HETATM    3  C   UNL     1      -9.634  20.530  67.428  1.00  0.00    -0.578 C  
BRANCH   3   4
HETATM    4  C   UNL     1      -9.711  19.488  68.540  1.00  0.00    -0.503 C  
BRANCH   4   5
HETATM    5  C   UNL     1     -10.297  18.180  68.016  1.00  0.00    -0.405 C  
BRANCH   5   6
HETATM    6  C   UNL     1      -9.544  16.982  68.583  1.00  0.00    -0.275 C  
BRANCH   6   7
HETATM    7  C   UNL     1      -8.216  16.790  67.861  1.00  0.00    -0.189 C  
BRANCH   7   8
HETATM    8  C   UNL     1      -8.326  15.681  66.822  1.00  0.00    -0.313 C  
BRANCH   8   9
HETATM    9  C   UNL     1      -7.650  14.411  67.320  1.00  0.00    -0.135 C  
BRANCH   9  10
HETATM   10  C   UNL     1      -8.540  13.200  67.075  1.00  0.00    -0.168 C  
BRANCH  10  11
HETATM   11  C   UNL     1      -8.438  12.220  68.235  1.00  0.00    -0.173 C  
BRANCH  11  12
HETATM   12  C   UNL     1      -9.697  11.370  68.328  1.00  0.00    -0.202 C  
BRANCH  12  13
HETATM   13  C   UNL     1      -9.410  10.070  69.062  1.00  0.00    -0.183 C  
BRANCH  13  14
HETATM   14  C   UNL     1     -10.642   9.603  69.826  1.00  0.00    -0.267 C  
BRANCH  14  15
HETATM   15  C   UNL     1     -11.698  10.698  69.857  1.00  0.00    -0.395 C  
BRANCH  15  16
HETATM   16  C   UNL     1     -13.003  10.166  70.434  1.00  0.00    -0.116 C  
BRANCH  16  17
HETATM   17  C   UNL     1     -13.221  10.694  71.847  1.00  0.00    -0.528 C  
BRANCH  17  18
HETATM   18  C   UNL     1     -12.675  12.111  71.982  1.00  0.00    -0.105 C  
BRANCH  18  19
HETATM   19  C   UNL     1     -13.796  13.097  72.291  1.00  0.00    -0.586 C  
BRANCH  19  20
HETATM   20  C   UNL     1     -13.256  14.310  73.041  1.00  0.00    -0.500 C  
BRANCH  20  21
HETATM   21  C   UNL     1     -12.188  15.027  72.224  1.00  0.00    -0.439 C  
BRANCH  21  22
HETATM   22  C   UNL     1     -12.758  15.559  70.916  1.00  0.00    -0.468 C  
HETATM   23  O   UNL     1     -12.033  16.712  70.508  1.00  0.00    -0.207 OA 
HETATM   24  H   UNL     1     -12.388  17.044  69.692  1.00  0.00     0.000 HD 
ENDBRANCH  21  22
ENDBRANCH  20  21
ENDBRANCH  19  20
ENDBRANCH  18  19
ENDBRANCH  17  18
ENDBRANCH  16  17
ENDBRANCH  15  16
ENDBRANCH  14  15
ENDBRANCH  13  14
ENDBRANCH  12  13
ENDBRANCH  11  12
ENDBRANCH  10  11
ENDBRANCH   9  10
ENDBRANCH   8   9
ENDBRANCH   7   8
ENDBRANCH   6   7
ENDBRANCH   5   6
ENDBRANCH   4   5
ENDBRANCH   3   4
ENDBRANCH   2   3
TORSDOF 20
ENDMDL
MODEL      334
REMARK 921   NORMALIZED FREE ENERGY PREDICTED BY IDOCK:   -2.76 KCAL/MOL
REMARK 922        TOTAL FREE ENERGY PREDICTED BY IDOCK:   -8.87 KCAL/MOL
REMARK 923 INTER-LIGAND FREE ENERGY PREDICTED BY IDOCK:   -6.82 KCAL/MOL
REMARK 924 INTRA-LIGAND FREE ENERGY PREDICTED BY IDOCK:   -2.05 KCAL/MOL
REMARK 927      BINDING AFFINITY PREDICTED BY RF-SCORE:    0.00 PKD
ROOT
HETATM    1  C   UNL     1     -10.575  18.202  67.524  1.00  0.00    -0.419 C  
HETATM    2  C   UNL     1     -10.226  16.733  67.694  1.00  0.00    -0.289 C  
ENDROOT
BRANCH   2   3
HETATM    3  C   UNL     1     -11.178  16.051  68.671  1.00  0.00    -0.366 C  
BRANCH   3   4
HETATM    4  C   UNL     1     -11.365  14.578  68.320  1.00  0.00    -0.319 C  
BRANCH   4   5
HETATM    5  C   UNL     1     -11.212  14.357  66.818  1.00  0.00    -0.340 C  
BRANCH   5   6
HETATM    6  C   UNL     1     -12.208  13.317  66.318  1.00  0.00    -0.440 C  
BRANCH   6   7
HETATM    7  C   UNL     1     -12.104  13.156  64.806  1.00  0.00    -0.459 C  
BRANCH   7   8
HETATM    8  C   UNL     1     -10.646  13.064  64.376  1.00  0.00    -0.429 C  
BRANCH   8   9
HETATM    9  C   UNL     1     -10.360  11.712  63.735  1.00  0.00    -0.445 C  
BRANCH   9  10
HETATM   10  C   UNL     1     -10.165  10.645  64.803  1.00  0.00    -0.401 C  
BRANCH  10  11
HETATM   11  C   UNL     1      -8.764  10.729  65.392  1.00  0.00    -0.190 C  
BRANCH  11  12
HETATM   12  C   UNL     1      -8.830  10.933  66.898  1.00  0.00    -0.145 C  
BRANCH  12  13
HETATM   13  C   UNL     1      -9.930  10.076  67.504  1.00  0.00    -0.232 C  
BRANCH  13  14
HETATM   14  C   UNL     1      -9.512   9.556  68.873  1.00  0.00    -0.155 C  
BRANCH  14  15
HETATM   15  C   UNL     1     -10.691   8.906  69.581  1.00  0.00    -0.222 C  
BRANCH  15  16
HETATM   16  C   UNL     1     -10.278   8.402  70.957  1.00  0.00    -0.245 C  
BRANCH  16  17
HETATM   17  C   UNL     1     -10.774   6.978  71.179  1.00  0.00    -0.253 C  
BRANCH  17  18
HETATM   18  C   UNL     1     -11.040   6.287  69.847  1.00  0.00    -0.469 C  
BRANCH  18  19
HETATM   19  C   UNL     1      -9.904   5.334  69.494  1.00  0.00    -0.270 C  
BRANCH  19  20
HETATM   20  C   UNL     1      -9.323   5.671  68.124  1.00  0.00    -0.119 C  
BRANCH  20  21
HETATM   21  C   UNL     1     -10.331   5.388  67.018  1.00  0.00    -0.299 C  
BRANCH  21  22
HETATM   22  C   UNL     1      -9.977   4.115  66.259  1.00  0.00    -0.166 C  
HETATM   23  O   UNL     1      -9.162   4.434  65.139  1.00  0.00    -0.142 OA 
HETATM   24  H   UNL     1      -8.941   3.641  64.665  1.00  0.00     0.000 HD 
ENDBRANCH  21  22
ENDBRANCH  20  21
ENDBRANCH  19  20
ENDBRANCH  18  19
ENDBRANCH  17  18
ENDBRANCH  16  17
ENDBRANCH  15  16
ENDBRANCH  14  15
ENDBRANCH  13  14
ENDBRANCH  12  13
ENDBRANCH  11  12
ENDBRANCH  10  11
ENDBRANCH   9  10
ENDBRANCH   8   9
ENDBRANCH   7   8
ENDBRANCH   6   7
ENDBRANCH   5   6
ENDBRANCH   4   5
ENDBRANCH   3   4
ENDBRANCH   2   3
TORSDOF 20
ENDMDL
MODEL      335
REMARK 921   NORMALIZED FREE ENERGY PREDICTED BY IDOCK:   -2.76 KCAL/MOL
REMARK 922        TOTAL FREE ENERGY PREDICTED BY IDOCK:   -8.86 KCAL/MOL
REMARK 923 INTER-LIGAND FREE ENERGY PREDICTED BY IDOCK:   -6.07 KCAL/MOL
REMARK 924 INTRA-LIGAND FREE ENERGY PREDICTED BY IDOCK:   -2.79 KCAL/MOL
REMARK 927      BINDING AFFINITY PREDICTED BY RF-SCORE:    0.00 PKD
ROOT
HETATM    1  C   UNL     1     -12.729   7.460  70.896  1.00  0.00    -0.162 C  
HETATM    2  C   UNL     1     -11.721   6.324  70.864  1.00  0.00    -0.289 C  
ENDROOT
BRANCH   2   3
HETATM    3  C   UNL     1     -10.481   6.667  71.684  1.00  0.00    -0.232 C  
BRANCH   3   4
HETATM    4  C   UNL     1     -10.399   8.166  71.957  1.00  0.00    -0.320 C  
BRANCH   4   5
HETATM    5  C   UNL     1      -9.126   8.756  71.357  1.00  0.00    -0.313 C  
BRANCH   5   6
HETATM    6  C   UNL     1      -8.833   8.140  69.993  1.00  0.00    -0.139 C  
BRANCH   6   7
HETATM    7  C   UNL     1      -7.896   9.033  69.190  1.00  0.00    -0.093 C  
BRANCH   7   8
HETATM    8  C   UNL     1      -7.188  10.026  70.102  1.00  0.00    -0.167 C  
BRANCH   8   9
HETATM    9  C   UNL     1      -6.785  11.273  69.327  1.00  0.00    -0.110 C  
BRANCH   9  10
HETATM   10  C   UNL     1      -7.157  11.133  67.857  1.00  0.00    -0.081 C  
BRANCH  10  11
HETATM   11  C   UNL     1      -7.442  12.498  67.246  1.00  0.00    -0.125 C  
BRANCH  11  12
HETATM   12  C   UNL     1      -8.937  12.684  67.032  1.00  0.00    -0.216 C  
BRANCH  12  13
HETATM   13  C   UNL     1      -9.510  11.522  66.236  1.00  0.00    -0.235 C  
BRANCH  13  14
HETATM   14  C   UNL     1     -10.914  11.183  66.719  1.00  0.00    -0.309 C  
BRANCH  14  15
HETATM   15  C   UNL     1     -10.855  10.292  67.951  1.00  0.00    -0.337 C  
BRANCH  15  16
HETATM   16  C   UNL     1     -11.911  10.710  68.965  1.00  0.00    -0.186 C  
BRANCH  16  17
HETATM   17  C   UNL     1     -11.299  11.592  70.047  1.00  0.00    -0.176 C  
BRANCH  17  18
HETATM   18  C   UNL     1     -12.390  12.271  70.867  1.00  0.00    -0.363 C  
BRANCH  18  19
HETATM   19  C   UNL     1     -12.416  13.772  70.598  1.00  0.00    -0.429 C  
BRANCH  19  20
HETATM   20  C   UNL     1     -13.685  14.400  71.164  1.00  0.00    -0.297 C  
BRANCH  20  21
HETATM   21  C   UNL     1     -13.836  14.086  72.647  1.00  0.00    -0.516 C  
BRANCH  21  22
HETATM   22  C   UNL     1     -12.882  14.922  73.490  1.00  0.00    -0.463 C  
HETATM   23  O   UNL     1     -13.220  16.298  73.377  1.00  0.00    -0.516 OA 
HETATM   24  H   UNL     1     -12.625  16.820  73.902  1.00  0.00     0.000 HD 
ENDBRANCH  21  22
ENDBRANCH  20  21
ENDBRANCH  19  20
ENDBRANCH  18  19
ENDBRANCH  17  18
ENDBRANCH  16  17
ENDBRANCH  15  16
ENDBRANCH  14  15
ENDBRANCH  13  14
ENDBRANCH  12  13
ENDBRANCH  11  12
ENDBRANCH  10  11
ENDBRANCH   9  10
ENDBRANCH   8   9
ENDBRANCH   7   8
ENDBRANCH   6   7
ENDBRANCH   5   6
ENDBRANCH   4   5
ENDBRANCH   3   4
ENDBRANCH   2   3
TORSDOF 20
ENDMDL
MODEL      336
REMARK 921   NORMALIZED FREE ENERGY PREDICTED BY IDOCK:   -2.76 KCAL/MOL
REMARK 922        TOTAL FREE ENERGY PREDICTED BY IDOCK:   -8.86 KCAL/MOL
REMARK 923 INTER-LIGAND FREE ENERGY PREDICTED BY IDOCK:   -6.34 KCAL/MOL
REMARK 924 INTRA-LIGAND FREE ENERGY PREDICTED BY IDOCK:   -2.52 KCAL/MOL
REMARK 927      BINDING AFFINITY PREDICTED BY RF-SCORE:    0.00 PKD
ROOT
HETATM    1  C   UNL     1      -7.498  17.006  67.657  1.00  0.00    -0.179 C  
HETATM    2  C   UNL     1      -8.124  16.799  66.288  1.00  0.00    -0.365 C  
ENDROOT
BRANCH   2   3
HETATM    3  C   UNL     1      -9.086  15.614  66.298  1.00  0.00    -0.376 C  
BRANCH   3   4
HETATM    4  C   UNL     1     -10.303  15.901  67.173  1.00  0.00    -0.300 C  
BRANCH   4   5
HETATM    5  C   UNL     1     -10.656  14.684  68.023  1.00  0.00    -0.240 C  
BRANCH   5   6
HETATM    6  C   UNL     1     -10.336  13.392  67.279  1.00  0.00    -0.244 C  
BRANCH   6   7
HETATM    7  C   UNL     1     -11.585  12.531  67.135  1.00  0.00    -0.437 C  
BRANCH   7   8
HETATM    8  C   UNL     1     -11.898  12.283  65.665  1.00  0.00    -0.423 C  
BRANCH   8   9
HETATM    9  C   UNL     1     -10.692  12.612  64.796  1.00  0.00    -0.335 C  
BRANCH   9  10
HETATM   10  C   UNL     1     -10.480  11.533  63.745  1.00  0.00    -0.459 C  
BRANCH  10  11
HETATM   11  C   UNL     1      -9.897  10.277  64.378  1.00  0.00    -0.374 C  
BRANCH  11  12
HETATM   12  C   UNL     1      -8.789  10.638  65.357  1.00  0.00    -0.204 C  
BRANCH  12  13
HETATM   13  C   UNL     1      -8.974   9.893  66.670  1.00  0.00    -0.157 C  
BRANCH  13  14
HETATM   14  C   UNL     1      -9.521   8.494  66.419  1.00  0.00    -0.297 C  
BRANCH  14  15
HETATM   15  C   UNL     1     -10.653   8.181  67.386  1.00  0.00    -0.325 C  
BRANCH  15  16
HETATM   16  C   UNL     1     -10.599   9.109  68.592  1.00  0.00    -0.207 C  
BRANCH  16  17
HETATM   17  C   UNL     1     -10.935   8.351  69.870  1.00  0.00    -0.166 C  
BRANCH  17  18
HETATM   18  C   UNL     1     -10.160   8.921  71.053  1.00  0.00    -0.324 C  
BRANCH  18  19
HETATM   19  C   UNL     1     -11.050   9.823  71.900  1.00  0.00     0.380 C  
BRANCH  19  20
HETATM   20  C   UNL     1     -12.422   9.988  71.255  1.00  0.00    -0.494 C  
BRANCH  20  21
HETATM   21  C   UNL     1     -13.080  11.290  71.695  1.00  0.00    -0.513 C  
BRANCH  21  22
HETATM   22  C   UNL     1     -13.032  12.335  70.588  1.00  0.00     0.198 C  
HETATM   23  O   UNL     1     -11.963  13.241  70.829  1.00  0.00    -0.501 OA 
HETATM   24  H   UNL     1     -11.932  13.893  70.138  1.00  0.00     0.000 HD 
ENDBRANCH  21  22
ENDBRANCH  20  21
ENDBRANCH  19  20
ENDBRANCH  18  19
ENDBRANCH  17  18
ENDBRANCH  16  17
ENDBRANCH  15  16
ENDBRANCH  14  15
ENDBRANCH  13  14
ENDBRANCH  12  13
ENDBRANCH  11  12
ENDBRANCH  10  11
ENDBRANCH   9  10
ENDBRANCH   8   9
ENDBRANCH   7   8
ENDBRANCH   6   7
ENDBRANCH   5   6
ENDBRANCH   4   5
ENDBRANCH   3   4
ENDBRANCH   2   3
TORSDOF 20
ENDMDL
MODEL      337
REMARK 921   NORMALIZED FREE ENERGY PREDICTED BY IDOCK:   -2.76 KCAL/MOL
REMARK 922        TOTAL FREE ENERGY PREDICTED BY IDOCK:   -8.85 KCAL/MOL
REMARK 923 INTER-LIGAND FREE ENERGY PREDICTED BY IDOCK:   -6.39 KCAL/MOL
REMARK 924 INTRA-LIGAND FREE ENERGY PREDICTED BY IDOCK:   -2.45 KCAL/MOL
REMARK 927      BINDING AFFINITY PREDICTED BY RF-SCORE:    0.00 PKD
ROOT
HETATM    1  C   UNL     1     -10.082   8.564  67.252  1.00  0.00    -0.317 C  
HETATM    2  C   UNL     1      -9.381   9.718  67.949  1.00  0.00    -0.139 C  
ENDROOT
BRANCH   2   3
HETATM    3  C   UNL     1      -9.470  10.996  67.120  1.00  0.00    -0.181 C  
BRANCH   3   4
HETATM    4  C   UNL     1     -10.762  11.037  66.309  1.00  0.00    -0.273 C  
BRANCH   4   5
HETATM    5  C   UNL     1     -10.617  11.967  65.108  1.00  0.00    -0.330 C  
BRANCH   5   6
HETATM    6  C   UNL     1     -11.243  13.328  65.397  1.00  0.00    -0.306 C  
BRANCH   6   7
HETATM    7  C   UNL     1     -12.045  13.287  66.692  1.00  0.00    -0.421 C  
BRANCH   7   8
HETATM    8  C   UNL     1     -11.586  14.387  67.641  1.00  0.00    -0.396 C  
BRANCH   8   9
HETATM    9  C   UNL     1     -11.079  13.790  68.947  1.00  0.00    -0.300 C  
BRANCH   9  10
HETATM   10  C   UNL     1     -12.238  13.256  69.777  1.00  0.00    -0.285 C  
BRANCH  10  11
HETATM   11  C   UNL     1     -11.993  11.805  70.166  1.00  0.00    -0.421 C  
BRANCH  11  12
HETATM   12  C   UNL     1     -12.741  11.462  71.446  1.00  0.00    -0.489 C  
BRANCH  12  13
HETATM   13  C   UNL     1     -12.701   9.963  71.700  1.00  0.00    -0.527 C  
BRANCH  13  14
HETATM   14  C   UNL     1     -11.528   9.326  70.967  1.00  0.00    -0.387 C  
BRANCH  14  15
HETATM   15  C   UNL     1     -11.300   7.904  71.458  1.00  0.00    -0.293 C  
BRANCH  15  16
HETATM   16  C   UNL     1     -11.568   6.903  70.341  1.00  0.00    -0.385 C  
BRANCH  16  17
HETATM   17  C   UNL     1     -10.640   5.700  70.463  1.00  0.00    -0.354 C  
BRANCH  17  18
HETATM   18  C   UNL     1     -10.256   5.177  69.084  1.00  0.00    -0.259 C  
BRANCH  18  19
HETATM   19  C   UNL     1      -8.802   5.507  68.764  1.00  0.00    -0.109 C  
BRANCH  19  20
HETATM   20  C   UNL     1      -8.299   6.644  69.647  1.00  0.00    -0.132 C  
BRANCH  20  21
HETATM   21  C   UNL     1      -6.776   6.691  69.665  1.00  0.00    -0.050 C  
BRANCH  21  22
HETATM   22  C   UNL     1      -6.178   5.485  68.952  1.00  0.00    -0.033 C  
HETATM   23  O   UNL     1      -5.465   4.681  69.883  1.00  0.00    -0.007 OA 
HETATM   24  H   UNL     1      -5.092   3.929  69.438  1.00  0.00     0.000 HD 
ENDBRANCH  21  22
ENDBRANCH  20  21
ENDBRANCH  19  20
ENDBRANCH  18  19
ENDBRANCH  17  18
ENDBRANCH  16  17
ENDBRANCH  15  16
ENDBRANCH  14  15
ENDBRANCH  13  14
ENDBRANCH  12  13
ENDBRANCH  11  12
ENDBRANCH  10  11
ENDBRANCH   9  10
ENDBRANCH   8   9
ENDBRANCH   7   8
ENDBRANCH   6   7
ENDBRANCH   5   6
ENDBRANCH   4   5
ENDBRANCH   3   4
ENDBRANCH   2   3
TORSDOF 20
ENDMDL
MODEL      338
REMARK 921   NORMALIZED FREE ENERGY PREDICTED BY IDOCK:   -2.74 KCAL/MOL
REMARK 922        TOTAL FREE ENERGY PREDICTED BY IDOCK:   -8.82 KCAL/MOL
REMARK 923 INTER-LIGAND FREE ENERGY PREDICTED BY IDOCK:   -6.10 KCAL/MOL
REMARK 924 INTRA-LIGAND FREE ENERGY PREDICTED BY IDOCK:   -2.72 KCAL/MOL
REMARK 927      BINDING AFFINITY PREDICTED BY RF-SCORE:    0.00 PKD
ROOT
HETATM    1  C   UNL     1      -8.264   8.271  64.967  1.00  0.00    -0.160 C  
HETATM    2  C   UNL     1      -9.484   8.772  65.721  1.00  0.00    -0.239 C  
ENDROOT
BRANCH   2   3
HETATM    3  C   UNL     1      -9.971   7.737  66.730  1.00  0.00    -0.331 C  
BRANCH   3   4
HETATM    4  C   UNL     1     -10.623   8.408  67.936  1.00  0.00    -0.218 C  
BRANCH   4   5
HETATM    5  C   UNL     1     -10.232   7.697  69.227  1.00  0.00    -0.210 C  
BRANCH   5   6
HETATM    6  C   UNL     1     -11.223   6.584  69.555  1.00  0.00    -0.434 C  
BRANCH   6   7
HETATM    7  C   UNL     1     -11.032   6.099  70.987  1.00  0.00    -0.354 C  
BRANCH   7   8
HETATM    8  C   UNL     1     -12.008   6.797  71.925  1.00  0.00    -0.374 C  
BRANCH   8   9
HETATM    9  C   UNL     1     -13.363   6.977  71.252  1.00  0.00    -0.282 C  
BRANCH   9  10
HETATM   10  C   UNL     1     -13.996   8.296  71.670  1.00  0.00    -0.461 C  
BRANCH  10  11
HETATM   11  C   UNL     1     -12.950   9.225  72.268  1.00  0.00    -0.488 C  
BRANCH  11  12
HETATM   12  C   UNL     1     -13.011  10.595  71.607  1.00  0.00    -0.582 C  
BRANCH  12  13
HETATM   13  C   UNL     1     -11.811  10.801  70.697  1.00  0.00    -0.460 C  
BRANCH  13  14
HETATM   14  C   UNL     1     -12.262  11.194  69.296  1.00  0.00    -0.295 C  
BRANCH  14  15
HETATM   15  C   UNL     1     -11.428  12.354  68.773  1.00  0.00    -0.350 C  
BRANCH  15  16
HETATM   16  C   UNL     1      -9.981  11.924  68.566  1.00  0.00    -0.196 C  
BRANCH  16  17
HETATM   17  C   UNL     1      -9.309  12.789  67.507  1.00  0.00    -0.189 C  
BRANCH  17  18
HETATM   18  C   UNL     1      -7.798  12.594  67.534  1.00  0.00    -0.175 C  
BRANCH  18  19
HETATM   19  C   UNL     1      -7.431  11.153  67.195  1.00  0.00    -0.121 C  
BRANCH  19  20
HETATM   20  C   UNL     1      -6.746  10.479  68.379  1.00  0.00    -0.060 C  
BRANCH  20  21
HETATM   21  C   UNL     1      -5.490   9.738  67.934  1.00  0.00    -0.039 C  
BRANCH  21  22
HETATM   22  C   UNL     1      -5.463   8.317  68.483  1.00  0.00    -0.033 C  
HETATM   23  O   UNL     1      -6.510   7.555  67.895  1.00  0.00    -0.050 OA 
HETATM   24  H   UNL     1      -6.493   6.669  68.237  1.00  0.00     0.000 HD 
ENDBRANCH  21  22
ENDBRANCH  20  21
ENDBRANCH  19  20
ENDBRANCH  18  19
ENDBRANCH  17  18
ENDBRANCH  16  17
ENDBRANCH  15  16
ENDBRANCH  14  15
ENDBRANCH  13  14
ENDBRANCH  12  13
ENDBRANCH  11  12
ENDBRANCH  10  11
ENDBRANCH   9  10
ENDBRANCH   8   9
ENDBRANCH   7   8
ENDBRANCH   6   7
ENDBRANCH   5   6
ENDBRANCH   4   5
ENDBRANCH   3   4
ENDBRANCH   2   3
TORSDOF 20
ENDMDL
MODEL      339
REMARK 921   NORMALIZED FREE ENERGY PREDICTED BY IDOCK:   -2.74 KCAL/MOL
REMARK 922        TOTAL FREE ENERGY PREDICTED BY IDOCK:   -8.82 KCAL/MOL
REMARK 923 INTER-LIGAND FREE ENERGY PREDICTED BY IDOCK:   -5.82 KCAL/MOL
REMARK 924 INTRA-LIGAND FREE ENERGY PREDICTED BY IDOCK:   -3.00 KCAL/MOL
REMARK 927      BINDING AFFINITY PREDICTED BY RF-SCORE:    0.00 PKD
ROOT
HETATM    1  C   UNL     1      -8.111   6.205  65.122  1.00  0.00    -0.133 C  
HETATM    2  C   UNL     1      -7.728   5.846  66.548  1.00  0.00    -0.100 C  
ENDROOT
BRANCH   2   3
HETATM    3  C   UNL     1      -8.822   6.255  67.530  1.00  0.00    -0.103 C  
BRANCH   3   4
HETATM    4  C   UNL     1      -8.236   6.997  68.728  1.00  0.00    -0.122 C  
BRANCH   4   5
HETATM    5  C   UNL     1      -8.228   8.503  68.480  1.00  0.00    -0.123 C  
BRANCH   5   6
HETATM    6  C   UNL     1      -9.352   8.902  67.529  1.00  0.00    -0.160 C  
BRANCH   6   7
HETATM    7  C   UNL     1      -8.831   9.835  66.443  1.00  0.00    -0.163 C  
BRANCH   7   8
HETATM    8  C   UNL     1      -9.880  10.032  65.356  1.00  0.00    -0.384 C  
BRANCH   8   9
HETATM    9  C   UNL     1      -9.842  11.459  64.826  1.00  0.00    -0.302 C  
BRANCH   9  10
HETATM   10  C   UNL     1     -11.229  12.084  64.872  1.00  0.00    -0.374 C  
BRANCH  10  11
HETATM   11  C   UNL     1     -11.760  12.100  66.299  1.00  0.00    -0.389 C  
BRANCH  11  12
HETATM   12  C   UNL     1     -10.827  12.888  67.207  1.00  0.00    -0.277 C  
BRANCH  12  13
HETATM   13  C   UNL     1     -10.699  12.206  68.560  1.00  0.00    -0.257 C  
BRANCH  13  14
HETATM   14  C   UNL     1     -11.794  12.683  69.506  1.00  0.00    -0.376 C  
BRANCH  14  15
HETATM   15  C   UNL     1     -12.120  11.607  70.530  1.00  0.00    -0.458 C  
BRANCH  15  16
HETATM   16  C   UNL     1     -11.180  10.418  70.376  1.00  0.00    -0.399 C  
BRANCH  16  17
HETATM   17  C   UNL     1     -11.966   9.143  70.094  1.00  0.00     0.224 C  
BRANCH  17  18
HETATM   18  C   UNL     1     -11.441   7.990  70.941  1.00  0.00    -0.291 C  
BRANCH  18  19
HETATM   19  C   UNL     1     -11.733   6.650  70.273  1.00  0.00    -0.432 C  
BRANCH  19  20
HETATM   20  C   UNL     1     -10.811   5.564  70.817  1.00  0.00    -0.249 C  
BRANCH  20  21
HETATM   21  C   UNL     1     -10.365   5.886  72.238  1.00  0.00    -0.236 C  
BRANCH  21  22
HETATM   22  C   UNL     1     -11.032   4.963  73.249  1.00  0.00    -0.320 C  
HETATM   23  O   UNL     1     -10.858   5.481  74.562  1.00  0.00    -0.396 OA 
HETATM   24  H   UNL     1     -11.274   4.906  75.192  1.00  0.00     0.000 HD 
ENDBRANCH  21  22
ENDBRANCH  20  21
ENDBRANCH  19  20
ENDBRANCH  18  19
ENDBRANCH  17  18
ENDBRANCH  16  17
ENDBRANCH  15  16
ENDBRANCH  14  15
ENDBRANCH  13  14
ENDBRANCH  12  13
ENDBRANCH  11  12
ENDBRANCH  10  11
ENDBRANCH   9  10
ENDBRANCH   8   9
ENDBRANCH   7   8
ENDBRANCH   6   7
ENDBRANCH   5   6
ENDBRANCH   4   5
ENDBRANCH   3   4
ENDBRANCH   2   3
TORSDOF 20
ENDMDL
MODEL      340
REMARK 921   NORMALIZED FREE ENERGY PREDICTED BY IDOCK:   -2.74 KCAL/MOL
REMARK 922        TOTAL FREE ENERGY PREDICTED BY IDOCK:   -8.81 KCAL/MOL
REMARK 923 INTER-LIGAND FREE ENERGY PREDICTED BY IDOCK:   -5.86 KCAL/MOL
REMARK 924 INTRA-LIGAND FREE ENERGY PREDICTED BY IDOCK:   -2.95 KCAL/MOL
REMARK 927      BINDING AFFINITY PREDICTED BY RF-SCORE:    0.00 PKD
ROOT
HETATM    1  C   UNL     1     -10.792   9.261  71.392  1.00  0.00    -0.434 C  
HETATM    2  C   UNL     1     -10.010   9.177  70.092  1.00  0.00    -0.231 C  
ENDROOT
BRANCH   2   3
HETATM    3  C   UNL     1     -10.771   9.844  68.949  1.00  0.00    -0.244 C  
BRANCH   3   4
HETATM    4  C   UNL     1     -10.787  11.361  69.110  1.00  0.00    -0.260 C  
BRANCH   4   5
HETATM    5  C   UNL     1     -11.844  11.989  68.207  1.00  0.00    -0.351 C  
BRANCH   5   6
HETATM    6  C   UNL     1     -11.435  13.398  67.791  1.00  0.00    -0.351 C  
BRANCH   6   7
HETATM    7  C   UNL     1     -12.306  13.894  66.644  1.00  0.00    -0.411 C  
BRANCH   7   8
HETATM    8  C   UNL     1     -11.568  14.946  65.826  1.00  0.00    -0.234 C  
BRANCH   8   9
HETATM    9  C   UNL     1     -10.924  14.316  64.598  1.00  0.00    -0.379 C  
BRANCH   9  10
HETATM   10  C   UNL     1     -11.842  13.264  63.992  1.00  0.00    -0.512 C  
BRANCH  10  11
HETATM   11  C   UNL     1     -11.047  12.034  63.578  1.00  0.00    -0.519 C  
BRANCH  11  12
HETATM   12  C   UNL     1     -10.611  11.244  64.804  1.00  0.00    -0.376 C  
BRANCH  12  13
HETATM   13  C   UNL     1      -9.095  11.149  64.865  1.00  0.00    -0.111 C  
BRANCH  13  14
HETATM   14  C   UNL     1      -8.580  11.654  66.207  1.00  0.00    -0.103 C  
BRANCH  14  15
HETATM   15  C   UNL     1      -7.841  10.548  66.945  1.00  0.00    -0.117 C  
BRANCH  15  16
HETATM   16  C   UNL     1      -7.801   9.277  66.107  1.00  0.00    -0.099 C  
BRANCH  16  17
HETATM   17  C   UNL     1      -8.185   8.066  66.949  1.00  0.00    -0.115 C  
BRANCH  17  18
HETATM   18  C   UNL     1      -9.533   7.509  66.506  1.00  0.00    -0.237 C  
BRANCH  18  19
HETATM   19  C   UNL     1      -9.705   6.068  66.974  1.00  0.00    -0.159 C  
BRANCH  19  20
HETATM   20  C   UNL     1      -9.031   5.102  66.006  1.00  0.00    -0.140 C  
BRANCH  20  21
HETATM   21  C   UNL     1     -10.065   4.313  65.212  1.00  0.00    -0.231 C  
BRANCH  21  22
HETATM   22  C   UNL     1      -9.508   2.969  64.763  1.00  0.00    -0.143 C  
HETATM   23  O   UNL     1      -9.832   2.746  63.396  1.00  0.00    -0.101 OA 
HETATM   24  H   UNL     1      -9.485   1.907  63.116  1.00  0.00     0.000 HD 
ENDBRANCH  21  22
ENDBRANCH  20  21
ENDBRANCH  19  20
ENDBRANCH  18  19
ENDBRANCH  17  18
ENDBRANCH  16  17
ENDBRANCH  15  16
ENDBRANCH  14  15
ENDBRANCH  13  14
ENDBRANCH  12  13
ENDBRANCH  11  12
ENDBRANCH  10  11
ENDBRANCH   9  10
ENDBRANCH   8   9
ENDBRANCH   7   8
ENDBRANCH   6   7
ENDBRANCH   5   6
ENDBRANCH   4   5
ENDBRANCH   3   4
ENDBRANCH   2   3
TORSDOF 20
ENDMDL
MODEL      341
REMARK 921   NORMALIZED FREE ENERGY PREDICTED BY IDOCK:   -2.73 KCAL/MOL
REMARK 922        TOTAL FREE ENERGY PREDICTED BY IDOCK:   -8.80 KCAL/MOL
REMARK 923 INTER-LIGAND FREE ENERGY PREDICTED BY IDOCK:   -6.56 KCAL/MOL
REMARK 924 INTRA-LIGAND FREE ENERGY PREDICTED BY IDOCK:   -2.24 KCAL/MOL
REMARK 927      BINDING AFFINITY PREDICTED BY RF-SCORE:    0.00 PKD
ROOT
HETATM    1  C   UNL     1      -7.447  13.842  68.850  1.00  0.00    -0.080 C  
HETATM    2  C   UNL     1      -7.167  14.111  67.381  1.00  0.00    -0.124 C  
ENDROOT
BRANCH   2   3
HETATM    3  C   UNL     1      -7.594  15.522  66.989  1.00  0.00    -0.228 C  
BRANCH   3   4
HETATM    4  C   UNL     1      -8.922  15.896  67.640  1.00  0.00    -0.193 C  
BRANCH   4   5
HETATM    5  C   UNL     1      -9.670  16.921  66.793  1.00  0.00    -0.274 C  
BRANCH   5   6
HETATM    6  C   UNL     1     -10.591  16.230  65.793  1.00  0.00    -0.336 C  
BRANCH   6   7
HETATM    7  C   UNL     1     -10.636  14.729  66.051  1.00  0.00    -0.318 C  
BRANCH   7   8
HETATM    8  C   UNL     1     -12.010  14.314  66.561  1.00  0.00    -0.448 C  
BRANCH   8   9
HETATM    9  C   UNL     1     -12.658  13.320  65.607  1.00  0.00    -0.469 C  
BRANCH   9  10
HETATM   10  C   UNL     1     -12.226  13.594  64.174  1.00  0.00    -0.450 C  
BRANCH  10  11
HETATM   11  C   UNL     1     -12.020  12.287  63.419  1.00  0.00    -0.588 C  
BRANCH  11  12
HETATM   12  C   UNL     1     -10.542  11.926  63.373  1.00  0.00    -0.485 C  
BRANCH  12  13
HETATM   13  C   UNL     1     -10.299  10.592  64.063  1.00  0.00    -0.262 C  
BRANCH  13  14
HETATM   14  C   UNL     1      -9.049  10.659  64.931  1.00  0.00    -0.231 C  
BRANCH  14  15
HETATM   15  C   UNL     1      -9.388  11.191  66.315  1.00  0.00    -0.216 C  
BRANCH  15  16
HETATM   16  C   UNL     1      -8.475  10.572  67.365  1.00  0.00    -0.122 C  
BRANCH  16  17
HETATM   17  C   UNL     1      -9.269   9.678  68.309  1.00  0.00    -0.131 C  
BRANCH  17  18
HETATM   18  C   UNL     1      -9.402   8.273  67.733  1.00  0.00    -0.153 C  
BRANCH  18  19
HETATM   19  C   UNL     1     -10.858   7.955  67.411  1.00  0.00    -0.172 C  
BRANCH  19  20
HETATM   20  C   UNL     1     -11.025   6.479  67.066  1.00  0.00    -0.466 C  
BRANCH  20  21
HETATM   21  C   UNL     1     -10.004   5.625  67.808  1.00  0.00    -0.175 C  
BRANCH  21  22
HETATM   22  C   UNL     1      -9.757   4.307  67.087  1.00  0.00    -0.196 C  
HETATM   23  O   UNL     1     -10.519   4.264  65.888  1.00  0.00    -0.444 OA 
HETATM   24  H   UNL     1     -10.364   3.441  65.438  1.00  0.00     0.000 HD 
ENDBRANCH  21  22
ENDBRANCH  20  21
ENDBRANCH  19  20
ENDBRANCH  18  19
ENDBRANCH  17  18
ENDBRANCH  16  17
ENDBRANCH  15  16
ENDBRANCH  14  15
ENDBRANCH  13  14
ENDBRANCH  12  13
ENDBRANCH  11  12
ENDBRANCH  10  11
ENDBRANCH   9  10
ENDBRANCH   8   9
ENDBRANCH   7   8
ENDBRANCH   6   7
ENDBRANCH   5   6
ENDBRANCH   4   5
ENDBRANCH   3   4
ENDBRANCH   2   3
TORSDOF 20
ENDMDL
MODEL      342
REMARK 921   NORMALIZED FREE ENERGY PREDICTED BY IDOCK:   -2.73 KCAL/MOL
REMARK 922        TOTAL FREE ENERGY PREDICTED BY IDOCK:   -8.79 KCAL/MOL
REMARK 923 INTER-LIGAND FREE ENERGY PREDICTED BY IDOCK:   -6.61 KCAL/MOL
REMARK 924 INTRA-LIGAND FREE ENERGY PREDICTED BY IDOCK:   -2.18 KCAL/MOL
REMARK 927      BINDING AFFINITY PREDICTED BY RF-SCORE:    0.00 PKD
ROOT
HETATM    1  C   UNL     1     -12.358  11.872  63.343  1.00  0.00    -0.577 C  
HETATM    2  C   UNL     1     -11.640  12.957  64.127  1.00  0.00    -0.456 C  
ENDROOT
BRANCH   2   3
HETATM    3  C   UNL     1     -12.581  13.632  65.121  1.00  0.00    -0.474 C  
BRANCH   3   4
HETATM    4  C   UNL     1     -11.801  14.321  66.236  1.00  0.00    -0.420 C  
BRANCH   4   5
HETATM    5  C   UNL     1     -11.961  13.567  67.553  1.00  0.00    -0.385 C  
BRANCH   5   6
HETATM    6  C   UNL     1     -10.725  12.723  67.848  1.00  0.00    -0.235 C  
BRANCH   6   7
HETATM    7  C   UNL     1     -11.070  11.575  68.789  1.00  0.00    -0.288 C  
BRANCH   7   8
HETATM    8  C   UNL     1     -11.274  10.284  68.008  1.00  0.00    -0.303 C  
BRANCH   8   9
HETATM    9  C   UNL     1     -10.312  10.213  66.829  1.00  0.00    -0.285 C  
BRANCH   9  10
HETATM   10  C   UNL     1      -9.557   8.892  66.834  1.00  0.00    -0.248 C  
BRANCH  10  11
HETATM   11  C   UNL     1     -10.439   7.774  67.372  1.00  0.00    -0.362 C  
BRANCH  11  12
HETATM   12  C   UNL     1      -9.825   7.167  68.626  1.00  0.00    -0.154 C  
BRANCH  12  13
HETATM   13  C   UNL     1     -10.798   6.199  69.280  1.00  0.00    -0.418 C  
BRANCH  13  14
HETATM   14  C   UNL     1     -11.978   6.951  69.882  1.00  0.00    -0.047 C  
BRANCH  14  15
HETATM   15  C   UNL     1     -11.491   8.037  70.830  1.00  0.00    -0.291 C  
BRANCH  15  16
HETATM   16  C   UNL     1     -11.959   7.755  72.252  1.00  0.00    -0.356 C  
BRANCH  16  17
HETATM   17  C   UNL     1     -10.883   7.012  73.035  1.00  0.00    -0.342 C  
BRANCH  17  18
HETATM   18  C   UNL     1     -11.238   5.536  73.167  1.00  0.00    -0.321 C  
BRANCH  18  19
HETATM   19  C   UNL     1     -10.199   4.664  72.468  1.00  0.00    -0.243 C  
BRANCH  19  20
HETATM   20  C   UNL     1      -8.823   4.854  73.099  1.00  0.00    -0.112 C  
BRANCH  20  21
HETATM   21  C   UNL     1      -7.720   4.712  72.057  1.00  0.00    -0.091 C  
BRANCH  21  22
HETATM   22  C   UNL     1      -7.807   5.812  71.007  1.00  0.00    -0.106 C  
HETATM   23  O   UNL     1      -7.806   7.084  71.642  1.00  0.00    -0.097 OA 
HETATM   24  H   UNL     1      -7.860   7.770  70.987  1.00  0.00     0.000 HD 
ENDBRANCH  21  22
ENDBRANCH  20  21
ENDBRANCH  19  20
ENDBRANCH  18  19
ENDBRANCH  17  18
ENDBRANCH  16  17
ENDBRANCH  15  16
ENDBRANCH  14  15
ENDBRANCH  13  14
ENDBRANCH  12  13
ENDBRANCH  11  12
ENDBRANCH  10  11
ENDBRANCH   9  10
ENDBRANCH   8   9
ENDBRANCH   7   8
ENDBRANCH   6   7
ENDBRANCH   5   6
ENDBRANCH   4   5
ENDBRANCH   3   4
ENDBRANCH   2   3
TORSDOF 20
ENDMDL
MODEL      343
REMARK 921   NORMALIZED FREE ENERGY PREDICTED BY IDOCK:   -2.73 KCAL/MOL
REMARK 922        TOTAL FREE ENERGY PREDICTED BY IDOCK:   -8.78 KCAL/MOL
REMARK 923 INTER-LIGAND FREE ENERGY PREDICTED BY IDOCK:   -7.14 KCAL/MOL
REMARK 924 INTRA-LIGAND FREE ENERGY PREDICTED BY IDOCK:   -1.64 KCAL/MOL
REMARK 927      BINDING AFFINITY PREDICTED BY RF-SCORE:    0.00 PKD
ROOT
HETATM    1  C   UNL     1     -10.110   5.841  69.332  1.00  0.00    -0.277 C  
HETATM    2  C   UNL     1      -9.626   4.956  70.467  1.00  0.00    -0.253 C  
ENDROOT
BRANCH   2   3
HETATM    3  C   UNL     1      -9.217   5.789  71.678  1.00  0.00    -0.158 C  
BRANCH   3   4
HETATM    4  C   UNL     1      -8.811   7.200  71.263  1.00  0.00    -0.129 C  
BRANCH   4   5
HETATM    5  C   UNL     1      -9.572   8.243  72.077  1.00  0.00    -0.316 C  
BRANCH   5   6
HETATM    6  C   UNL     1     -10.578   7.575  73.009  1.00  0.00    -0.422 C  
BRANCH   6   7
HETATM    7  C   UNL     1     -11.995   8.037  72.691  1.00  0.00    -0.334 C  
BRANCH   7   8
HETATM    8  C   UNL     1     -12.052   8.682  71.312  1.00  0.00    -0.333 C  
BRANCH   8   9
HETATM    9  C   UNL     1     -13.326   9.501  71.155  1.00  0.00    -0.314 C  
BRANCH   9  10
HETATM   10  C   UNL     1     -12.998  10.924  70.727  1.00  0.00    -0.308 C  
BRANCH  10  11
HETATM   11  C   UNL     1     -12.662  11.783  71.939  1.00  0.00    -0.215 C  
BRANCH  11  12
HETATM   12  C   UNL     1     -13.818  12.716  72.268  1.00  0.00    -0.310 C  
BRANCH  12  13
HETATM   13  C   UNL     1     -13.307  14.124  72.532  1.00  0.00    -0.616 C  
BRANCH  13  14
HETATM   14  C   UNL     1     -12.171  14.469  71.579  1.00  0.00    -0.415 C  
BRANCH  14  15
HETATM   15  C   UNL     1     -12.591  15.577  70.626  1.00  0.00    -0.493 C  
BRANCH  15  16
HETATM   16  C   UNL     1     -11.496  15.847  69.601  1.00  0.00    -0.346 C  
BRANCH  16  17
HETATM   17  C   UNL     1     -10.655  14.597  69.372  1.00  0.00    -0.209 C  
BRANCH  17  18
HETATM   18  C   UNL     1      -9.501  14.893  68.420  1.00  0.00    -0.209 C  
BRANCH  18  19
HETATM   19  C   UNL     1      -9.929  15.881  67.341  1.00  0.00    -0.239 C  
BRANCH  19  20
HETATM   20  C   UNL     1      -9.041  17.121  67.362  1.00  0.00    -0.226 C  
BRANCH  20  21
HETATM   21  C   UNL     1      -7.905  16.996  66.354  1.00  0.00    -0.343 C  
BRANCH  21  22
HETATM   22  C   UNL     1      -7.005  18.225  66.381  1.00  0.00    -0.235 C  
HETATM   23  O   UNL     1      -7.566  19.250  65.570  1.00  0.00    -0.445 OA 
HETATM   24  H   UNL     1      -7.005  20.016  65.587  1.00  0.00     0.000 HD 
ENDBRANCH  21  22
ENDBRANCH  20  21
ENDBRANCH  19  20
ENDBRANCH  18  19
ENDBRANCH  17  18
ENDBRANCH  16  17
ENDBRANCH  15  16
ENDBRANCH  14  15
ENDBRANCH  13  14
ENDBRANCH  12  13
ENDBRANCH  11  12
ENDBRANCH  10  11
ENDBRANCH   9  10
ENDBRANCH   8   9
ENDBRANCH   7   8
ENDBRANCH   6   7
ENDBRANCH   5   6
ENDBRANCH   4   5
ENDBRANCH   3   4
ENDBRANCH   2   3
TORSDOF 20
ENDMDL
MODEL      344
REMARK 921   NORMALIZED FREE ENERGY PREDICTED BY IDOCK:   -2.72 KCAL/MOL
REMARK 922        TOTAL FREE ENERGY PREDICTED BY IDOCK:   -8.78 KCAL/MOL
REMARK 923 INTER-LIGAND FREE ENERGY PREDICTED BY IDOCK:   -6.91 KCAL/MOL
REMARK 924 INTRA-LIGAND FREE ENERGY PREDICTED BY IDOCK:   -1.87 KCAL/MOL
REMARK 927      BINDING AFFINITY PREDICTED BY RF-SCORE:    0.00 PKD
ROOT
HETATM    1  C   UNL     1     -10.584  14.551  68.085  1.00  0.00    -0.238 C  
HETATM    2  C   UNL     1     -11.827  14.077  68.818  1.00  0.00    -0.396 C  
ENDROOT
BRANCH   2   3
HETATM    3  C   UNL     1     -12.111  14.950  70.037  1.00  0.00    -0.387 C  
BRANCH   3   4
HETATM    4  C   UNL     1     -12.434  14.098  71.261  1.00  0.00    -0.446 C  
BRANCH   4   5
HETATM    5  C   UNL     1     -12.613  12.634  70.868  1.00  0.00    -0.338 C  
BRANCH   5   6
HETATM    6  C   UNL     1     -13.143  11.818  72.042  1.00  0.00    -0.436 C  
BRANCH   6   7
HETATM    7  C   UNL     1     -12.933  10.328  71.800  1.00  0.00    -0.574 C  
BRANCH   7   8
HETATM    8  C   UNL     1     -11.645  10.088  71.023  1.00  0.00    -0.476 C  
BRANCH   8   9
HETATM    9  C   UNL     1     -10.714   9.166  71.800  1.00  0.00    -0.405 C  
BRANCH   9  10
HETATM   10  C   UNL     1      -9.758   8.453  70.855  1.00  0.00    -0.212 C  
BRANCH  10  11
HETATM   11  C   UNL     1      -9.621   6.987  71.240  1.00  0.00    -0.164 C  
BRANCH  11  12
HETATM   12  C   UNL     1     -10.934   6.251  71.014  1.00  0.00    -0.340 C  
BRANCH  12  13
HETATM   13  C   UNL     1     -11.341   6.326  69.551  1.00  0.00    -0.475 C  
BRANCH  13  14
HETATM   14  C   UNL     1     -10.409   5.482  68.691  1.00  0.00    -0.255 C  
BRANCH  14  15
HETATM   15  C   UNL     1     -10.806   5.574  67.225  1.00  0.00    -0.136 C  
BRANCH  15  16
HETATM   16  C   UNL     1      -9.722   6.277  66.420  1.00  0.00    -0.146 C  
BRANCH  16  17
HETATM   17  C   UNL     1      -8.930   7.234  67.304  1.00  0.00    -0.126 C  
BRANCH  17  18
HETATM   18  C   UNL     1      -9.501   8.644  67.215  1.00  0.00    -0.198 C  
BRANCH  18  19
HETATM   19  C   UNL     1      -8.546   9.570  66.469  1.00  0.00    -0.142 C  
BRANCH  19  20
HETATM   20  C   UNL     1      -8.426   9.157  65.006  1.00  0.00    -0.187 C  
BRANCH  20  21
HETATM   21  C   UNL     1      -9.271  10.057  64.113  1.00  0.00    -0.319 C  
BRANCH  21  22
HETATM   22  C   UNL     1      -9.569  11.387  64.792  1.00  0.00    -0.210 C  
HETATM   23  O   UNL     1     -10.948  11.702  64.649  1.00  0.00    -0.305 OA 
HETATM   24  H   UNL     1     -11.134  12.532  65.072  1.00  0.00     0.000 HD 
ENDBRANCH  21  22
ENDBRANCH  20  21
ENDBRANCH  19  20
ENDBRANCH  18  19
ENDBRANCH  17  18
ENDBRANCH  16  17
ENDBRANCH  15  16
ENDBRANCH  14  15
ENDBRANCH  13  14
ENDBRANCH  12  13
ENDBRANCH  11  12
ENDBRANCH  10  11
ENDBRANCH   9  10
ENDBRANCH   8   9
ENDBRANCH   7   8
ENDBRANCH   6   7
ENDBRANCH   5   6
ENDBRANCH   4   5
ENDBRANCH   3   4
ENDBRANCH   2   3
TORSDOF 20
ENDMDL
MODEL      345
REMARK 921   NORMALIZED FREE ENERGY PREDICTED BY IDOCK:   -2.72 KCAL/MOL
REMARK 922        TOTAL FREE ENERGY PREDICTED BY IDOCK:   -8.77 KCAL/MOL
REMARK 923 INTER-LIGAND FREE ENERGY PREDICTED BY IDOCK:   -5.32 KCAL/MOL
REMARK 924 INTRA-LIGAND FREE ENERGY PREDICTED BY IDOCK:   -3.45 KCAL/MOL
REMARK 927      BINDING AFFINITY PREDICTED BY RF-SCORE:    0.00 PKD
ROOT
HETATM    1  C   UNL     1      -6.197  11.632  69.884  1.00  0.00    -0.144 C  
HETATM    2  C   UNL     1      -7.006  10.349  69.965  1.00  0.00    -0.159 C  
ENDROOT
BRANCH   2   3
HETATM    3  C   UNL     1      -8.456  10.586  69.554  1.00  0.00    -0.060 C  
BRANCH   3   4
HETATM    4  C   UNL     1      -9.352   9.438  70.011  1.00  0.00    -0.253 C  
BRANCH   4   5
HETATM    5  C   UNL     1      -8.665   8.615  71.096  1.00  0.00    -0.244 C  
BRANCH   5   6
HETATM    6  C   UNL     1      -8.407   7.191  70.615  1.00  0.00    -0.126 C  
BRANCH   6   7
HETATM    7  C   UNL     1      -9.587   6.288  70.951  1.00  0.00    -0.192 C  
BRANCH   7   8
HETATM    8  C   UNL     1     -10.054   5.533  69.713  1.00  0.00    -0.302 C  
BRANCH   8   9
HETATM    9  C   UNL     1     -11.176   6.290  69.014  1.00  0.00    -0.415 C  
BRANCH   9  10
HETATM   10  C   UNL     1     -10.988   6.251  67.504  1.00  0.00    -0.444 C  
BRANCH  10  11
HETATM   11  C   UNL     1      -9.961   7.286  67.067  1.00  0.00    -0.293 C  
BRANCH  11  12
HETATM   12  C   UNL     1      -8.810   6.616  66.329  1.00  0.00    -0.156 C  
BRANCH  12  13
HETATM   13  C   UNL     1      -7.479   7.016  66.945  1.00  0.00    -0.086 C  
BRANCH  13  14
HETATM   14  C   UNL     1      -7.238   8.510  66.776  1.00  0.00    -0.075 C  
BRANCH  14  15
HETATM   15  C   UNL     1      -6.754   8.818  65.367  1.00  0.00    -0.068 C  
BRANCH  15  16
HETATM   16  C   UNL     1      -7.702   9.787  64.674  1.00  0.00    -0.136 C  
BRANCH  16  17
HETATM   17  C   UNL     1      -8.511  10.574  65.699  1.00  0.00    -0.179 C  
BRANCH  17  18
HETATM   18  C   UNL     1      -9.991  10.569  65.334  1.00  0.00    -0.353 C  
BRANCH  18  19
HETATM   19  C   UNL     1     -10.682  11.825  65.854  1.00  0.00    -0.328 C  
BRANCH  19  20
HETATM   20  C   UNL     1     -11.298  11.573  67.226  1.00  0.00    -0.359 C  
BRANCH  20  21
HETATM   21  C   UNL     1     -11.075  12.763  68.152  1.00  0.00    -0.288 C  
BRANCH  21  22
HETATM   22  C   UNL     1     -12.016  13.911  67.814  1.00  0.00    -0.355 C  
HETATM   23  O   UNL     1     -11.273  15.114  67.662  1.00  0.00    -0.310 OA 
HETATM   24  H   UNL     1     -11.861  15.830  67.452  1.00  0.00     0.000 HD 
ENDBRANCH  21  22
ENDBRANCH  20  21
ENDBRANCH  19  20
ENDBRANCH  18  19
ENDBRANCH  17  18
ENDBRANCH  16  17
ENDBRANCH  15  16
ENDBRANCH  14  15
ENDBRANCH  13  14
ENDBRANCH  12  13
ENDBRANCH  11  12
ENDBRANCH  10  11
ENDBRANCH   9  10
ENDBRANCH   8   9
ENDBRANCH   7   8
ENDBRANCH   6   7
ENDBRANCH   5   6
ENDBRANCH   4   5
ENDBRANCH   3   4
ENDBRANCH   2   3
TORSDOF 20
ENDMDL
MODEL      346
REMARK 921   NORMALIZED FREE ENERGY PREDICTED BY IDOCK:   -2.71 KCAL/MOL
REMARK 922        TOTAL FREE ENERGY PREDICTED BY IDOCK:   -8.76 KCAL/MOL
REMARK 923 INTER-LIGAND FREE ENERGY PREDICTED BY IDOCK:   -6.24 KCAL/MOL
REMARK 924 INTRA-LIGAND FREE ENERGY PREDICTED BY IDOCK:   -2.52 KCAL/MOL
REMARK 927      BINDING AFFINITY PREDICTED BY RF-SCORE:    0.00 PKD
ROOT
HETATM    1  C   UNL     1      -7.353   8.103  73.203  1.00  0.00    -0.164 C  
HETATM    2  C   UNL     1      -8.845   8.137  72.920  1.00  0.00    -0.307 C  
ENDROOT
BRANCH   2   3
HETATM    3  C   UNL     1      -9.225   7.120  71.848  1.00  0.00    -0.149 C  
BRANCH   3   4
HETATM    4  C   UNL     1      -8.768   7.580  70.467  1.00  0.00    -0.146 C  
BRANCH   4   5
HETATM    5  C   UNL     1      -9.953   7.677  69.510  1.00  0.00    -0.182 C  
BRANCH   5   6
HETATM    6  C   UNL     1      -9.538   7.299  68.092  1.00  0.00    -0.145 C  
BRANCH   6   7
HETATM    7  C   UNL     1     -10.445   7.973  67.069  1.00  0.00    -0.410 C  
BRANCH   7   8
HETATM    8  C   UNL     1      -9.967   9.390  66.780  1.00  0.00    -0.305 C  
BRANCH   8   9
HETATM    9  C   UNL     1      -8.568   9.372  66.179  1.00  0.00    -0.147 C  
BRANCH   9  10
HETATM   10  C   UNL     1      -7.744  10.537  66.707  1.00  0.00    -0.118 C  
BRANCH  10  11
HETATM   11  C   UNL     1      -7.995  10.738  68.195  1.00  0.00    -0.114 C  
BRANCH  11  12
HETATM   12  C   UNL     1      -7.951  12.218  68.548  1.00  0.00    -0.107 C  
BRANCH  12  13
HETATM   13  C   UNL     1      -7.946  13.067  67.286  1.00  0.00    -0.143 C  
BRANCH  13  14
HETATM   14  C   UNL     1      -9.366  13.454  66.896  1.00  0.00    -0.253 C  
BRANCH  14  15
HETATM   15  C   UNL     1      -9.823  14.672  67.685  1.00  0.00    -0.218 C  
BRANCH  15  16
HETATM   16  C   UNL     1     -10.800  14.266  68.781  1.00  0.00    -0.265 C  
BRANCH  16  17
HETATM   17  C   UNL     1     -12.007  13.549  68.187  1.00  0.00    -0.376 C  
BRANCH  17  18
HETATM   18  C   UNL     1     -11.852  12.038  68.317  1.00  0.00    -0.351 C  
BRANCH  18  19
HETATM   19  C   UNL     1     -11.766  11.626  69.783  1.00  0.00    -0.425 C  
BRANCH  19  20
HETATM   20  C   UNL     1     -12.325  10.222  69.983  1.00  0.00    -0.158 C  
BRANCH  20  21
HETATM   21  C   UNL     1     -12.111   9.746  71.415  1.00  0.00    -0.486 C  
BRANCH  21  22
HETATM   22  C   UNL     1     -13.259  10.176  72.318  1.00  0.00    -0.261 C  
HETATM   23  O   UNL     1     -13.706   9.069  73.088  1.00  0.00    -1.013 OA 
HETATM   24  H   UNL     1     -14.423   9.337  73.651  1.00  0.00     0.000 HD 
ENDBRANCH  21  22
ENDBRANCH  20  21
ENDBRANCH  19  20
ENDBRANCH  18  19
ENDBRANCH  17  18
ENDBRANCH  16  17
ENDBRANCH  15  16
ENDBRANCH  14  15
ENDBRANCH  13  14
ENDBRANCH  12  13
ENDBRANCH  11  12
ENDBRANCH  10  11
ENDBRANCH   9  10
ENDBRANCH   8   9
ENDBRANCH   7   8
ENDBRANCH   6   7
ENDBRANCH   5   6
ENDBRANCH   4   5
ENDBRANCH   3   4
ENDBRANCH   2   3
TORSDOF 20
ENDMDL
MODEL      347
REMARK 921   NORMALIZED FREE ENERGY PREDICTED BY IDOCK:   -2.71 KCAL/MOL
REMARK 922        TOTAL FREE ENERGY PREDICTED BY IDOCK:   -8.76 KCAL/MOL
REMARK 923 INTER-LIGAND FREE ENERGY PREDICTED BY IDOCK:   -5.92 KCAL/MOL
REMARK 924 INTRA-LIGAND FREE ENERGY PREDICTED BY IDOCK:   -2.84 KCAL/MOL
REMARK 927      BINDING AFFINITY PREDICTED BY RF-SCORE:    0.00 PKD
ROOT
HETATM    1  C   UNL     1     -10.139   5.532  74.347  1.00  0.00    -0.282 C  
HETATM    2  C   UNL     1      -8.669   5.825  74.100  1.00  0.00    -0.122 C  
ENDROOT
BRANCH   2   3
HETATM    3  C   UNL     1      -8.462   6.497  72.747  1.00  0.00    -0.120 C  
BRANCH   3   4
HETATM    4  C   UNL     1      -8.434   8.017  72.886  1.00  0.00    -0.244 C  
BRANCH   4   5
HETATM    5  C   UNL     1      -8.258   8.680  71.523  1.00  0.00    -0.209 C  
BRANCH   5   6
HETATM    6  C   UNL     1      -8.232   7.638  70.411  1.00  0.00    -0.122 C  
BRANCH   6   7
HETATM    7  C   UNL     1      -9.251   7.977  69.330  1.00  0.00    -0.152 C  
BRANCH   7   8
HETATM    8  C   UNL     1      -9.965   6.719  68.853  1.00  0.00    -0.159 C  
BRANCH   8   9
HETATM    9  C   UNL     1     -11.404   6.697  69.352  1.00  0.00    -0.331 C  
BRANCH   9  10
HETATM   10  C   UNL     1     -11.472   6.127  70.762  1.00  0.00    -0.321 C  
BRANCH  10  11
HETATM   11  C   UNL     1     -12.476   6.903  71.603  1.00  0.00    -0.418 C  
BRANCH  11  12
HETATM   12  C   UNL     1     -11.896   8.247  72.021  1.00  0.00    -0.408 C  
BRANCH  12  13
HETATM   13  C   UNL     1     -13.001   9.281  72.168  1.00  0.00    -0.503 C  
BRANCH  13  14
HETATM   14  C   UNL     1     -13.179  10.062  70.873  1.00  0.00    -0.336 C  
BRANCH  14  15
HETATM   15  C   UNL     1     -11.857  10.673  70.432  1.00  0.00    -0.441 C  
BRANCH  15  16
HETATM   16  C   UNL     1     -11.957  12.193  70.390  1.00  0.00    -0.360 C  
BRANCH  16  17
HETATM   17  C   UNL     1     -11.566  12.720  69.015  1.00  0.00    -0.366 C  
BRANCH  17  18
HETATM   18  C   UNL     1     -10.153  12.279  68.652  1.00  0.00    -0.153 C  
BRANCH  18  19
HETATM   19  C   UNL     1      -9.413  13.387  67.910  1.00  0.00    -0.216 C  
BRANCH  19  20
HETATM   20  C   UNL     1      -9.685  14.742  68.554  1.00  0.00    -0.218 C  
BRANCH  20  21
HETATM   21  C   UNL     1      -8.387  15.414  68.985  1.00  0.00    -0.223 C  
BRANCH  21  22
HETATM   22  C   UNL     1      -7.175  14.700  68.400  1.00  0.00    -0.117 C  
HETATM   23  O   UNL     1      -6.149  14.614  69.380  1.00  0.00    -0.099 OA 
HETATM   24  H   UNL     1      -5.393  14.169  69.016  1.00  0.00     0.000 HD 
ENDBRANCH  21  22
ENDBRANCH  20  21
ENDBRANCH  19  20
ENDBRANCH  18  19
ENDBRANCH  17  18
ENDBRANCH  16  17
ENDBRANCH  15  16
ENDBRANCH  14  15
ENDBRANCH  13  14
ENDBRANCH  12  13
ENDBRANCH  11  12
ENDBRANCH  10  11
ENDBRANCH   9  10
ENDBRANCH   8   9
ENDBRANCH   7   8
ENDBRANCH   6   7
ENDBRANCH   5   6
ENDBRANCH   4   5
ENDBRANCH   3   4
ENDBRANCH   2   3
TORSDOF 20
ENDMDL
MODEL      348
REMARK 921   NORMALIZED FREE ENERGY PREDICTED BY IDOCK:   -2.71 KCAL/MOL
REMARK 922        TOTAL FREE ENERGY PREDICTED BY IDOCK:   -8.74 KCAL/MOL
REMARK 923 INTER-LIGAND FREE ENERGY PREDICTED BY IDOCK:   -7.53 KCAL/MOL
REMARK 924 INTRA-LIGAND FREE ENERGY PREDICTED BY IDOCK:   -1.21 KCAL/MOL
REMARK 927      BINDING AFFINITY PREDICTED BY RF-SCORE:    0.00 PKD
ROOT
HETATM    1  C   UNL     1     -10.655  17.767  67.733  1.00  0.00    -0.392 C  
HETATM    2  C   UNL     1     -10.238  17.781  66.272  1.00  0.00    -0.364 C  
ENDROOT
BRANCH   2   3
HETATM    3  C   UNL     1     -10.447  16.414  65.628  1.00  0.00    -0.364 C  
BRANCH   3   4
HETATM    4  C   UNL     1     -10.968  15.401  66.643  1.00  0.00    -0.275 C  
BRANCH   4   5
HETATM    5  C   UNL     1     -11.758  14.296  65.947  1.00  0.00    -0.375 C  
BRANCH   5   6
HETATM    6  C   UNL     1     -12.076  13.163  66.917  1.00  0.00    -0.377 C  
BRANCH   6   7
HETATM    7  C   UNL     1     -11.756  13.575  68.349  1.00  0.00    -0.393 C  
BRANCH   7   8
HETATM    8  C   UNL     1     -11.148  12.409  69.119  1.00  0.00    -0.260 C  
BRANCH   8   9
HETATM    9  C   UNL     1     -12.003  12.063  70.330  1.00  0.00    -0.379 C  
BRANCH   9  10
HETATM   10  C   UNL     1     -11.943  10.569  70.618  1.00  0.00    -0.455 C  
BRANCH  10  11
HETATM   11  C   UNL     1     -13.220  10.105  71.304  1.00  0.00    -0.453 C  
BRANCH  11  12
HETATM   12  C   UNL     1     -12.928   8.946  72.246  1.00  0.00    -0.479 C  
BRANCH  12  13
HETATM   13  C   UNL     1     -12.879   7.635  71.477  1.00  0.00    -0.376 C  
BRANCH  13  14
HETATM   14  C   UNL     1     -12.188   6.556  72.301  1.00  0.00    -0.201 C  
BRANCH  14  15
HETATM   15  C   UNL     1     -10.875   7.076  72.867  1.00  0.00    -0.334 C  
BRANCH  15  16
HETATM   16  C   UNL     1      -9.966   5.918  73.258  1.00  0.00    -0.190 C  
BRANCH  16  17
HETATM   17  C   UNL     1     -10.255   4.692  72.400  1.00  0.00    -0.249 C  
BRANCH  17  18
HETATM   18  C   UNL     1      -9.506   4.774  71.076  1.00  0.00    -0.227 C  
BRANCH  18  19
HETATM   19  C   UNL     1     -10.475   4.980  69.916  1.00  0.00    -0.214 C  
BRANCH  19  20
HETATM   20  C   UNL     1      -9.782   5.678  68.751  1.00  0.00    -0.178 C  
BRANCH  20  21
HETATM   21  C   UNL     1     -10.792   6.110  67.694  1.00  0.00    -0.421 C  
BRANCH  21  22
HETATM   22  C   UNL     1     -10.279   7.300  66.894  1.00  0.00    -0.269 C  
HETATM   23  O   UNL     1      -9.205   6.890  66.057  1.00  0.00    -0.308 OA 
HETATM   24  H   UNL     1      -8.885   7.632  65.558  1.00  0.00     0.000 HD 
ENDBRANCH  21  22
ENDBRANCH  20  21
ENDBRANCH  19  20
ENDBRANCH  18  19
ENDBRANCH  17  18
ENDBRANCH  16  17
ENDBRANCH  15  16
ENDBRANCH  14  15
ENDBRANCH  13  14
ENDBRANCH  12  13
ENDBRANCH  11  12
ENDBRANCH  10  11
ENDBRANCH   9  10
ENDBRANCH   8   9
ENDBRANCH   7   8
ENDBRANCH   6   7
ENDBRANCH   5   6
ENDBRANCH   4   5
ENDBRANCH   3   4
ENDBRANCH   2   3
TORSDOF 20
ENDMDL
MODEL      349
REMARK 921   NORMALIZED FREE ENERGY PREDICTED BY IDOCK:   -2.70 KCAL/MOL
REMARK 922        TOTAL FREE ENERGY PREDICTED BY IDOCK:   -8.72 KCAL/MOL
REMARK 923 INTER-LIGAND FREE ENERGY PREDICTED BY IDOCK:   -6.53 KCAL/MOL
REMARK 924 INTRA-LIGAND FREE ENERGY PREDICTED BY IDOCK:   -2.19 KCAL/MOL
REMARK 927      BINDING AFFINITY PREDICTED BY RF-SCORE:    0.00 PKD
ROOT
HETATM    1  C   UNL     1      -8.049  20.147  66.425  1.00  0.00    -0.298 C  
HETATM    2  C   UNL     1      -8.769  18.812  66.349  1.00  0.00    -0.294 C  
ENDROOT
BRANCH   2   3
HETATM    3  C   UNL     1      -9.304  18.398  67.717  1.00  0.00    -0.283 C  
BRANCH   3   4
HETATM    4  C   UNL     1      -8.624  17.123  68.210  1.00  0.00    -0.241 C  
BRANCH   4   5
HETATM    5  C   UNL     1      -7.657  16.586  67.160  1.00  0.00    -0.214 C  
BRANCH   5   6
HETATM    6  C   UNL     1      -7.423  15.091  67.350  1.00  0.00    -0.234 C  
BRANCH   6   7
HETATM    7  C   UNL     1      -7.457  14.725  68.829  1.00  0.00    -0.133 C  
BRANCH   7   8
HETATM    8  C   UNL     1      -6.047  14.495  69.356  1.00  0.00    -0.106 C  
BRANCH   8   9
HETATM    9  C   UNL     1      -5.954  13.153  70.071  1.00  0.00    -0.135 C  
BRANCH   9  10
HETATM   10  C   UNL     1      -6.154  12.008  69.088  1.00  0.00    -0.080 C  
BRANCH  10  11
HETATM   11  C   UNL     1      -7.027  10.923  69.703  1.00  0.00    -0.128 C  
BRANCH  11  12
HETATM   12  C   UNL     1      -8.398  10.903  69.042  1.00  0.00    -0.118 C  
BRANCH  12  13
HETATM   13  C   UNL     1      -9.134   9.617  69.381  1.00  0.00    -0.194 C  
BRANCH  13  14
HETATM   14  C   UNL     1      -8.686   8.486  68.464  1.00  0.00    -0.139 C  
BRANCH  14  15
HETATM   15  C   UNL     1      -8.484   8.996  67.046  1.00  0.00    -0.120 C  
BRANCH  15  16
HETATM   16  C   UNL     1      -9.807   9.024  66.293  1.00  0.00    -0.361 C  
BRANCH  16  17
HETATM   17  C   UNL     1      -9.914  10.282  65.438  1.00  0.00    -0.371 C  
BRANCH  17  18
HETATM   18  C   UNL     1     -10.582  11.407  66.220  1.00  0.00    -0.312 C  
BRANCH  18  19
HETATM   19  C   UNL     1      -9.884  12.737  65.960  1.00  0.00    -0.258 C  
BRANCH  19  20
HETATM   20  C   UNL     1     -10.139  13.211  64.533  1.00  0.00    -0.244 C  
BRANCH  20  21
HETATM   21  C   UNL     1     -11.339  14.148  64.475  1.00  0.00    -0.355 C  
BRANCH  21  22
HETATM   22  C   UNL     1     -10.984  15.534  64.998  1.00  0.00    -0.440 C  
HETATM   23  O   UNL     1     -11.320  16.515  64.026  1.00  0.00    -1.475 OA 
HETATM   24  H   UNL     1     -11.098  17.380  64.352  1.00  0.00     0.000 HD 
ENDBRANCH  21  22
ENDBRANCH  20  21
ENDBRANCH  19  20
ENDBRANCH  18  19
ENDBRANCH  17  18
ENDBRANCH  16  17
ENDBRANCH  15  16
ENDBRANCH  14  15
ENDBRANCH  13  14
ENDBRANCH  12  13
ENDBRANCH  11  12
ENDBRANCH  10  11
ENDBRANCH   9  10
ENDBRANCH   8   9
ENDBRANCH   7   8
ENDBRANCH   6   7
ENDBRANCH   5   6
ENDBRANCH   4   5
ENDBRANCH   3   4
ENDBRANCH   2   3
TORSDOF 20
ENDMDL
MODEL      350
REMARK 921   NORMALIZED FREE ENERGY PREDICTED BY IDOCK:   -2.69 KCAL/MOL
REMARK 922        TOTAL FREE ENERGY PREDICTED BY IDOCK:   -8.71 KCAL/MOL
REMARK 923 INTER-LIGAND FREE ENERGY PREDICTED BY IDOCK:   -6.31 KCAL/MOL
REMARK 924 INTRA-LIGAND FREE ENERGY PREDICTED BY IDOCK:   -2.40 KCAL/MOL
REMARK 927      BINDING AFFINITY PREDICTED BY RF-SCORE:    0.00 PKD
ROOT
HETATM    1  C   UNL     1     -10.063  10.490  64.754  1.00  0.00    -0.406 C  
HETATM    2  C   UNL     1      -9.800   9.421  65.801  1.00  0.00    -0.345 C  
ENDROOT
BRANCH   2   3
HETATM    3  C   UNL     1      -8.906   9.953  66.917  1.00  0.00    -0.146 C  
BRANCH   3   4
HETATM    4  C   UNL     1      -8.395  11.354  66.592  1.00  0.00    -0.172 C  
BRANCH   4   5
HETATM    5  C   UNL     1      -7.953  12.075  67.862  1.00  0.00    -0.147 C  
BRANCH   5   6
HETATM    6  C   UNL     1      -8.510  13.494  67.902  1.00  0.00    -0.179 C  
BRANCH   6   7
HETATM    7  C   UNL     1      -9.590  13.678  66.843  1.00  0.00    -0.262 C  
BRANCH   7   8
HETATM    8  C   UNL     1     -10.443  14.901  67.153  1.00  0.00    -0.271 C  
BRANCH   8   9
HETATM    9  C   UNL     1     -10.327  15.277  68.624  1.00  0.00    -0.232 C  
BRANCH   9  10
HETATM   10  C   UNL     1     -11.697  15.267  69.288  1.00  0.00    -0.359 C  
BRANCH  10  11
HETATM   11  C   UNL     1     -12.281  13.861  69.288  1.00  0.00    -0.319 C  
BRANCH  11  12
HETATM   12  C   UNL     1     -12.211  13.255  70.682  1.00  0.00    -0.417 C  
BRANCH  12  13
HETATM   13  C   UNL     1     -12.325  11.740  70.610  1.00  0.00    -0.421 C  
BRANCH  13  14
HETATM   14  C   UNL     1     -11.450  11.190  69.492  1.00  0.00    -0.374 C  
BRANCH  14  15
HETATM   15  C   UNL     1     -10.418  10.221  70.049  1.00  0.00    -0.293 C  
BRANCH  15  16
HETATM   16  C   UNL     1     -10.859   8.781  69.824  1.00  0.00    -0.196 C  
BRANCH  16  17
HETATM   17  C   UNL     1     -11.498   8.210  71.084  1.00  0.00    -0.304 C  
BRANCH  17  18
HETATM   18  C   UNL     1     -11.774   6.720  70.920  1.00  0.00    -0.424 C  
BRANCH  18  19
HETATM   19  C   UNL     1     -11.607   5.988  72.247  1.00  0.00    -0.359 C  
BRANCH  19  20
HETATM   20  C   UNL     1     -10.132   5.733  72.541  1.00  0.00    -0.207 C  
BRANCH  20  21
HETATM   21  C   UNL     1      -9.563   4.674  71.605  1.00  0.00    -0.221 C  
BRANCH  21  22
HETATM   22  C   UNL     1      -9.488   3.315  72.288  1.00  0.00    -0.123 C  
HETATM   23  O   UNL     1      -9.586   2.282  71.316  1.00  0.00    -0.138 OA 
HETATM   24  H   UNL     1      -9.539   1.434  71.743  1.00  0.00     0.000 HD 
ENDBRANCH  21  22
ENDBRANCH  20  21
ENDBRANCH  19  20
ENDBRANCH  18  19
ENDBRANCH  17  18
ENDBRANCH  16  17
ENDBRANCH  15  16
ENDBRANCH  14  15
ENDBRANCH  13  14
ENDBRANCH  12  13
ENDBRANCH  11  12
ENDBRANCH  10  11
ENDBRANCH   9  10
ENDBRANCH   8   9
ENDBRANCH   7   8
ENDBRANCH   6   7
ENDBRANCH   5   6
ENDBRANCH   4   5
ENDBRANCH   3   4
ENDBRANCH   2   3
TORSDOF 20
ENDMDL
MODEL      351
REMARK 921   NORMALIZED FREE ENERGY PREDICTED BY IDOCK:   -2.68 KCAL/MOL
REMARK 922        TOTAL FREE ENERGY PREDICTED BY IDOCK:   -8.69 KCAL/MOL
REMARK 923 INTER-LIGAND FREE ENERGY PREDICTED BY IDOCK:   -6.29 KCAL/MOL
REMARK 924 INTRA-LIGAND FREE ENERGY PREDICTED BY IDOCK:   -2.40 KCAL/MOL
REMARK 927      BINDING AFFINITY PREDICTED BY RF-SCORE:    0.00 PKD
ROOT
HETATM    1  C   UNL     1     -11.133   6.316  68.755  1.00  0.00    -0.424 C  
HETATM    2  C   UNL     1     -10.605   6.649  70.140  1.00  0.00    -0.264 C  
ENDROOT
BRANCH   2   3
HETATM    3  C   UNL     1     -11.278   7.900  70.699  1.00  0.00    -0.269 C  
BRANCH   3   4
HETATM    4  C   UNL     1     -10.290   9.059  70.797  1.00  0.00    -0.305 C  
BRANCH   4   5
HETATM    5  C   UNL     1     -10.666  10.172  69.824  1.00  0.00    -0.317 C  
BRANCH   5   6
HETATM    6  C   UNL     1      -9.478  10.551  68.947  1.00  0.00    -0.199 C  
BRANCH   6   7
HETATM    7  C   UNL     1      -9.871  11.628  67.943  1.00  0.00    -0.189 C  
BRANCH   7   8
HETATM    8  C   UNL     1      -8.780  12.685  67.835  1.00  0.00    -0.181 C  
BRANCH   8   9
HETATM    9  C   UNL     1      -9.293  14.037  68.311  1.00  0.00    -0.208 C  
BRANCH   9  10
HETATM   10  C   UNL     1     -10.631  14.360  67.661  1.00  0.00    -0.260 C  
BRANCH  10  11
HETATM   11  C   UNL     1     -10.436  15.299  66.478  1.00  0.00    -0.299 C  
BRANCH  11  12
HETATM   12  C   UNL     1     -11.153  14.762  65.248  1.00  0.00    -0.374 C  
BRANCH  12  13
HETATM   13  C   UNL     1     -12.509  14.187  65.629  1.00  0.00    -0.490 C  
BRANCH  13  14
HETATM   14  C   UNL     1     -12.769  12.886  64.883  1.00  0.00    -0.474 C  
BRANCH  14  15
HETATM   15  C   UNL     1     -11.529  12.004  64.899  1.00  0.00    -0.352 C  
BRANCH  15  16
HETATM   16  C   UNL     1     -11.196  11.521  63.494  1.00  0.00    -0.412 C  
BRANCH  16  17
HETATM   17  C   UNL     1      -9.688  11.425  63.300  1.00  0.00    -0.413 C  
BRANCH  17  18
HETATM   18  C   UNL     1      -9.232   9.971  63.338  1.00  0.00    -0.317 C  
BRANCH  18  19
HETATM   19  C   UNL     1      -8.240   9.743  64.474  1.00  0.00    -0.156 C  
BRANCH  19  20
HETATM   20  C   UNL     1      -8.599   8.485  65.259  1.00  0.00    -0.192 C  
BRANCH  20  21
HETATM   21  C   UNL     1      -7.429   8.029  66.123  1.00  0.00    -0.075 C  
BRANCH  21  22
HETATM   22  C   UNL     1      -6.391   9.132  66.276  1.00  0.00    -0.065 C  
HETATM   23  O   UNL     1      -6.289   9.512  67.642  1.00  0.00    -0.057 OA 
HETATM   24  H   UNL     1      -5.642  10.201  67.737  1.00  0.00     0.000 HD 
ENDBRANCH  21  22
ENDBRANCH  20  21
ENDBRANCH  19  20
ENDBRANCH  18  19
ENDBRANCH  17  18
ENDBRANCH  16  17
ENDBRANCH  15  16
ENDBRANCH  14  15
ENDBRANCH  13  14
ENDBRANCH  12  13
ENDBRANCH  11  12
ENDBRANCH  10  11
ENDBRANCH   9  10
ENDBRANCH   8   9
ENDBRANCH   7   8
ENDBRANCH   6   7
ENDBRANCH   5   6
ENDBRANCH   4   5
ENDBRANCH   3   4
ENDBRANCH   2   3
TORSDOF 20
ENDMDL
MODEL      352
REMARK 921   NORMALIZED FREE ENERGY PREDICTED BY IDOCK:   -2.68 KCAL/MOL
REMARK 922        TOTAL FREE ENERGY PREDICTED BY IDOCK:   -8.69 KCAL/MOL
REMARK 923 INTER-LIGAND FREE ENERGY PREDICTED BY IDOCK:   -7.33 KCAL/MOL
REMARK 924 INTRA-LIGAND FREE ENERGY PREDICTED BY IDOCK:   -1.36 KCAL/MOL
REMARK 927      BINDING AFFINITY PREDICTED BY RF-SCORE:    0.00 PKD
ROOT
HETATM    1  C   UNL     1     -10.050   5.081  69.624  1.00  0.00    -0.321 C  
HETATM    2  C   UNL     1     -10.223   6.371  70.406  1.00  0.00    -0.233 C  
ENDROOT
BRANCH   2   3
HETATM    3  C   UNL     1     -10.569   6.088  71.865  1.00  0.00    -0.272 C  
BRANCH   3   4
HETATM    4  C   UNL     1     -12.074   6.170  72.100  1.00  0.00    -0.263 C  
BRANCH   4   5
HETATM    5  C   UNL     1     -12.713   7.186  71.157  1.00  0.00    -0.363 C  
BRANCH   5   6
HETATM    6  C   UNL     1     -13.691   8.084  71.909  1.00  0.00    -0.381 C  
BRANCH   6   7
HETATM    7  C   UNL     1     -13.085   9.463  72.140  1.00  0.00    -0.526 C  
BRANCH   7   8
HETATM    8  C   UNL     1     -11.994   9.748  71.116  1.00  0.00    -0.463 C  
BRANCH   8   9
HETATM    9  C   UNL     1     -12.074  11.191  70.635  1.00  0.00    -0.477 C  
BRANCH   9  10
HETATM   10  C   UNL     1     -12.860  12.041  71.624  1.00  0.00    -0.399 C  
BRANCH  10  11
HETATM   11  C   UNL     1     -12.733  13.518  71.276  1.00  0.00    -0.432 C  
BRANCH  11  12
HETATM   12  C   UNL     1     -12.123  13.690  69.893  1.00  0.00    -0.406 C  
BRANCH  12  13
HETATM   13  C   UNL     1     -12.050  15.163  69.522  1.00  0.00    -0.316 C  
BRANCH  13  14
HETATM   14  C   UNL     1     -10.794  15.800  70.102  1.00  0.00    -0.360 C  
BRANCH  14  15
HETATM   15  C   UNL     1     -10.187  16.782  69.112  1.00  0.00    -0.306 C  
BRANCH  15  16
HETATM   16  C   UNL     1      -8.989  16.161  68.407  1.00  0.00    -0.196 C  
BRANCH  16  17
HETATM   17  C   UNL     1      -7.707  16.431  69.185  1.00  0.00    -0.220 C  
BRANCH  17  18
HETATM   18  C   UNL     1      -6.640  17.026  68.274  1.00  0.00    -0.156 C  
BRANCH  18  19
HETATM   19  C   UNL     1      -7.201  18.196  67.474  1.00  0.00    -0.205 C  
BRANCH  19  20
HETATM   20  C   UNL     1      -6.282  19.409  67.573  1.00  0.00    -0.208 C  
BRANCH  20  21
HETATM   21  C   UNL     1      -6.901  20.622  66.891  1.00  0.00    -0.353 C  
BRANCH  21  22
HETATM   22  C   UNL     1      -6.282  20.862  65.520  1.00  0.00    -0.227 C  
HETATM   23  O   UNL     1      -6.996  20.127  64.534  1.00  0.00    -0.245 OA 
HETATM   24  H   UNL     1      -6.610  20.276  63.679  1.00  0.00     0.000 HD 
ENDBRANCH  21  22
ENDBRANCH  20  21
ENDBRANCH  19  20
ENDBRANCH  18  19
ENDBRANCH  17  18
ENDBRANCH  16  17
ENDBRANCH  15  16
ENDBRANCH  14  15
ENDBRANCH  13  14
ENDBRANCH  12  13
ENDBRANCH  11  12
ENDBRANCH  10  11
ENDBRANCH   9  10
ENDBRANCH   8   9
ENDBRANCH   7   8
ENDBRANCH   6   7
ENDBRANCH   5   6
ENDBRANCH   4   5
ENDBRANCH   3   4
ENDBRANCH   2   3
TORSDOF 20
ENDMDL
MODEL      353
REMARK 921   NORMALIZED FREE ENERGY PREDICTED BY IDOCK:   -2.68 KCAL/MOL
REMARK 922        TOTAL FREE ENERGY PREDICTED BY IDOCK:   -8.69 KCAL/MOL
REMARK 923 INTER-LIGAND FREE ENERGY PREDICTED BY IDOCK:   -6.84 KCAL/MOL
REMARK 924 INTRA-LIGAND FREE ENERGY PREDICTED BY IDOCK:   -1.85 KCAL/MOL
REMARK 927      BINDING AFFINITY PREDICTED BY RF-SCORE:    0.00 PKD
ROOT
HETATM    1  C   UNL     1     -13.032  10.262  70.962  1.00  0.00    -0.488 C  
HETATM    2  C   UNL     1     -11.928   9.388  71.532  1.00  0.00    -0.456 C  
ENDROOT
BRANCH   2   3
HETATM    3  C   UNL     1     -11.811   8.077  70.761  1.00  0.00    -0.171 C  
BRANCH   3   4
HETATM    4  C   UNL     1     -10.636   7.244  71.266  1.00  0.00    -0.236 C  
BRANCH   4   5
HETATM    5  C   UNL     1      -9.382   8.103  71.396  1.00  0.00    -0.200 C  
BRANCH   5   6
HETATM    6  C   UNL     1      -8.713   8.296  70.039  1.00  0.00    -0.133 C  
BRANCH   6   7
HETATM    7  C   UNL     1      -8.632   9.775  69.685  1.00  0.00    -0.201 C  
BRANCH   7   8
HETATM    8  C   UNL     1      -8.647   9.967  68.174  1.00  0.00    -0.118 C  
BRANCH   8   9
HETATM    9  C   UNL     1      -9.829   9.234  67.552  1.00  0.00    -0.224 C  
BRANCH   9  10
HETATM   10  C   UNL     1     -10.637  10.175  66.670  1.00  0.00    -0.214 C  
BRANCH  10  11
HETATM   11  C   UNL     1      -9.779  10.707  65.530  1.00  0.00    -0.291 C  
BRANCH  11  12
HETATM   12  C   UNL     1     -10.417  11.944  64.915  1.00  0.00    -0.331 C  
BRANCH  12  13
HETATM   13  C   UNL     1     -11.651  12.355  65.703  1.00  0.00    -0.441 C  
BRANCH  13  14
HETATM   14  C   UNL     1     -11.637  13.853  65.978  1.00  0.00    -0.359 C  
BRANCH  14  15
HETATM   15  C   UNL     1     -10.523  14.207  66.951  1.00  0.00    -0.272 C  
BRANCH  15  16
HETATM   16  C   UNL     1     -10.602  15.676  67.345  1.00  0.00    -0.301 C  
BRANCH  16  17
HETATM   17  C   UNL     1      -9.800  16.537  66.377  1.00  0.00    -0.311 C  
BRANCH  17  18
HETATM   18  C   UNL     1     -10.675  17.633  65.780  1.00  0.00    -0.110 C  
BRANCH  18  19
HETATM   19  C   UNL     1     -10.031  19.002  65.964  1.00  0.00    -0.334 C  
BRANCH  19  20
HETATM   20  C   UNL     1     -10.763  19.803  67.036  1.00  0.00    -0.542 C  
BRANCH  20  21
HETATM   21  C   UNL     1      -9.796  20.290  68.109  1.00  0.00    -0.403 C  
BRANCH  21  22
HETATM   22  C   UNL     1      -9.068  19.125  68.767  1.00  0.00    -0.353 C  
HETATM   23  O   UNL     1      -7.668  19.374  68.773  1.00  0.00    -0.347 OA 
HETATM   24  H   UNL     1      -7.214  18.648  69.183  1.00  0.00     0.000 HD 
ENDBRANCH  21  22
ENDBRANCH  20  21
ENDBRANCH  19  20
ENDBRANCH  18  19
ENDBRANCH  17  18
ENDBRANCH  16  17
ENDBRANCH  15  16
ENDBRANCH  14  15
ENDBRANCH  13  14
ENDBRANCH  12  13
ENDBRANCH  11  12
ENDBRANCH  10  11
ENDBRANCH   9  10
ENDBRANCH   8   9
ENDBRANCH   7   8
ENDBRANCH   6   7
ENDBRANCH   5   6
ENDBRANCH   4   5
ENDBRANCH   3   4
ENDBRANCH   2   3
TORSDOF 20
ENDMDL
MODEL      354
REMARK 921   NORMALIZED FREE ENERGY PREDICTED BY IDOCK:   -2.67 KCAL/MOL
REMARK 922        TOTAL FREE ENERGY PREDICTED BY IDOCK:   -8.66 KCAL/MOL
REMARK 923 INTER-LIGAND FREE ENERGY PREDICTED BY IDOCK:   -5.30 KCAL/MOL
REMARK 924 INTRA-LIGAND FREE ENERGY PREDICTED BY IDOCK:   -3.36 KCAL/MOL
REMARK 927      BINDING AFFINITY PREDICTED BY RF-SCORE:    0.00 PKD
ROOT
HETATM    1  C   UNL     1     -10.244   6.456  74.235  1.00  0.00    -0.362 C  
HETATM    2  C   UNL     1      -8.776   6.804  74.412  1.00  0.00    -0.195 C  
ENDROOT
BRANCH   2   3
HETATM    3  C   UNL     1      -8.107   7.066  73.065  1.00  0.00    -0.118 C  
BRANCH   3   4
HETATM    4  C   UNL     1      -8.705   8.293  72.383  1.00  0.00    -0.279 C  
BRANCH   4   5
HETATM    5  C   UNL     1      -8.614   8.166  70.866  1.00  0.00    -0.144 C  
BRANCH   5   6
HETATM    6  C   UNL     1      -8.872   6.728  70.425  1.00  0.00    -0.152 C  
BRANCH   6   7
HETATM    7  C   UNL     1     -10.203   6.621  69.691  1.00  0.00    -0.213 C  
BRANCH   7   8
HETATM    8  C   UNL     1     -11.319   6.246  70.658  1.00  0.00    -0.409 C  
BRANCH   8   9
HETATM    9  C   UNL     1     -12.430   7.288  70.624  1.00  0.00    -0.097 C  
BRANCH   9  10
HETATM   10  C   UNL     1     -12.619   7.912  72.000  1.00  0.00    -0.327 C  
BRANCH  10  11
HETATM   11  C   UNL     1     -12.760   9.424  71.885  1.00  0.00    -0.484 C  
BRANCH  11  12
HETATM   12  C   UNL     1     -11.544  10.021  71.192  1.00  0.00    -0.460 C  
BRANCH  12  13
HETATM   13  C   UNL     1     -11.938  11.255  70.395  1.00  0.00    -0.471 C  
BRANCH  13  14
HETATM   14  C   UNL     1     -12.278  10.878  68.959  1.00  0.00    -0.112 C  
BRANCH  14  15
HETATM   15  C   UNL     1     -11.046  10.984  68.073  1.00  0.00    -0.343 C  
BRANCH  15  16
HETATM   16  C   UNL     1     -10.638   9.610  67.556  1.00  0.00    -0.339 C  
BRANCH  16  17
HETATM   17  C   UNL     1      -9.120   9.487  67.494  1.00  0.00    -0.142 C  
BRANCH  17  18
HETATM   18  C   UNL     1      -8.458  10.793  67.917  1.00  0.00    -0.122 C  
BRANCH  18  19
HETATM   19  C   UNL     1      -7.141  10.524  68.636  1.00  0.00    -0.077 C  
BRANCH  19  20
HETATM   20  C   UNL     1      -6.626  11.792  69.311  1.00  0.00    -0.112 C  
BRANCH  20  21
HETATM   21  C   UNL     1      -5.864  12.666  68.322  1.00  0.00    -0.069 C  
BRANCH  21  22
HETATM   22  C   UNL     1      -6.500  14.045  68.200  1.00  0.00    -0.126 C  
HETATM   23  O   UNL     1      -6.970  14.472  69.471  1.00  0.00    -0.150 OA 
HETATM   24  H   UNL     1      -7.367  15.332  69.395  1.00  0.00     0.000 HD 
ENDBRANCH  21  22
ENDBRANCH  20  21
ENDBRANCH  19  20
ENDBRANCH  18  19
ENDBRANCH  17  18
ENDBRANCH  16  17
ENDBRANCH  15  16
ENDBRANCH  14  15
ENDBRANCH  13  14
ENDBRANCH  12  13
ENDBRANCH  11  12
ENDBRANCH  10  11
ENDBRANCH   9  10
ENDBRANCH   8   9
ENDBRANCH   7   8
ENDBRANCH   6   7
ENDBRANCH   5   6
ENDBRANCH   4   5
ENDBRANCH   3   4
ENDBRANCH   2   3
TORSDOF 20
ENDMDL
MODEL      355
REMARK 921   NORMALIZED FREE ENERGY PREDICTED BY IDOCK:   -2.66 KCAL/MOL
REMARK 922        TOTAL FREE ENERGY PREDICTED BY IDOCK:   -8.64 KCAL/MOL
REMARK 923 INTER-LIGAND FREE ENERGY PREDICTED BY IDOCK:   -6.12 KCAL/MOL
REMARK 924 INTRA-LIGAND FREE ENERGY PREDICTED BY IDOCK:   -2.52 KCAL/MOL
REMARK 927      BINDING AFFINITY PREDICTED BY RF-SCORE:    0.00 PKD
ROOT
HETATM    1  C   UNL     1     -12.122  12.728  69.615  1.00  0.00    -0.286 C  
HETATM    2  C   UNL     1     -11.839  12.722  68.123  1.00  0.00    -0.372 C  
ENDROOT
BRANCH   2   3
HETATM    3  C   UNL     1     -11.804  14.141  67.564  1.00  0.00    -0.437 C  
BRANCH   3   4
HETATM    4  C   UNL     1     -11.479  14.138  66.073  1.00  0.00    -0.343 C  
BRANCH   4   5
HETATM    5  C   UNL     1     -12.561  13.406  65.286  1.00  0.00    -0.518 C  
BRANCH   5   6
HETATM    6  C   UNL     1     -12.027  12.936  63.937  1.00  0.00    -0.550 C  
BRANCH   6   7
HETATM    7  C   UNL     1     -10.517  12.741  63.995  1.00  0.00    -0.433 C  
BRANCH   7   8
HETATM    8  C   UNL     1     -10.104  11.512  63.196  1.00  0.00    -0.395 C  
BRANCH   8   9
HETATM    9  C   UNL     1      -9.885  10.321  64.120  1.00  0.00    -0.319 C  
BRANCH   9  10
HETATM   10  C   UNL     1      -9.946  10.757  65.578  1.00  0.00    -0.321 C  
BRANCH  10  11
HETATM   11  C   UNL     1     -10.348   9.589  66.468  1.00  0.00    -0.263 C  
BRANCH  11  12
HETATM   12  C   UNL     1      -9.745   9.745  67.857  1.00  0.00    -0.168 C  
BRANCH  12  13
HETATM   13  C   UNL     1      -8.439  10.520  67.786  1.00  0.00    -0.114 C  
BRANCH  13  14
HETATM   14  C   UNL     1      -8.425  11.641  68.818  1.00  0.00    -0.027 C  
BRANCH  14  15
HETATM   15  C   UNL     1      -8.123  12.975  68.153  1.00  0.00    -0.155 C  
BRANCH  15  16
HETATM   16  C   UNL     1      -6.807  13.544  68.666  1.00  0.00    -0.098 C  
BRANCH  16  17
HETATM   17  C   UNL     1      -6.676  15.016  68.295  1.00  0.00    -0.116 C  
BRANCH  17  18
HETATM   18  C   UNL     1      -7.299  15.899  69.370  1.00  0.00    -0.217 C  
BRANCH  18  19
HETATM   19  C   UNL     1      -7.608  17.287  68.820  1.00  0.00    -0.256 C  
BRANCH  19  20
HETATM   20  C   UNL     1      -7.220  17.383  67.348  1.00  0.00    -0.188 C  
BRANCH  20  21
HETATM   21  C   UNL     1      -6.548  18.717  67.045  1.00  0.00    -0.201 C  
BRANCH  21  22
HETATM   22  C   UNL     1      -5.767  18.658  65.738  1.00  0.00    -0.181 C  
HETATM   23  O   UNL     1      -5.699  19.955  65.160  1.00  0.00    -0.167 OA 
HETATM   24  H   UNL     1      -5.213  19.919  64.345  1.00  0.00     0.000 HD 
ENDBRANCH  21  22
ENDBRANCH  20  21
ENDBRANCH  19  20
ENDBRANCH  18  19
ENDBRANCH  17  18
ENDBRANCH  16  17
ENDBRANCH  15  16
ENDBRANCH  14  15
ENDBRANCH  13  14
ENDBRANCH  12  13
ENDBRANCH  11  12
ENDBRANCH  10  11
ENDBRANCH   9  10
ENDBRANCH   8   9
ENDBRANCH   7   8
ENDBRANCH   6   7
ENDBRANCH   5   6
ENDBRANCH   4   5
ENDBRANCH   3   4
ENDBRANCH   2   3
TORSDOF 20
ENDMDL
MODEL      356
REMARK 921   NORMALIZED FREE ENERGY PREDICTED BY IDOCK:   -2.65 KCAL/MOL
REMARK 922        TOTAL FREE ENERGY PREDICTED BY IDOCK:   -8.62 KCAL/MOL
REMARK 923 INTER-LIGAND FREE ENERGY PREDICTED BY IDOCK:   -6.39 KCAL/MOL
REMARK 924 INTRA-LIGAND FREE ENERGY PREDICTED BY IDOCK:   -2.24 KCAL/MOL
REMARK 927      BINDING AFFINITY PREDICTED BY RF-SCORE:    0.00 PKD
ROOT
HETATM    1  C   UNL     1      -8.499   7.616  73.284  1.00  0.00    -0.208 C  
HETATM    2  C   UNL     1      -7.006   7.371  73.417  1.00  0.00    -0.075 C  
ENDROOT
BRANCH   2   3
HETATM    3  C   UNL     1      -6.448   6.690  72.170  1.00  0.00    -0.054 C  
BRANCH   3   4
HETATM    4  C   UNL     1      -6.887   7.419  70.903  1.00  0.00    -0.048 C  
BRANCH   4   5
HETATM    5  C   UNL     1      -6.914   6.464  69.713  1.00  0.00    -0.067 C  
BRANCH   5   6
HETATM    6  C   UNL     1      -6.595   5.039  70.154  1.00  0.00    -0.036 C  
BRANCH   6   7
HETATM    7  C   UNL     1      -7.691   4.079  69.705  1.00  0.00    -0.052 C  
BRANCH   7   8
HETATM    8  C   UNL     1      -8.871   4.127  70.667  1.00  0.00    -0.129 C  
BRANCH   8   9
HETATM    9  C   UNL     1     -10.142   4.536  69.935  1.00  0.00    -0.195 C  
BRANCH   9  10
HETATM   10  C   UNL     1     -10.724   5.805  70.543  1.00  0.00    -0.361 C  
BRANCH  10  11
HETATM   11  C   UNL     1     -11.407   6.645  69.473  1.00  0.00    -0.358 C  
BRANCH  11  12
HETATM   12  C   UNL     1     -10.518   7.811  69.063  1.00  0.00    -0.215 C  
BRANCH  12  13
HETATM   13  C   UNL     1     -10.071   7.656  67.618  1.00  0.00    -0.249 C  
BRANCH  13  14
HETATM   14  C   UNL     1      -8.808   8.467  67.358  1.00  0.00    -0.140 C  
BRANCH  14  15
HETATM   15  C   UNL     1      -9.155   9.923  67.084  1.00  0.00    -0.154 C  
BRANCH  15  16
HETATM   16  C   UNL     1     -10.228  10.024  66.008  1.00  0.00    -0.277 C  
BRANCH  16  17
HETATM   17  C   UNL     1     -10.043  11.291  65.182  1.00  0.00    -0.326 C  
BRANCH  17  18
HETATM   18  C   UNL     1     -11.156  12.290  65.472  1.00  0.00    -0.348 C  
BRANCH  18  19
HETATM   19  C   UNL     1     -11.728  12.857  64.177  1.00  0.00    -0.468 C  
BRANCH  19  20
HETATM   20  C   UNL     1     -12.120  14.320  64.356  1.00  0.00    -0.490 C  
BRANCH  20  21
HETATM   21  C   UNL     1     -11.377  14.946  65.529  1.00  0.00    -0.339 C  
BRANCH  21  22
HETATM   22  C   UNL     1     -10.865  16.338  65.180  1.00  0.00    -0.318 C  
HETATM   23  O   UNL     1     -11.533  16.820  64.022  1.00  0.00    -1.481 OA 
HETATM   24  H   UNL     1     -11.213  17.688  63.804  1.00  0.00     0.000 HD 
ENDBRANCH  21  22
ENDBRANCH  20  21
ENDBRANCH  19  20
ENDBRANCH  18  19
ENDBRANCH  17  18
ENDBRANCH  16  17
ENDBRANCH  15  16
ENDBRANCH  14  15
ENDBRANCH  13  14
ENDBRANCH  12  13
ENDBRANCH  11  12
ENDBRANCH  10  11
ENDBRANCH   9  10
ENDBRANCH   8   9
ENDBRANCH   7   8
ENDBRANCH   6   7
ENDBRANCH   5   6
ENDBRANCH   4   5
ENDBRANCH   3   4
ENDBRANCH   2   3
TORSDOF 20
ENDMDL
MODEL      357
REMARK 921   NORMALIZED FREE ENERGY PREDICTED BY IDOCK:   -2.65 KCAL/MOL
REMARK 922        TOTAL FREE ENERGY PREDICTED BY IDOCK:   -8.61 KCAL/MOL
REMARK 923 INTER-LIGAND FREE ENERGY PREDICTED BY IDOCK:   -6.38 KCAL/MOL
REMARK 924 INTRA-LIGAND FREE ENERGY PREDICTED BY IDOCK:   -2.23 KCAL/MOL
REMARK 927      BINDING AFFINITY PREDICTED BY RF-SCORE:    0.00 PKD
ROOT
HETATM    1  C   UNL     1      -6.102  14.492  70.320  1.00  0.00    -0.170 C  
HETATM    2  C   UNL     1      -5.611  14.425  68.884  1.00  0.00    -0.086 C  
ENDROOT
BRANCH   2   3
HETATM    3  C   UNL     1      -5.728  15.784  68.199  1.00  0.00    -0.129 C  
BRANCH   3   4
HETATM    4  C   UNL     1      -7.142  16.344  68.324  1.00  0.00    -0.143 C  
BRANCH   4   5
HETATM    5  C   UNL     1      -7.665  16.798  66.965  1.00  0.00    -0.230 C  
BRANCH   5   6
HETATM    6  C   UNL     1      -8.686  15.806  66.417  1.00  0.00    -0.372 C  
BRANCH   6   7
HETATM    7  C   UNL     1      -9.214  14.908  67.529  1.00  0.00    -0.194 C  
BRANCH   7   8
HETATM    8  C   UNL     1     -10.562  15.412  68.030  1.00  0.00    -0.263 C  
BRANCH   8   9
HETATM    9  C   UNL     1     -11.635  14.348  67.841  1.00  0.00    -0.374 C  
BRANCH   9  10
HETATM   10  C   UNL     1     -11.361  13.528  66.589  1.00  0.00    -0.344 C  
BRANCH  10  11
HETATM   11  C   UNL     1     -11.881  12.107  66.757  1.00  0.00    -0.304 C  
BRANCH  11  12
HETATM   12  C   UNL     1     -10.743  11.161  67.115  1.00  0.00    -0.305 C  
BRANCH  12  13
HETATM   13  C   UNL     1     -11.136  10.276  68.287  1.00  0.00    -0.311 C  
BRANCH  13  14
HETATM   14  C   UNL     1     -11.099  11.065  69.590  1.00  0.00    -0.320 C  
BRANCH  14  15
HETATM   15  C   UNL     1     -12.505  11.260  70.136  1.00  0.00    -0.297 C  
BRANCH  15  16
HETATM   16  C   UNL     1     -12.591  10.781  71.579  1.00  0.00    -0.500 C  
BRANCH  16  17
HETATM   17  C   UNL     1     -13.466   9.537  71.682  1.00  0.00    -0.463 C  
BRANCH  17  18
HETATM   18  C   UNL     1     -12.656   8.352  72.195  1.00  0.00    -0.412 C  
BRANCH  18  19
HETATM   19  C   UNL     1     -11.923   7.661  71.051  1.00  0.00    -0.296 C  
BRANCH  19  20
HETATM   20  C   UNL     1     -10.417   7.872  71.169  1.00  0.00    -0.230 C  
BRANCH  20  21
HETATM   21  C   UNL     1     -10.033   8.289  72.584  1.00  0.00    -0.357 C  
BRANCH  21  22
HETATM   22  C   UNL     1      -8.522   8.277  72.773  1.00  0.00    -0.183 C  
HETATM   23  O   UNL     1      -7.878   8.378  71.510  1.00  0.00    -0.099 OA 
HETATM   24  H   UNL     1      -6.935   8.370  71.627  1.00  0.00     0.000 HD 
ENDBRANCH  21  22
ENDBRANCH  20  21
ENDBRANCH  19  20
ENDBRANCH  18  19
ENDBRANCH  17  18
ENDBRANCH  16  17
ENDBRANCH  15  16
ENDBRANCH  14  15
ENDBRANCH  13  14
ENDBRANCH  12  13
ENDBRANCH  11  12
ENDBRANCH  10  11
ENDBRANCH   9  10
ENDBRANCH   8   9
ENDBRANCH   7   8
ENDBRANCH   6   7
ENDBRANCH   5   6
ENDBRANCH   4   5
ENDBRANCH   3   4
ENDBRANCH   2   3
TORSDOF 20
ENDMDL
MODEL      358
REMARK 921   NORMALIZED FREE ENERGY PREDICTED BY IDOCK:   -2.64 KCAL/MOL
REMARK 922        TOTAL FREE ENERGY PREDICTED BY IDOCK:   -8.60 KCAL/MOL
REMARK 923 INTER-LIGAND FREE ENERGY PREDICTED BY IDOCK:   -7.37 KCAL/MOL
REMARK 924 INTRA-LIGAND FREE ENERGY PREDICTED BY IDOCK:   -1.23 KCAL/MOL
REMARK 927      BINDING AFFINITY PREDICTED BY RF-SCORE:    0.00 PKD
ROOT
HETATM    1  C   UNL     1     -10.936   6.344  66.968  1.00  0.00    -0.463 C  
HETATM    2  C   UNL     1     -10.596   5.910  68.384  1.00  0.00    -0.314 C  
ENDROOT
BRANCH   2   3
HETATM    3  C   UNL     1      -9.606   4.748  68.380  1.00  0.00    -0.210 C  
BRANCH   3   4
HETATM    4  C   UNL     1      -8.956   4.574  69.750  1.00  0.00    -0.149 C  
BRANCH   4   5
HETATM    5  C   UNL     1     -10.004   4.644  70.857  1.00  0.00    -0.273 C  
BRANCH   5   6
HETATM    6  C   UNL     1      -9.460   5.389  72.072  1.00  0.00    -0.172 C  
BRANCH   6   7
HETATM    7  C   UNL     1     -10.535   6.281  72.680  1.00  0.00    -0.234 C  
BRANCH   7   8
HETATM    8  C   UNL     1     -10.868   7.435  71.743  1.00  0.00    -0.253 C  
BRANCH   8   9
HETATM    9  C   UNL     1     -11.853   8.393  72.401  1.00  0.00    -0.452 C  
BRANCH   9  10
HETATM   10  C   UNL     1     -12.766   9.020  71.357  1.00  0.00    -0.361 C  
BRANCH  10  11
HETATM   11  C   UNL     1     -12.995  10.494  71.665  1.00  0.00    -0.581 C  
BRANCH  11  12
HETATM   12  C   UNL     1     -12.784  11.338  70.417  1.00  0.00    -0.209 C  
BRANCH  12  13
HETATM   13  C   UNL     1     -11.398  11.096  69.839  1.00  0.00    -0.348 C  
BRANCH  13  14
HETATM   14  C   UNL     1     -10.953  12.286  68.998  1.00  0.00    -0.250 C  
BRANCH  14  15
HETATM   15  C   UNL     1     -11.856  13.484  69.249  1.00  0.00    -0.392 C  
BRANCH  15  16
HETATM   16  C   UNL     1     -11.122  14.548  70.055  1.00  0.00    -0.170 C  
BRANCH  16  17
HETATM   17  C   UNL     1     -11.400  15.937  69.492  1.00  0.00    -0.335 C  
BRANCH  17  18
HETATM   18  C   UNL     1     -10.096  16.676  69.217  1.00  0.00    -0.257 C  
BRANCH  18  19
HETATM   19  C   UNL     1     -10.363  18.009  68.527  1.00  0.00    -0.359 C  
BRANCH  19  20
HETATM   20  C   UNL     1      -9.054  18.722  68.203  1.00  0.00    -0.338 C  
BRANCH  20  21
HETATM   21  C   UNL     1      -9.243  19.726  67.072  1.00  0.00    -0.449 C  
BRANCH  21  22
HETATM   22  C   UNL     1      -7.944  19.951  66.310  1.00  0.00    -0.327 C  
HETATM   23  O   UNL     1      -7.652  18.813  65.509  1.00  0.00    -0.476 OA 
HETATM   24  H   UNL     1      -6.842  18.954  65.034  1.00  0.00     0.000 HD 
ENDBRANCH  21  22
ENDBRANCH  20  21
ENDBRANCH  19  20
ENDBRANCH  18  19
ENDBRANCH  17  18
ENDBRANCH  16  17
ENDBRANCH  15  16
ENDBRANCH  14  15
ENDBRANCH  13  14
ENDBRANCH  12  13
ENDBRANCH  11  12
ENDBRANCH  10  11
ENDBRANCH   9  10
ENDBRANCH   8   9
ENDBRANCH   7   8
ENDBRANCH   6   7
ENDBRANCH   5   6
ENDBRANCH   4   5
ENDBRANCH   3   4
ENDBRANCH   2   3
TORSDOF 20
ENDMDL
MODEL      359
REMARK 921   NORMALIZED FREE ENERGY PREDICTED BY IDOCK:   -2.64 KCAL/MOL
REMARK 922        TOTAL FREE ENERGY PREDICTED BY IDOCK:   -8.60 KCAL/MOL
REMARK 923 INTER-LIGAND FREE ENERGY PREDICTED BY IDOCK:   -6.30 KCAL/MOL
REMARK 924 INTRA-LIGAND FREE ENERGY PREDICTED BY IDOCK:   -2.29 KCAL/MOL
REMARK 927      BINDING AFFINITY PREDICTED BY RF-SCORE:    0.00 PKD
ROOT
HETATM    1  C   UNL     1      -6.432  20.648  65.058  1.00  0.00    -0.298 C  
HETATM    2  C   UNL     1      -5.904  19.453  65.833  1.00  0.00    -0.190 C  
ENDROOT
BRANCH   2   3
HETATM    3  C   UNL     1      -7.028  18.742  66.580  1.00  0.00    -0.224 C  
BRANCH   3   4
HETATM    4  C   UNL     1      -7.173  19.282  68.000  1.00  0.00    -0.292 C  
BRANCH   4   5
HETATM    5  C   UNL     1      -8.373  18.650  68.699  1.00  0.00    -0.344 C  
BRANCH   5   6
HETATM    6  C   UNL     1      -9.679  19.143  68.085  1.00  0.00    -0.429 C  
BRANCH   6   7
HETATM    7  C   UNL     1     -10.647  17.985  67.878  1.00  0.00    -0.387 C  
BRANCH   7   8
HETATM    8  C   UNL     1      -9.945  16.652  68.105  1.00  0.00    -0.259 C  
BRANCH   8   9
HETATM    9  C   UNL     1      -9.971  15.810  66.836  1.00  0.00    -0.247 C  
BRANCH   9  10
HETATM   10  C   UNL     1     -10.473  14.405  67.138  1.00  0.00    -0.263 C  
BRANCH  10  11
HETATM   11  C   UNL     1     -11.893  14.222  66.621  1.00  0.00    -0.442 C  
BRANCH  11  12
HETATM   12  C   UNL     1     -11.940  13.123  65.569  1.00  0.00    -0.457 C  
BRANCH  12  13
HETATM   13  C   UNL     1     -11.522  13.665  64.212  1.00  0.00    -0.393 C  
BRANCH  13  14
HETATM   14  C   UNL     1     -10.583  12.692  63.512  1.00  0.00    -0.301 C  
BRANCH  14  15
HETATM   15  C   UNL     1      -9.828  11.852  64.531  1.00  0.00    -0.203 C  
BRANCH  15  16
HETATM   16  C   UNL     1      -9.883  10.377  64.156  1.00  0.00    -0.379 C  
BRANCH  16  17
HETATM   17  C   UNL     1      -9.439   9.507  65.326  1.00  0.00    -0.326 C  
BRANCH  17  18
HETATM   18  C   UNL     1      -9.956  10.073  66.643  1.00  0.00    -0.274 C  
BRANCH  18  19
HETATM   19  C   UNL     1      -8.838  10.150  67.676  1.00  0.00    -0.125 C  
BRANCH  19  20
HETATM   20  C   UNL     1      -7.472  10.134  66.997  1.00  0.00    -0.092 C  
BRANCH  20  21
HETATM   21  C   UNL     1      -6.836  11.519  67.015  1.00  0.00    -0.147 C  
BRANCH  21  22
HETATM   22  C   UNL     1      -7.382  12.363  68.158  1.00  0.00    -0.111 C  
HETATM   23  O   UNL     1      -7.114  13.737  67.913  1.00  0.00    -0.121 OA 
HETATM   24  H   UNL     1      -7.455  14.264  68.626  1.00  0.00     0.000 HD 
ENDBRANCH  21  22
ENDBRANCH  20  21
ENDBRANCH  19  20
ENDBRANCH  18  19
ENDBRANCH  17  18
ENDBRANCH  16  17
ENDBRANCH  15  16
ENDBRANCH  14  15
ENDBRANCH  13  14
ENDBRANCH  12  13
ENDBRANCH  11  12
ENDBRANCH  10  11
ENDBRANCH   9  10
ENDBRANCH   8   9
ENDBRANCH   7   8
ENDBRANCH   6   7
ENDBRANCH   5   6
ENDBRANCH   4   5
ENDBRANCH   3   4
ENDBRANCH   2   3
TORSDOF 20
ENDMDL
MODEL      360
REMARK 921   NORMALIZED FREE ENERGY PREDICTED BY IDOCK:   -2.64 KCAL/MOL
REMARK 922        TOTAL FREE ENERGY PREDICTED BY IDOCK:   -8.59 KCAL/MOL
REMARK 923 INTER-LIGAND FREE ENERGY PREDICTED BY IDOCK:   -5.75 KCAL/MOL
REMARK 924 INTRA-LIGAND FREE ENERGY PREDICTED BY IDOCK:   -2.84 KCAL/MOL
REMARK 927      BINDING AFFINITY PREDICTED BY RF-SCORE:    0.00 PKD
ROOT
HETATM    1  C   UNL     1      -9.140  12.936  67.722  1.00  0.00    -0.197 C  
HETATM    2  C   UNL     1      -7.940  12.093  67.325  1.00  0.00    -0.176 C  
ENDROOT
BRANCH   2   3
HETATM    3  C   UNL     1      -8.285  10.607  67.330  1.00  0.00    -0.115 C  
BRANCH   3   4
HETATM    4  C   UNL     1      -7.040   9.752  67.117  1.00  0.00    -0.086 C  
BRANCH   4   5
HETATM    5  C   UNL     1      -7.322   8.292  67.459  1.00  0.00    -0.093 C  
BRANCH   5   6
HETATM    6  C   UNL     1      -7.069   7.393  66.254  1.00  0.00    -0.070 C  
BRANCH   6   7
HETATM    7  C   UNL     1      -8.367   7.115  65.507  1.00  0.00    -0.132 C  
BRANCH   7   8
HETATM    8  C   UNL     1      -9.516   6.910  66.487  1.00  0.00    -0.199 C  
BRANCH   8   9
HETATM    9  C   UNL     1      -9.832   5.428  66.641  1.00  0.00    -0.193 C  
BRANCH   9  10
HETATM   10  C   UNL     1      -9.969   5.060  68.111  1.00  0.00    -0.190 C  
BRANCH  10  11
HETATM   11  C   UNL     1     -10.062   6.315  68.969  1.00  0.00    -0.206 C  
BRANCH  11  12
HETATM   12  C   UNL     1     -11.378   6.340  69.734  1.00  0.00    -0.506 C  
BRANCH  12  13
HETATM   13  C   UNL     1     -11.156   5.950  71.187  1.00  0.00    -0.305 C  
BRANCH  13  14
HETATM   14  C   UNL     1     -12.291   6.469  72.061  1.00  0.00    -0.308 C  
BRANCH  14  15
HETATM   15  C   UNL     1     -13.339   7.173  71.212  1.00  0.00    -0.321 C  
BRANCH  15  16
HETATM   16  C   UNL     1     -14.220   8.063  72.078  1.00  0.00    -0.465 C  
BRANCH  16  17
HETATM   17  C   UNL     1     -13.612   9.454  72.215  1.00  0.00    -0.532 C  
BRANCH  17  18
HETATM   18  C   UNL     1     -12.818   9.819  70.966  1.00  0.00    -0.374 C  
BRANCH  18  19
HETATM   19  C   UNL     1     -11.341   9.999  71.295  1.00  0.00    -0.336 C  
BRANCH  19  20
HETATM   20  C   UNL     1     -10.495   9.946  70.028  1.00  0.00    -0.331 C  
BRANCH  20  21
HETATM   21  C   UNL     1      -9.069   9.506  70.339  1.00  0.00    -0.296 C  
BRANCH  21  22
HETATM   22  C   UNL     1      -9.007   8.717  71.641  1.00  0.00    -0.231 C  
HETATM   23  O   UNL     1      -8.013   7.706  71.543  1.00  0.00    -0.091 OA 
HETATM   24  H   UNL     1      -7.974   7.214  72.354  1.00  0.00     0.000 HD 
ENDBRANCH  21  22
ENDBRANCH  20  21
ENDBRANCH  19  20
ENDBRANCH  18  19
ENDBRANCH  17  18
ENDBRANCH  16  17
ENDBRANCH  15  16
ENDBRANCH  14  15
ENDBRANCH  13  14
ENDBRANCH  12  13
ENDBRANCH  11  12
ENDBRANCH  10  11
ENDBRANCH   9  10
ENDBRANCH   8   9
ENDBRANCH   7   8
ENDBRANCH   6   7
ENDBRANCH   5   6
ENDBRANCH   4   5
ENDBRANCH   3   4
ENDBRANCH   2   3
TORSDOF 20
ENDMDL
MODEL      361
REMARK 921   NORMALIZED FREE ENERGY PREDICTED BY IDOCK:   -2.64 KCAL/MOL
REMARK 922        TOTAL FREE ENERGY PREDICTED BY IDOCK:   -8.59 KCAL/MOL
REMARK 923 INTER-LIGAND FREE ENERGY PREDICTED BY IDOCK:   -6.17 KCAL/MOL
REMARK 924 INTRA-LIGAND FREE ENERGY PREDICTED BY IDOCK:   -2.42 KCAL/MOL
REMARK 927      BINDING AFFINITY PREDICTED BY RF-SCORE:    0.00 PKD
ROOT
HETATM    1  C   UNL     1      -5.451   9.112  72.495  1.00  0.00    -0.073 C  
HETATM    2  C   UNL     1      -6.855   8.533  72.511  1.00  0.00    -0.077 C  
ENDROOT
BRANCH   2   3
HETATM    3  C   UNL     1      -6.821   7.011  72.626  1.00  0.00    -0.068 C  
BRANCH   3   4
HETATM    4  C   UNL     1      -6.599   6.362  71.262  1.00  0.00    -0.051 C  
BRANCH   4   5
HETATM    5  C   UNL     1      -7.915   6.244  70.500  1.00  0.00    -0.112 C  
BRANCH   5   6
HETATM    6  C   UNL     1      -8.368   4.790  70.420  1.00  0.00    -0.090 C  
BRANCH   6   7
HETATM    7  C   UNL     1      -9.888   4.697  70.463  1.00  0.00    -0.301 C  
BRANCH   7   8
HETATM    8  C   UNL     1     -10.515   5.725  69.530  1.00  0.00    -0.364 C  
BRANCH   8   9
HETATM    9  C   UNL     1     -10.409   5.270  68.081  1.00  0.00    -0.181 C  
BRANCH   9  10
HETATM   10  C   UNL     1     -10.917   6.354  67.141  1.00  0.00    -0.476 C  
BRANCH  10  11
HETATM   11  C   UNL     1      -9.912   7.494  67.047  1.00  0.00    -0.304 C  
BRANCH  11  12
HETATM   12  C   UNL     1     -10.593   8.828  67.316  1.00  0.00    -0.303 C  
BRANCH  12  13
HETATM   13  C   UNL     1     -10.214   9.352  68.692  1.00  0.00    -0.222 C  
BRANCH  13  14
HETATM   14  C   UNL     1      -8.722   9.173  68.940  1.00  0.00    -0.132 C  
BRANCH  14  15
HETATM   15  C   UNL     1      -8.083  10.498  69.331  1.00  0.00    -0.136 C  
BRANCH  15  16
HETATM   16  C   UNL     1      -7.795  11.339  68.095  1.00  0.00    -0.127 C  
BRANCH  16  17
HETATM   17  C   UNL     1      -8.713  12.555  68.045  1.00  0.00    -0.186 C  
BRANCH  17  18
HETATM   18  C   UNL     1      -9.325  12.710  66.658  1.00  0.00    -0.236 C  
BRANCH  18  19
HETATM   19  C   UNL     1     -10.847  12.652  66.727  1.00  0.00    -0.279 C  
BRANCH  19  20
HETATM   20  C   UNL     1     -11.406  11.791  65.599  1.00  0.00    -0.293 C  
BRANCH  20  21
HETATM   21  C   UNL     1     -12.527  12.514  64.864  1.00  0.00    -0.524 C  
BRANCH  21  22
HETATM   22  C   UNL     1     -12.056  13.036  63.512  1.00  0.00    -0.542 C  
HETATM   23  O   UNL     1     -12.368  14.418  63.394  1.00  0.00    -1.094 OA 
HETATM   24  H   UNL     1     -12.074  14.743  62.551  1.00  0.00     0.000 HD 
ENDBRANCH  21  22
ENDBRANCH  20  21
ENDBRANCH  19  20
ENDBRANCH  18  19
ENDBRANCH  17  18
ENDBRANCH  16  17
ENDBRANCH  15  16
ENDBRANCH  14  15
ENDBRANCH  13  14
ENDBRANCH  12  13
ENDBRANCH  11  12
ENDBRANCH  10  11
ENDBRANCH   9  10
ENDBRANCH   8   9
ENDBRANCH   7   8
ENDBRANCH   6   7
ENDBRANCH   5   6
ENDBRANCH   4   5
ENDBRANCH   3   4
ENDBRANCH   2   3
TORSDOF 20
ENDMDL
MODEL      362
REMARK 921   NORMALIZED FREE ENERGY PREDICTED BY IDOCK:   -2.63 KCAL/MOL
REMARK 922        TOTAL FREE ENERGY PREDICTED BY IDOCK:   -8.58 KCAL/MOL
REMARK 923 INTER-LIGAND FREE ENERGY PREDICTED BY IDOCK:   -4.71 KCAL/MOL
REMARK 924 INTRA-LIGAND FREE ENERGY PREDICTED BY IDOCK:   -3.87 KCAL/MOL
REMARK 927      BINDING AFFINITY PREDICTED BY RF-SCORE:    0.00 PKD
ROOT
HETATM    1  C   UNL     1     -11.542   7.213  70.695  1.00  0.00    -0.354 C  
HETATM    2  C   UNL     1     -10.671   5.974  70.807  1.00  0.00    -0.340 C  
ENDROOT
BRANCH   2   3
HETATM    3  C   UNL     1      -9.196   6.319  70.624  1.00  0.00    -0.164 C  
BRANCH   3   4
HETATM    4  C   UNL     1      -8.999   7.825  70.471  1.00  0.00    -0.150 C  
BRANCH   4   5
HETATM    5  C   UNL     1      -7.623   8.132  69.888  1.00  0.00    -0.089 C  
BRANCH   5   6
HETATM    6  C   UNL     1      -6.864   6.846  69.580  1.00  0.00    -0.051 C  
BRANCH   6   7
HETATM    7  C   UNL     1      -6.108   6.970  68.262  1.00  0.00    -0.034 C  
BRANCH   7   8
HETATM    8  C   UNL     1      -6.168   8.400  67.742  1.00  0.00    -0.052 C  
BRANCH   8   9
HETATM    9  C   UNL     1      -6.197   8.416  66.220  1.00  0.00    -0.049 C  
BRANCH   9  10
HETATM   10  C   UNL     1      -6.118   7.000  65.668  1.00  0.00    -0.036 C  
BRANCH  10  11
HETATM   11  C   UNL     1      -6.648   6.952  64.242  1.00  0.00    -0.045 C  
BRANCH  11  12
HETATM   12  C   UNL     1      -7.992   6.241  64.195  1.00  0.00    -0.103 C  
BRANCH  12  13
HETATM   13  C   UNL     1      -7.896   4.877  64.860  1.00  0.00    -0.089 C  
BRANCH  13  14
HETATM   14  C   UNL     1      -9.151   4.588  65.673  1.00  0.00    -0.140 C  
BRANCH  14  15
HETATM   15  C   UNL     1      -9.296   5.592  66.807  1.00  0.00    -0.139 C  
BRANCH  15  16
HETATM   16  C   UNL     1     -10.733   6.085  66.905  1.00  0.00    -0.407 C  
BRANCH  16  17
HETATM   17  C   UNL     1     -10.771   7.588  67.160  1.00  0.00    -0.379 C  
BRANCH  17  18
HETATM   18  C   UNL     1      -9.478   8.244  66.690  1.00  0.00    -0.271 C  
BRANCH  18  19
HETATM   19  C   UNL     1      -9.602   9.764  66.712  1.00  0.00    -0.228 C  
BRANCH  19  20
HETATM   20  C   UNL     1      -9.786  10.311  65.301  1.00  0.00    -0.372 C  
BRANCH  20  21
HETATM   21  C   UNL     1     -10.775  11.471  65.289  1.00  0.00    -0.337 C  
BRANCH  21  22
HETATM   22  C   UNL     1     -10.484  12.433  64.144  1.00  0.00    -0.389 C  
HETATM   23  O   UNL     1      -9.558  11.841  63.242  1.00  0.00    -0.496 OA 
HETATM   24  H   UNL     1      -9.377  12.441  62.528  1.00  0.00     0.000 HD 
ENDBRANCH  21  22
ENDBRANCH  20  21
ENDBRANCH  19  20
ENDBRANCH  18  19
ENDBRANCH  17  18
ENDBRANCH  16  17
ENDBRANCH  15  16
ENDBRANCH  14  15
ENDBRANCH  13  14
ENDBRANCH  12  13
ENDBRANCH  11  12
ENDBRANCH  10  11
ENDBRANCH   9  10
ENDBRANCH   8   9
ENDBRANCH   7   8
ENDBRANCH   6   7
ENDBRANCH   5   6
ENDBRANCH   4   5
ENDBRANCH   3   4
ENDBRANCH   2   3
TORSDOF 20
ENDMDL
MODEL      363
REMARK 921   NORMALIZED FREE ENERGY PREDICTED BY IDOCK:   -2.63 KCAL/MOL
REMARK 922        TOTAL FREE ENERGY PREDICTED BY IDOCK:   -8.58 KCAL/MOL
REMARK 923 INTER-LIGAND FREE ENERGY PREDICTED BY IDOCK:   -7.48 KCAL/MOL
REMARK 924 INTRA-LIGAND FREE ENERGY PREDICTED BY IDOCK:   -1.10 KCAL/MOL
REMARK 927      BINDING AFFINITY PREDICTED BY RF-SCORE:    0.00 PKD
ROOT
HETATM    1  C   UNL     1      -6.053  20.788  64.322  1.00  0.00    -0.356 C  
HETATM    2  C   UNL     1      -5.825  19.661  65.314  1.00  0.00    -0.226 C  
ENDROOT
BRANCH   2   3
HETATM    3  C   UNL     1      -7.146  19.164  65.894  1.00  0.00    -0.301 C  
BRANCH   3   4
HETATM    4  C   UNL     1      -7.402  19.766  67.273  1.00  0.00    -0.282 C  
BRANCH   4   5
HETATM    5  C   UNL     1      -8.761  19.326  67.810  1.00  0.00    -0.345 C  
BRANCH   5   6
HETATM    6  C   UNL     1      -9.884  20.148  67.187  1.00  0.00    -0.586 C  
BRANCH   6   7
HETATM    7  C   UNL     1     -10.929  19.238  66.554  1.00  0.00    -0.252 C  
BRANCH   7   8
HETATM    8  C   UNL     1     -10.688  17.787  66.950  1.00  0.00    -0.165 C  
BRANCH   8   9
HETATM    9  C   UNL     1      -9.893  17.062  65.872  1.00  0.00    -0.202 C  
BRANCH   9  10
HETATM   10  C   UNL     1      -9.981  15.555  66.065  1.00  0.00    -0.356 C  
BRANCH  10  11
HETATM   11  C   UNL     1     -10.650  14.901  64.863  1.00  0.00    -0.417 C  
BRANCH  11  12
HETATM   12  C   UNL     1     -10.725  13.393  65.050  1.00  0.00    -0.354 C  
BRANCH  12  13
HETATM   13  C   UNL     1      -9.498  12.886  65.792  1.00  0.00    -0.002 C  
BRANCH  13  14
HETATM   14  C   UNL     1      -9.638  11.403  66.110  1.00  0.00    -0.242 C  
BRANCH  14  15
HETATM   15  C   UNL     1     -11.101  11.036  66.309  1.00  0.00    -0.106 C  
BRANCH  15  16
HETATM   16  C   UNL     1     -11.580  11.471  67.688  1.00  0.00    -0.320 C  
BRANCH  16  17
HETATM   17  C   UNL     1     -11.496  10.314  68.676  1.00  0.00    -0.178 C  
BRANCH  17  18
HETATM   18  C   UNL     1     -11.263  10.831  70.091  1.00  0.00    -0.345 C  
BRANCH  18  19
HETATM   19  C   UNL     1     -12.106  12.072  70.360  1.00  0.00    -0.407 C  
BRANCH  19  20
HETATM   20  C   UNL     1     -13.125  11.804  71.463  1.00  0.00    -0.389 C  
BRANCH  20  21
HETATM   21  C   UNL     1     -13.505  13.093  72.181  1.00  0.00    -0.653 C  
BRANCH  21  22
HETATM   22  C   UNL     1     -12.811  14.298  71.559  1.00  0.00    -0.346 C  
HETATM   23  O   UNL     1     -13.769  15.117  70.900  1.00  0.00    -0.652 OA 
HETATM   24  H   UNL     1     -13.336  15.869  70.512  1.00  0.00     0.000 HD 
ENDBRANCH  21  22
ENDBRANCH  20  21
ENDBRANCH  19  20
ENDBRANCH  18  19
ENDBRANCH  17  18
ENDBRANCH  16  17
ENDBRANCH  15  16
ENDBRANCH  14  15
ENDBRANCH  13  14
ENDBRANCH  12  13
ENDBRANCH  11  12
ENDBRANCH  10  11
ENDBRANCH   9  10
ENDBRANCH   8   9
ENDBRANCH   7   8
ENDBRANCH   6   7
ENDBRANCH   5   6
ENDBRANCH   4   5
ENDBRANCH   3   4
ENDBRANCH   2   3
TORSDOF 20
ENDMDL
MODEL      364
REMARK 921   NORMALIZED FREE ENERGY PREDICTED BY IDOCK:   -2.63 KCAL/MOL
REMARK 922        TOTAL FREE ENERGY PREDICTED BY IDOCK:   -8.57 KCAL/MOL
REMARK 923 INTER-LIGAND FREE ENERGY PREDICTED BY IDOCK:   -6.42 KCAL/MOL
REMARK 924 INTRA-LIGAND FREE ENERGY PREDICTED BY IDOCK:   -2.15 KCAL/MOL
REMARK 927      BINDING AFFINITY PREDICTED BY RF-SCORE:    0.00 PKD
ROOT
HETATM    1  C   UNL     1      -8.880  19.015  66.900  1.00  0.00    -0.314 C  
HETATM    2  C   UNL     1     -10.154  18.221  66.667  1.00  0.00    -0.386 C  
ENDROOT
BRANCH   2   3
HETATM    3  C   UNL     1     -10.332  17.142  67.732  1.00  0.00    -0.347 C  
BRANCH   3   4
HETATM    4  C   UNL     1     -10.853  15.845  67.119  1.00  0.00    -0.267 C  
BRANCH   4   5
HETATM    5  C   UNL     1     -11.389  14.914  68.203  1.00  0.00    -0.326 C  
BRANCH   5   6
HETATM    6  C   UNL     1     -10.263  14.083  68.809  1.00  0.00    -0.200 C  
BRANCH   6   7
HETATM    7  C   UNL     1     -10.195  12.709  68.155  1.00  0.00    -0.240 C  
BRANCH   7   8
HETATM    8  C   UNL     1     -11.580  12.078  68.087  1.00  0.00    -0.403 C  
BRANCH   8   9
HETATM    9  C   UNL     1     -11.592  10.733  68.801  1.00  0.00    -0.350 C  
BRANCH   9  10
HETATM   10  C   UNL     1     -12.199  10.870  70.190  1.00  0.00    -0.423 C  
BRANCH  10  11
HETATM   11  C   UNL     1     -11.596   9.845  71.140  1.00  0.00    -0.468 C  
BRANCH  11  12
HETATM   12  C   UNL     1     -10.916   8.730  70.359  1.00  0.00    -0.262 C  
BRANCH  12  13
HETATM   13  C   UNL     1     -11.232   7.377  70.978  1.00  0.00    -0.285 C  
BRANCH  13  14
HETATM   14  C   UNL     1     -11.507   6.343  69.894  1.00  0.00    -0.483 C  
BRANCH  14  15
HETATM   15  C   UNL     1     -10.430   5.269  69.895  1.00  0.00    -0.351 C  
BRANCH  15  16
HETATM   16  C   UNL     1      -9.496   5.448  71.084  1.00  0.00    -0.200 C  
BRANCH  16  17
HETATM   17  C   UNL     1      -8.040   5.437  70.632  1.00  0.00    -0.110 C  
BRANCH  17  18
HETATM   18  C   UNL     1      -7.622   6.816  70.135  1.00  0.00    -0.099 C  
BRANCH  18  19
HETATM   19  C   UNL     1      -6.964   6.721  68.763  1.00  0.00    -0.079 C  
BRANCH  19  20
HETATM   20  C   UNL     1      -7.961   7.061  67.661  1.00  0.00    -0.114 C  
BRANCH  20  21
HETATM   21  C   UNL     1      -8.334   8.539  67.699  1.00  0.00    -0.129 C  
BRANCH  21  22
HETATM   22  C   UNL     1      -8.533   9.094  66.295  1.00  0.00    -0.124 C  
HETATM   23  O   UNL     1      -9.833   8.761  65.825  1.00  0.00    -0.462 OA 
HETATM   24  H   UNL     1      -9.958   9.108  64.950  1.00  0.00     0.000 HD 
ENDBRANCH  21  22
ENDBRANCH  20  21
ENDBRANCH  19  20
ENDBRANCH  18  19
ENDBRANCH  17  18
ENDBRANCH  16  17
ENDBRANCH  15  16
ENDBRANCH  14  15
ENDBRANCH  13  14
ENDBRANCH  12  13
ENDBRANCH  11  12
ENDBRANCH  10  11
ENDBRANCH   9  10
ENDBRANCH   8   9
ENDBRANCH   7   8
ENDBRANCH   6   7
ENDBRANCH   5   6
ENDBRANCH   4   5
ENDBRANCH   3   4
ENDBRANCH   2   3
TORSDOF 20
ENDMDL
MODEL      365
REMARK 921   NORMALIZED FREE ENERGY PREDICTED BY IDOCK:   -2.62 KCAL/MOL
REMARK 922        TOTAL FREE ENERGY PREDICTED BY IDOCK:   -8.55 KCAL/MOL
REMARK 923 INTER-LIGAND FREE ENERGY PREDICTED BY IDOCK:   -6.49 KCAL/MOL
REMARK 924 INTRA-LIGAND FREE ENERGY PREDICTED BY IDOCK:   -2.06 KCAL/MOL
REMARK 927      BINDING AFFINITY PREDICTED BY RF-SCORE:    0.00 PKD
ROOT
HETATM    1  C   UNL     1     -10.668  18.495  67.310  1.00  0.00    -0.417 C  
HETATM    2  C   UNL     1     -10.378  17.043  67.652  1.00  0.00    -0.332 C  
ENDROOT
BRANCH   2   3
HETATM    3  C   UNL     1     -11.337  16.529  68.721  1.00  0.00    -0.221 C  
BRANCH   3   4
HETATM    4  C   UNL     1     -11.353  15.003  68.759  1.00  0.00    -0.306 C  
BRANCH   4   5
HETATM    5  C   UNL     1     -11.441  14.429  67.348  1.00  0.00    -0.377 C  
BRANCH   5   6
HETATM    6  C   UNL     1     -11.626  12.916  67.388  1.00  0.00    -0.414 C  
BRANCH   6   7
HETATM    7  C   UNL     1     -11.551  12.327  65.985  1.00  0.00    -0.451 C  
BRANCH   7   8
HETATM    8  C   UNL     1     -10.122  11.922  65.649  1.00  0.00    -0.274 C  
BRANCH   8   9
HETATM    9  C   UNL     1     -10.067  10.466  65.208  1.00  0.00    -0.370 C  
BRANCH   9  10
HETATM   10  C   UNL     1      -9.997   9.544  66.417  1.00  0.00    -0.339 C  
BRANCH  10  11
HETATM   11  C   UNL     1      -8.657   9.690  67.124  1.00  0.00    -0.133 C  
BRANCH  11  12
HETATM   12  C   UNL     1      -8.745   9.162  68.549  1.00  0.00    -0.129 C  
BRANCH  12  13
HETATM   13  C   UNL     1      -9.883   8.162  68.677  1.00  0.00    -0.191 C  
BRANCH  13  14
HETATM   14  C   UNL     1      -9.353   6.796  69.094  1.00  0.00    -0.135 C  
BRANCH  14  15
HETATM   15  C   UNL     1     -10.414   6.023  69.862  1.00  0.00    -0.313 C  
BRANCH  15  16
HETATM   16  C   UNL     1     -11.733   6.786  69.869  1.00  0.00    -0.279 C  
BRANCH  16  17
HETATM   17  C   UNL     1     -12.382   6.725  71.247  1.00  0.00    -0.395 C  
BRANCH  17  18
HETATM   18  C   UNL     1     -11.347   6.393  72.314  1.00  0.00    -0.330 C  
BRANCH  18  19
HETATM   19  C   UNL     1     -11.104   7.590  73.227  1.00  0.00    -0.294 C  
BRANCH  19  20
HETATM   20  C   UNL     1     -10.112   8.560  72.592  1.00  0.00    -0.253 C  
BRANCH  20  21
HETATM   21  C   UNL     1      -8.701   7.986  72.607  1.00  0.00    -0.250 C  
BRANCH  21  22
HETATM   22  C   UNL     1      -8.011   8.250  73.939  1.00  0.00    -0.195 C  
HETATM   23  O   UNL     1      -6.690   7.725  73.909  1.00  0.00    -0.085 OA 
HETATM   24  H   UNL     1      -6.259   7.890  74.739  1.00  0.00     0.000 HD 
ENDBRANCH  21  22
ENDBRANCH  20  21
ENDBRANCH  19  20
ENDBRANCH  18  19
ENDBRANCH  17  18
ENDBRANCH  16  17
ENDBRANCH  15  16
ENDBRANCH  14  15
ENDBRANCH  13  14
ENDBRANCH  12  13
ENDBRANCH  11  12
ENDBRANCH  10  11
ENDBRANCH   9  10
ENDBRANCH   8   9
ENDBRANCH   7   8
ENDBRANCH   6   7
ENDBRANCH   5   6
ENDBRANCH   4   5
ENDBRANCH   3   4
ENDBRANCH   2   3
TORSDOF 20
ENDMDL
MODEL      366
REMARK 921   NORMALIZED FREE ENERGY PREDICTED BY IDOCK:   -2.62 KCAL/MOL
REMARK 922        TOTAL FREE ENERGY PREDICTED BY IDOCK:   -8.55 KCAL/MOL
REMARK 923 INTER-LIGAND FREE ENERGY PREDICTED BY IDOCK:   -5.52 KCAL/MOL
REMARK 924 INTRA-LIGAND FREE ENERGY PREDICTED BY IDOCK:   -3.03 KCAL/MOL
REMARK 927      BINDING AFFINITY PREDICTED BY RF-SCORE:    0.00 PKD
ROOT
HETATM    1  C   UNL     1      -9.078  10.604  66.209  1.00  0.00    -0.186 C  
HETATM    2  C   UNL     1      -9.975   9.392  66.026  1.00  0.00    -0.352 C  
ENDROOT
BRANCH   2   3
HETATM    3  C   UNL     1     -10.192   8.664  67.349  1.00  0.00    -0.329 C  
BRANCH   3   4
HETATM    4  C   UNL     1     -10.120   7.151  67.162  1.00  0.00    -0.293 C  
BRANCH   4   5
HETATM    5  C   UNL     1     -11.044   6.440  68.147  1.00  0.00    -0.358 C  
BRANCH   5   6
HETATM    6  C   UNL     1     -10.392   5.170  68.682  1.00  0.00    -0.148 C  
BRANCH   6   7
HETATM    7  C   UNL     1      -9.685   4.415  67.564  1.00  0.00    -0.211 C  
BRANCH   7   8
HETATM    8  C   UNL     1      -8.319   3.925  68.028  1.00  0.00    -0.100 C  
BRANCH   8   9
HETATM    9  C   UNL     1      -7.225   4.887  67.583  1.00  0.00    -0.070 C  
BRANCH   9  10
HETATM   10  C   UNL     1      -6.328   5.256  68.757  1.00  0.00    -0.035 C  
BRANCH  10  11
HETATM   11  C   UNL     1      -7.165   5.576  69.988  1.00  0.00    -0.068 C  
BRANCH  11  12
HETATM   12  C   UNL     1      -7.274   7.082  70.183  1.00  0.00    -0.075 C  
BRANCH  12  13
HETATM   13  C   UNL     1      -6.222   7.568  71.168  1.00  0.00    -0.035 C  
BRANCH  13  14
HETATM   14  C   UNL     1      -6.870   8.371  72.289  1.00  0.00    -0.100 C  
BRANCH  14  15
HETATM   15  C   UNL     1      -7.693   7.461  73.189  1.00  0.00    -0.110 C  
BRANCH  15  16
HETATM   16  C   UNL     1      -8.994   8.143  73.593  1.00  0.00    -0.275 C  
BRANCH  16  17
HETATM   17  C   UNL     1     -10.186   7.236  73.312  1.00  0.00    -0.365 C  
BRANCH  17  18
HETATM   18  C   UNL     1     -10.520   7.234  71.825  1.00  0.00    -0.218 C  
BRANCH  18  19
HETATM   19  C   UNL     1     -10.439   8.643  71.248  1.00  0.00    -0.311 C  
BRANCH  19  20
HETATM   20  C   UNL     1     -11.804   9.101  70.746  1.00  0.00    -0.280 C  
BRANCH  20  21
HETATM   21  C   UNL     1     -12.080  10.544  71.150  1.00  0.00    -0.473 C  
BRANCH  21  22
HETATM   22  C   UNL     1     -12.114  11.461  69.935  1.00  0.00    -0.330 C  
HETATM   23  O   UNL     1     -12.432  10.708  68.772  1.00  0.00    -0.795 OA 
HETATM   24  H   UNL     1     -12.454  11.280  68.014  1.00  0.00     0.000 HD 
ENDBRANCH  21  22
ENDBRANCH  20  21
ENDBRANCH  19  20
ENDBRANCH  18  19
ENDBRANCH  17  18
ENDBRANCH  16  17
ENDBRANCH  15  16
ENDBRANCH  14  15
ENDBRANCH  13  14
ENDBRANCH  12  13
ENDBRANCH  11  12
ENDBRANCH  10  11
ENDBRANCH   9  10
ENDBRANCH   8   9
ENDBRANCH   7   8
ENDBRANCH   6   7
ENDBRANCH   5   6
ENDBRANCH   4   5
ENDBRANCH   3   4
ENDBRANCH   2   3
TORSDOF 20
ENDMDL
MODEL      367
REMARK 921   NORMALIZED FREE ENERGY PREDICTED BY IDOCK:   -2.60 KCAL/MOL
REMARK 922        TOTAL FREE ENERGY PREDICTED BY IDOCK:   -8.52 KCAL/MOL
REMARK 923 INTER-LIGAND FREE ENERGY PREDICTED BY IDOCK:   -4.43 KCAL/MOL
REMARK 924 INTRA-LIGAND FREE ENERGY PREDICTED BY IDOCK:   -4.09 KCAL/MOL
REMARK 927      BINDING AFFINITY PREDICTED BY RF-SCORE:    0.00 PKD
ROOT
HETATM    1  C   UNL     1      -9.216   4.856  71.535  1.00  0.00    -0.185 C  
HETATM    2  C   UNL     1      -8.433   5.616  70.478  1.00  0.00    -0.121 C  
ENDROOT
BRANCH   2   3
HETATM    3  C   UNL     1      -7.683   6.795  71.091  1.00  0.00    -0.093 C  
BRANCH   3   4
HETATM    4  C   UNL     1      -7.052   7.668  70.010  1.00  0.00    -0.059 C  
BRANCH   4   5
HETATM    5  C   UNL     1      -7.036   6.940  68.670  1.00  0.00    -0.076 C  
BRANCH   5   6
HETATM    6  C   UNL     1      -7.471   7.870  67.542  1.00  0.00    -0.093 C  
BRANCH   6   7
HETATM    7  C   UNL     1      -7.399   9.326  67.987  1.00  0.00    -0.080 C  
BRANCH   7   8
HETATM    8  C   UNL     1      -8.197  10.215  67.042  1.00  0.00    -0.118 C  
BRANCH   8   9
HETATM    9  C   UNL     1      -8.880   9.380  65.967  1.00  0.00    -0.185 C  
BRANCH   9  10
HETATM   10  C   UNL     1      -9.726  10.263  65.061  1.00  0.00    -0.370 C  
BRANCH  10  11
HETATM   11  C   UNL     1      -9.671  11.712  65.525  1.00  0.00    -0.259 C  
BRANCH  11  12
HETATM   12  C   UNL     1     -11.073  12.238  65.796  1.00  0.00    -0.362 C  
BRANCH  12  13
HETATM   13  C   UNL     1     -11.750  11.415  66.881  1.00  0.00     0.062 C  
BRANCH  13  14
HETATM   14  C   UNL     1     -11.873  12.222  68.167  1.00  0.00    -0.372 C  
BRANCH  14  15
HETATM   15  C   UNL     1     -10.924  11.684  69.227  1.00  0.00    -0.246 C  
BRANCH  15  16
HETATM   16  C   UNL     1     -11.517  10.454  69.902  1.00  0.00    -0.368 C  
BRANCH  16  17
HETATM   17  C   UNL     1     -10.434   9.418  70.181  1.00  0.00    -0.280 C  
BRANCH  17  18
HETATM   18  C   UNL     1     -10.948   8.012  69.895  1.00  0.00    -0.172 C  
BRANCH  18  19
HETATM   19  C   UNL     1     -11.010   7.752  68.394  1.00  0.00     0.128 C  
BRANCH  19  20
HETATM   20  C   UNL     1     -10.994   6.255  68.105  1.00  0.00    -0.412 C  
BRANCH  20  21
HETATM   21  C   UNL     1     -10.521   5.977  66.683  1.00  0.00    -0.291 C  
BRANCH  21  22
HETATM   22  C   UNL     1      -9.443   4.902  66.659  1.00  0.00    -0.150 C  
HETATM   23  O   UNL     1      -9.999   3.655  67.055  1.00  0.00    -0.331 OA 
HETATM   24  H   UNL     1      -9.327   2.984  67.041  1.00  0.00     0.000 HD 
ENDBRANCH  21  22
ENDBRANCH  20  21
ENDBRANCH  19  20
ENDBRANCH  18  19
ENDBRANCH  17  18
ENDBRANCH  16  17
ENDBRANCH  15  16
ENDBRANCH  14  15
ENDBRANCH  13  14
ENDBRANCH  12  13
ENDBRANCH  11  12
ENDBRANCH  10  11
ENDBRANCH   9  10
ENDBRANCH   8   9
ENDBRANCH   7   8
ENDBRANCH   6   7
ENDBRANCH   5   6
ENDBRANCH   4   5
ENDBRANCH   3   4
ENDBRANCH   2   3
TORSDOF 20
ENDMDL
MODEL      368
REMARK 921   NORMALIZED FREE ENERGY PREDICTED BY IDOCK:   -2.60 KCAL/MOL
REMARK 922        TOTAL FREE ENERGY PREDICTED BY IDOCK:   -8.51 KCAL/MOL
REMARK 923 INTER-LIGAND FREE ENERGY PREDICTED BY IDOCK:   -6.00 KCAL/MOL
REMARK 924 INTRA-LIGAND FREE ENERGY PREDICTED BY IDOCK:   -2.51 KCAL/MOL
REMARK 927      BINDING AFFINITY PREDICTED BY RF-SCORE:    0.00 PKD
ROOT
HETATM    1  C   UNL     1     -12.400  11.830  63.442  1.00  0.00    -0.476 C  
HETATM    2  C   UNL     1     -11.528  13.025  63.791  1.00  0.00    -0.486 C  
ENDROOT
BRANCH   2   3
HETATM    3  C   UNL     1     -12.339  14.110  64.494  1.00  0.00    -0.419 C  
BRANCH   3   4
HETATM    4  C   UNL     1     -11.499  14.830  65.544  1.00  0.00    -0.329 C  
BRANCH   4   5
HETATM    5  C   UNL     1     -12.008  14.520  66.949  1.00  0.00    -0.371 C  
BRANCH   5   6
HETATM    6  C   UNL     1     -10.974  13.724  67.738  1.00  0.00    -0.272 C  
BRANCH   6   7
HETATM    7  C   UNL     1     -11.559  12.398  68.208  1.00  0.00    -0.384 C  
BRANCH   7   8
HETATM    8  C   UNL     1     -11.319  11.309  67.171  1.00  0.00    -0.295 C  
BRANCH   8   9
HETATM    9  C   UNL     1      -9.905  11.400  66.615  1.00  0.00    -0.233 C  
BRANCH   9  10
HETATM   10  C   UNL     1      -9.411  10.027  66.181  1.00  0.00    -0.242 C  
BRANCH  10  11
HETATM   11  C   UNL     1     -10.495   8.979  66.392  1.00  0.00    -0.110 C  
BRANCH  11  12
HETATM   12  C   UNL     1      -9.900   7.705  66.975  1.00  0.00    -0.282 C  
BRANCH  12  13
HETATM   13  C   UNL     1     -10.997   6.700  67.290  1.00  0.00    -0.456 C  
BRANCH  13  14
HETATM   14  C   UNL     1     -11.066   6.435  68.788  1.00  0.00    -0.404 C  
BRANCH  14  15
HETATM   15  C   UNL     1      -9.695   6.053  69.327  1.00  0.00    -0.174 C  
BRANCH  15  16
HETATM   16  C   UNL     1      -9.552   4.539  69.403  1.00  0.00    -0.264 C  
BRANCH  16  17
HETATM   17  C   UNL     1      -8.515   4.046  68.401  1.00  0.00    -0.106 C  
BRANCH  17  18
HETATM   18  C   UNL     1      -9.057   2.865  67.603  1.00  0.00    -0.222 C  
BRANCH  18  19
HETATM   19  C   UNL     1      -9.075   3.181  66.112  1.00  0.00    -0.153 C  
BRANCH  19  20
HETATM   20  C   UNL     1      -7.862   4.019  65.723  1.00  0.00    -0.090 C  
BRANCH  20  21
HETATM   21  C   UNL     1      -8.275   5.221  64.882  1.00  0.00    -0.136 C  
BRANCH  21  22
HETATM   22  C   UNL     1      -7.364   5.390  63.673  1.00  0.00    -0.053 C  
HETATM   23  O   UNL     1      -7.472   4.252  62.828  1.00  0.00    -0.047 OA 
HETATM   24  H   UNL     1      -6.904   4.357  62.073  1.00  0.00     0.000 HD 
ENDBRANCH  21  22
ENDBRANCH  20  21
ENDBRANCH  19  20
ENDBRANCH  18  19
ENDBRANCH  17  18
ENDBRANCH  16  17
ENDBRANCH  15  16
ENDBRANCH  14  15
ENDBRANCH  13  14
ENDBRANCH  12  13
ENDBRANCH  11  12
ENDBRANCH  10  11
ENDBRANCH   9  10
ENDBRANCH   8   9
ENDBRANCH   7   8
ENDBRANCH   6   7
ENDBRANCH   5   6
ENDBRANCH   4   5
ENDBRANCH   3   4
ENDBRANCH   2   3
TORSDOF 20
ENDMDL
MODEL      369
REMARK 921   NORMALIZED FREE ENERGY PREDICTED BY IDOCK:   -2.60 KCAL/MOL
REMARK 922        TOTAL FREE ENERGY PREDICTED BY IDOCK:   -8.50 KCAL/MOL
REMARK 923 INTER-LIGAND FREE ENERGY PREDICTED BY IDOCK:   -5.57 KCAL/MOL
REMARK 924 INTRA-LIGAND FREE ENERGY PREDICTED BY IDOCK:   -2.93 KCAL/MOL
REMARK 927      BINDING AFFINITY PREDICTED BY RF-SCORE:    0.00 PKD
ROOT
HETATM    1  C   UNL     1     -11.327  13.835  67.101  1.00  0.00    -0.344 C  
HETATM    2  C   UNL     1     -12.205  12.822  66.386  1.00  0.00    -0.242 C  
ENDROOT
BRANCH   2   3
HETATM    3  C   UNL     1     -11.939  12.827  64.884  1.00  0.00    -0.451 C  
BRANCH   3   4
HETATM    4  C   UNL     1     -11.323  11.506  64.430  1.00  0.00    -0.283 C  
BRANCH   4   5
HETATM    5  C   UNL     1     -10.007  11.747  63.697  1.00  0.00    -0.404 C  
BRANCH   5   6
HETATM    6  C   UNL     1      -9.630  10.538  62.847  1.00  0.00    -0.355 C  
BRANCH   6   7
HETATM    7  C   UNL     1      -8.124  10.307  62.879  1.00  0.00    -0.156 C  
BRANCH   7   8
HETATM    8  C   UNL     1      -7.733   9.490  64.104  1.00  0.00    -0.124 C  
BRANCH   8   9
HETATM    9  C   UNL     1      -6.410   9.981  64.676  1.00  0.00    -0.125 C  
BRANCH   9  10
HETATM   10  C   UNL     1      -6.638  10.729  65.982  1.00  0.00    -0.113 C  
BRANCH  10  11
HETATM   11  C   UNL     1      -7.881  10.205  66.688  1.00  0.00    -0.110 C  
BRANCH  11  12
HETATM   12  C   UNL     1      -8.748  11.360  67.168  1.00  0.00    -0.155 C  
BRANCH  12  13
HETATM   13  C   UNL     1      -7.953  12.656  67.176  1.00  0.00    -0.123 C  
BRANCH  13  14
HETATM   14  C   UNL     1      -7.616  13.069  68.603  1.00  0.00    -0.089 C  
BRANCH  14  15
HETATM   15  C   UNL     1      -7.106  14.502  68.638  1.00  0.00    -0.113 C  
BRANCH  15  16
HETATM   16  C   UNL     1      -7.283  15.167  67.279  1.00  0.00    -0.197 C  
BRANCH  16  17
HETATM   17  C   UNL     1      -7.195  16.683  67.406  1.00  0.00    -0.184 C  
BRANCH  17  18
HETATM   18  C   UNL     1      -8.152  17.188  68.480  1.00  0.00    -0.260 C  
BRANCH  18  19
HETATM   19  C   UNL     1      -9.601  17.046  68.026  1.00  0.00    -0.260 C  
BRANCH  19  20
HETATM   20  C   UNL     1     -10.534  16.936  69.226  1.00  0.00    -0.319 C  
BRANCH  20  21
HETATM   21  C   UNL     1     -10.415  15.569  69.889  1.00  0.00    -0.323 C  
BRANCH  21  22
HETATM   22  C   UNL     1     -11.674  15.224  70.674  1.00  0.00    -0.332 C  
HETATM   23  O   UNL     1     -11.764  13.815  70.842  1.00  0.00    -0.509 OA 
HETATM   24  H   UNL     1     -12.550  13.599  71.331  1.00  0.00     0.000 HD 
ENDBRANCH  21  22
ENDBRANCH  20  21
ENDBRANCH  19  20
ENDBRANCH  18  19
ENDBRANCH  17  18
ENDBRANCH  16  17
ENDBRANCH  15  16
ENDBRANCH  14  15
ENDBRANCH  13  14
ENDBRANCH  12  13
ENDBRANCH  11  12
ENDBRANCH  10  11
ENDBRANCH   9  10
ENDBRANCH   8   9
ENDBRANCH   7   8
ENDBRANCH   6   7
ENDBRANCH   5   6
ENDBRANCH   4   5
ENDBRANCH   3   4
ENDBRANCH   2   3
TORSDOF 20
ENDMDL
MODEL      370
REMARK 921   NORMALIZED FREE ENERGY PREDICTED BY IDOCK:   -2.60 KCAL/MOL
REMARK 922        TOTAL FREE ENERGY PREDICTED BY IDOCK:   -8.50 KCAL/MOL
REMARK 923 INTER-LIGAND FREE ENERGY PREDICTED BY IDOCK:   -6.01 KCAL/MOL
REMARK 924 INTRA-LIGAND FREE ENERGY PREDICTED BY IDOCK:   -2.49 KCAL/MOL
REMARK 927      BINDING AFFINITY PREDICTED BY RF-SCORE:    0.00 PKD
ROOT
HETATM    1  C   UNL     1     -11.555  13.537  70.062  1.00  0.00    -0.234 C  
HETATM    2  C   UNL     1     -11.939  13.051  68.675  1.00  0.00    -0.298 C  
ENDROOT
BRANCH   2   3
HETATM    3  C   UNL     1     -11.776  11.538  68.558  1.00  0.00    -0.379 C  
BRANCH   3   4
HETATM    4  C   UNL     1     -10.384  11.098  69.001  1.00  0.00    -0.214 C  
BRANCH   4   5
HETATM    5  C   UNL     1      -9.659  10.378  67.868  1.00  0.00    -0.157 C  
BRANCH   5   6
HETATM    6  C   UNL     1      -8.699  11.322  67.151  1.00  0.00    -0.151 C  
BRANCH   6   7
HETATM    7  C   UNL     1      -8.131  12.350  68.121  1.00  0.00    -0.163 C  
BRANCH   7   8
HETATM    8  C   UNL     1      -8.367  13.763  67.604  1.00  0.00    -0.183 C  
BRANCH   8   9
HETATM    9  C   UNL     1      -9.440  13.766  66.524  1.00  0.00    -0.282 C  
BRANCH   9  10
HETATM   10  C   UNL     1      -9.390  15.060  65.724  1.00  0.00    -0.171 C  
BRANCH  10  11
HETATM   11  C   UNL     1     -10.697  15.828  65.868  1.00  0.00    -0.320 C  
BRANCH  11  12
HETATM   12  C   UNL     1     -10.499  17.060  66.740  1.00  0.00    -0.257 C  
BRANCH  12  13
HETATM   13  C   UNL     1     -10.902  16.767  68.176  1.00  0.00    -0.353 C  
BRANCH  13  14
HETATM   14  C   UNL     1      -9.672  16.671  69.069  1.00  0.00    -0.260 C  
BRANCH  14  15
HETATM   15  C   UNL     1      -8.608  17.660  68.620  1.00  0.00    -0.264 C  
BRANCH  15  16
HETATM   16  C   UNL     1      -7.243  17.265  69.168  1.00  0.00    -0.182 C  
BRANCH  16  17
HETATM   17  C   UNL     1      -6.437  18.502  69.550  1.00  0.00    -0.222 C  
BRANCH  17  18
HETATM   18  C   UNL     1      -5.243  18.674  68.618  1.00  0.00    -0.185 C  
BRANCH  18  19
HETATM   19  C   UNL     1      -5.195  20.090  68.055  1.00  0.00    -0.197 C  
BRANCH  19  20
HETATM   20  C   UNL     1      -6.587  20.552  67.636  1.00  0.00    -0.336 C  
BRANCH  20  21
HETATM   21  C   UNL     1      -7.053  19.818  66.385  1.00  0.00    -0.248 C  
BRANCH  21  22
HETATM   22  C   UNL     1      -8.569  19.870  66.246  1.00  0.00    -0.337 C  
HETATM   23  O   UNL     1      -9.093  20.898  67.077  1.00  0.00    -0.617 OA 
HETATM   24  H   UNL     1     -10.038  20.931  66.990  1.00  0.00     0.000 HD 
ENDBRANCH  21  22
ENDBRANCH  20  21
ENDBRANCH  19  20
ENDBRANCH  18  19
ENDBRANCH  17  18
ENDBRANCH  16  17
ENDBRANCH  15  16
ENDBRANCH  14  15
ENDBRANCH  13  14
ENDBRANCH  12  13
ENDBRANCH  11  12
ENDBRANCH  10  11
ENDBRANCH   9  10
ENDBRANCH   8   9
ENDBRANCH   7   8
ENDBRANCH   6   7
ENDBRANCH   5   6
ENDBRANCH   4   5
ENDBRANCH   3   4
ENDBRANCH   2   3
TORSDOF 20
ENDMDL
MODEL      371
REMARK 921   NORMALIZED FREE ENERGY PREDICTED BY IDOCK:   -2.60 KCAL/MOL
REMARK 922        TOTAL FREE ENERGY PREDICTED BY IDOCK:   -8.50 KCAL/MOL
REMARK 923 INTER-LIGAND FREE ENERGY PREDICTED BY IDOCK:   -6.28 KCAL/MOL
REMARK 924 INTRA-LIGAND FREE ENERGY PREDICTED BY IDOCK:   -2.22 KCAL/MOL
REMARK 927      BINDING AFFINITY PREDICTED BY RF-SCORE:    0.00 PKD
ROOT
HETATM    1  C   UNL     1      -9.499   5.484  71.245  1.00  0.00    -0.185 C  
HETATM    2  C   UNL     1     -10.757   6.332  71.307  1.00  0.00    -0.299 C  
ENDROOT
BRANCH   2   3
HETATM    3  C   UNL     1     -11.419   6.435  69.936  1.00  0.00    -0.483 C  
BRANCH   3   4
HETATM    4  C   UNL     1     -10.526   5.846  68.848  1.00  0.00    -0.325 C  
BRANCH   4   5
HETATM    5  C   UNL     1     -11.034   6.235  67.463  1.00  0.00    -0.444 C  
BRANCH   5   6
HETATM    6  C   UNL     1     -10.171   7.337  66.858  1.00  0.00    -0.340 C  
BRANCH   6   7
HETATM    7  C   UNL     1     -10.830   8.698  67.043  1.00  0.00    -0.024 C  
BRANCH   7   8
HETATM    8  C   UNL     1      -9.871   9.671  67.717  1.00  0.00    -0.192 C  
BRANCH   8   9
HETATM    9  C   UNL     1      -9.485   9.170  69.103  1.00  0.00    -0.156 C  
BRANCH   9  10
HETATM   10  C   UNL     1     -10.053  10.084  70.179  1.00  0.00    -0.266 C  
BRANCH  10  11
HETATM   11  C   UNL     1     -11.496   9.712  70.490  1.00  0.00    -0.352 C  
BRANCH  11  12
HETATM   12  C   UNL     1     -12.446  10.784  69.976  1.00  0.00    -0.317 C  
BRANCH  12  13
HETATM   13  C   UNL     1     -11.741  12.128  69.898  1.00  0.00    -0.361 C  
BRANCH  13  14
HETATM   14  C   UNL     1     -12.023  12.806  68.564  1.00  0.00    -0.265 C  
BRANCH  14  15
HETATM   15  C   UNL     1     -10.965  13.856  68.264  1.00  0.00    -0.274 C  
BRANCH  15  16
HETATM   16  C   UNL     1     -11.605  15.228  68.091  1.00  0.00    -0.344 C  
BRANCH  16  17
HETATM   17  C   UNL     1     -11.097  16.196  69.153  1.00  0.00    -0.329 C  
BRANCH  17  18
HETATM   18  C   UNL     1      -9.741  15.746  69.686  1.00  0.00    -0.248 C  
BRANCH  18  19
HETATM   19  C   UNL     1      -8.611  16.282  68.813  1.00  0.00    -0.240 C  
BRANCH  19  20
HETATM   20  C   UNL     1      -7.301  15.567  69.128  1.00  0.00    -0.177 C  
BRANCH  20  21
HETATM   21  C   UNL     1      -6.841  14.722  67.946  1.00  0.00    -0.174 C  
BRANCH  21  22
HETATM   22  C   UNL     1      -7.274  13.270  68.103  1.00  0.00    -0.112 C  
HETATM   23  O   UNL     1      -7.134  12.589  66.863  1.00  0.00    -0.370 OA 
HETATM   24  H   UNL     1      -7.404  11.684  66.961  1.00  0.00     0.000 HD 
ENDBRANCH  21  22
ENDBRANCH  20  21
ENDBRANCH  19  20
ENDBRANCH  18  19
ENDBRANCH  17  18
ENDBRANCH  16  17
ENDBRANCH  15  16
ENDBRANCH  14  15
ENDBRANCH  13  14
ENDBRANCH  12  13
ENDBRANCH  11  12
ENDBRANCH  10  11
ENDBRANCH   9  10
ENDBRANCH   8   9
ENDBRANCH   7   8
ENDBRANCH   6   7
ENDBRANCH   5   6
ENDBRANCH   4   5
ENDBRANCH   3   4
ENDBRANCH   2   3
TORSDOF 20
ENDMDL
MODEL      372
REMARK 921   NORMALIZED FREE ENERGY PREDICTED BY IDOCK:   -2.59 KCAL/MOL
REMARK 922        TOTAL FREE ENERGY PREDICTED BY IDOCK:   -8.49 KCAL/MOL
REMARK 923 INTER-LIGAND FREE ENERGY PREDICTED BY IDOCK:   -6.17 KCAL/MOL
REMARK 924 INTRA-LIGAND FREE ENERGY PREDICTED BY IDOCK:   -2.33 KCAL/MOL
REMARK 927      BINDING AFFINITY PREDICTED BY RF-SCORE:    0.00 PKD
ROOT
HETATM    1  C   UNL     1      -8.068  20.014  66.638  1.00  0.00    -0.351 C  
HETATM    2  C   UNL     1      -8.932  18.776  66.804  1.00  0.00    -0.311 C  
ENDROOT
BRANCH   2   3
HETATM    3  C   UNL     1      -9.090  18.410  68.277  1.00  0.00    -0.330 C  
BRANCH   3   4
HETATM    4  C   UNL     1      -8.509  17.028  68.566  1.00  0.00    -0.257 C  
BRANCH   4   5
HETATM    5  C   UNL     1      -7.852  16.447  67.318  1.00  0.00    -0.195 C  
BRANCH   5   6
HETATM    6  C   UNL     1      -7.992  14.929  67.288  1.00  0.00    -0.237 C  
BRANCH   6   7
HETATM    7  C   UNL     1      -7.928  14.355  68.698  1.00  0.00    -0.145 C  
BRANCH   7   8
HETATM    8  C   UNL     1      -6.521  13.868  69.016  1.00  0.00    -0.103 C  
BRANCH   8   9
HETATM    9  C   UNL     1      -6.507  12.357  69.212  1.00  0.00    -0.107 C  
BRANCH   9  10
HETATM   10  C   UNL     1      -7.117  11.656  68.007  1.00  0.00    -0.080 C  
BRANCH  10  11
HETATM   11  C   UNL     1      -7.850  10.393  68.438  1.00  0.00    -0.104 C  
BRANCH  11  12
HETATM   12  C   UNL     1      -9.351  10.556  68.244  1.00  0.00    -0.156 C  
BRANCH  12  13
HETATM   13  C   UNL     1      -9.854   9.609  67.166  1.00  0.00    -0.238 C  
BRANCH  13  14
HETATM   14  C   UNL     1      -9.561  10.169  65.781  1.00  0.00    -0.288 C  
BRANCH  14  15
HETATM   15  C   UNL     1      -9.635  11.689  65.793  1.00  0.00    -0.255 C  
BRANCH  15  16
HETATM   16  C   UNL     1     -11.081  12.155  65.680  1.00  0.00    -0.360 C  
BRANCH  16  17
HETATM   17  C   UNL     1     -11.310  13.406  66.520  1.00  0.00    -0.346 C  
BRANCH  17  18
HETATM   18  C   UNL     1     -12.057  13.063  67.803  1.00  0.00    -0.244 C  
BRANCH  18  19
HETATM   19  C   UNL     1     -11.312  13.591  69.024  1.00  0.00    -0.336 C  
BRANCH  19  20
HETATM   20  C   UNL     1     -11.792  14.993  69.385  1.00  0.00    -0.358 C  
BRANCH  20  21
HETATM   21  C   UNL     1     -12.442  15.009  70.763  1.00  0.00    -0.411 C  
BRANCH  21  22
HETATM   22  C   UNL     1     -11.414  15.270  71.856  1.00  0.00    -0.424 C  
HETATM   23  O   UNL     1     -11.840  16.356  72.668  1.00  0.00    -0.533 OA 
HETATM   24  H   UNL     1     -11.199  16.519  73.350  1.00  0.00     0.000 HD 
ENDBRANCH  21  22
ENDBRANCH  20  21
ENDBRANCH  19  20
ENDBRANCH  18  19
ENDBRANCH  17  18
ENDBRANCH  16  17
ENDBRANCH  15  16
ENDBRANCH  14  15
ENDBRANCH  13  14
ENDBRANCH  12  13
ENDBRANCH  11  12
ENDBRANCH  10  11
ENDBRANCH   9  10
ENDBRANCH   8   9
ENDBRANCH   7   8
ENDBRANCH   6   7
ENDBRANCH   5   6
ENDBRANCH   4   5
ENDBRANCH   3   4
ENDBRANCH   2   3
TORSDOF 20
ENDMDL
MODEL      373
REMARK 921   NORMALIZED FREE ENERGY PREDICTED BY IDOCK:   -2.58 KCAL/MOL
REMARK 922        TOTAL FREE ENERGY PREDICTED BY IDOCK:   -8.47 KCAL/MOL
REMARK 923 INTER-LIGAND FREE ENERGY PREDICTED BY IDOCK:   -5.73 KCAL/MOL
REMARK 924 INTRA-LIGAND FREE ENERGY PREDICTED BY IDOCK:   -2.74 KCAL/MOL
REMARK 927      BINDING AFFINITY PREDICTED BY RF-SCORE:    0.00 PKD
ROOT
HETATM    1  C   UNL     1     -11.035  15.512  70.133  1.00  0.00    -0.336 C  
HETATM    2  C   UNL     1     -11.593  14.144  69.781  1.00  0.00    -0.351 C  
ENDROOT
BRANCH   2   3
HETATM    3  C   UNL     1     -12.892  13.870  70.534  1.00  0.00    -0.250 C  
BRANCH   3   4
HETATM    4  C   UNL     1     -12.612  13.366  71.947  1.00  0.00    -0.181 C  
BRANCH   4   5
HETATM    5  C   UNL     1     -13.334  12.046  72.202  1.00  0.00    -0.396 C  
BRANCH   5   6
HETATM    6  C   UNL     1     -13.107  11.072  71.051  1.00  0.00    -0.257 C  
BRANCH   6   7
HETATM    7  C   UNL     1     -11.958  10.123  71.367  1.00  0.00    -0.447 C  
BRANCH   7   8
HETATM    8  C   UNL     1     -10.900  10.179  70.274  1.00  0.00    -0.370 C  
BRANCH   8   9
HETATM    9  C   UNL     1     -11.441  10.885  69.038  1.00  0.00    -0.371 C  
BRANCH   9  10
HETATM   10  C   UNL     1     -10.951  10.197  67.772  1.00  0.00    -0.338 C  
BRANCH  10  11
HETATM   11  C   UNL     1      -9.534  10.641  67.438  1.00  0.00    -0.172 C  
BRANCH  11  12
HETATM   12  C   UNL     1      -8.651   9.434  67.150  1.00  0.00    -0.130 C  
BRANCH  12  13
HETATM   13  C   UNL     1      -7.429   9.441  68.055  1.00  0.00    -0.080 C  
BRANCH  13  14
HETATM   14  C   UNL     1      -7.741   8.761  69.382  1.00  0.00    -0.093 C  
BRANCH  14  15
HETATM   15  C   UNL     1      -7.510   7.261  69.280  1.00  0.00    -0.096 C  
BRANCH  15  16
HETATM   16  C   UNL     1      -7.440   6.634  70.667  1.00  0.00    -0.083 C  
BRANCH  16  17
HETATM   17  C   UNL     1      -8.708   5.843  70.964  1.00  0.00    -0.135 C  
BRANCH  17  18
HETATM   18  C   UNL     1      -9.834   6.774  71.395  1.00  0.00    -0.188 C  
BRANCH  18  19
HETATM   19  C   UNL     1     -11.133   6.423  70.678  1.00  0.00    -0.376 C  
BRANCH  19  20
HETATM   20  C   UNL     1     -11.107   6.926  69.238  1.00  0.00    -0.229 C  
BRANCH  20  21
HETATM   21  C   UNL     1     -10.740   5.805  68.274  1.00  0.00    -0.285 C  
BRANCH  21  22
HETATM   22  C   UNL     1     -10.802   6.278  66.827  1.00  0.00    -0.296 C  
HETATM   23  O   UNL     1      -9.567   6.005  66.178  1.00  0.00    -0.273 OA 
HETATM   24  H   UNL     1      -9.606   6.300  65.276  1.00  0.00     0.000 HD 
ENDBRANCH  21  22
ENDBRANCH  20  21
ENDBRANCH  19  20
ENDBRANCH  18  19
ENDBRANCH  17  18
ENDBRANCH  16  17
ENDBRANCH  15  16
ENDBRANCH  14  15
ENDBRANCH  13  14
ENDBRANCH  12  13
ENDBRANCH  11  12
ENDBRANCH  10  11
ENDBRANCH   9  10
ENDBRANCH   8   9
ENDBRANCH   7   8
ENDBRANCH   6   7
ENDBRANCH   5   6
ENDBRANCH   4   5
ENDBRANCH   3   4
ENDBRANCH   2   3
TORSDOF 20
ENDMDL
MODEL      374
REMARK 921   NORMALIZED FREE ENERGY PREDICTED BY IDOCK:   -2.58 KCAL/MOL
REMARK 922        TOTAL FREE ENERGY PREDICTED BY IDOCK:   -8.47 KCAL/MOL
REMARK 923 INTER-LIGAND FREE ENERGY PREDICTED BY IDOCK:   -4.76 KCAL/MOL
REMARK 924 INTRA-LIGAND FREE ENERGY PREDICTED BY IDOCK:   -3.71 KCAL/MOL
REMARK 927      BINDING AFFINITY PREDICTED BY RF-SCORE:    0.00 PKD
ROOT
HETATM    1  C   UNL     1     -10.404   3.877  64.328  1.00  0.00    -0.245 C  
HETATM    2  C   UNL     1      -9.664   4.531  65.483  1.00  0.00    -0.204 C  
ENDROOT
BRANCH   2   3
HETATM    3  C   UNL     1     -10.637   5.198  66.451  1.00  0.00    -0.336 C  
BRANCH   3   4
HETATM    4  C   UNL     1     -10.213   6.633  66.753  1.00  0.00    -0.263 C  
BRANCH   4   5
HETATM    5  C   UNL     1      -8.935   6.989  66.000  1.00  0.00    -0.135 C  
BRANCH   5   6
HETATM    6  C   UNL     1      -7.819   7.361  66.971  1.00  0.00    -0.116 C  
BRANCH   6   7
HETATM    7  C   UNL     1      -6.584   6.503  66.726  1.00  0.00    -0.048 C  
BRANCH   7   8
HETATM    8  C   UNL     1      -6.424   5.466  67.830  1.00  0.00    -0.048 C  
BRANCH   8   9
HETATM    9  C   UNL     1      -7.302   5.814  69.024  1.00  0.00    -0.083 C  
BRANCH   9  10
HETATM   10  C   UNL     1      -8.125   4.608  69.453  1.00  0.00    -0.069 C  
BRANCH  10  11
HETATM   11  C   UNL     1      -9.502   5.044  69.934  1.00  0.00    -0.225 C  
BRANCH  11  12
HETATM   12  C   UNL     1      -9.769   4.517  71.336  1.00  0.00    -0.248 C  
BRANCH  12  13
HETATM   13  C   UNL     1      -9.612   5.629  72.362  1.00  0.00    -0.167 C  
BRANCH  13  14
HETATM   14  C   UNL     1     -10.972   6.066  72.890  1.00  0.00    -0.303 C  
BRANCH  14  15
HETATM   15  C   UNL     1     -10.987   7.565  73.150  1.00  0.00    -0.420 C  
BRANCH  15  16
HETATM   16  C   UNL     1     -12.024   8.252  72.271  1.00  0.00    -0.448 C  
BRANCH  16  17
HETATM   17  C   UNL     1     -11.350   9.192  71.279  1.00  0.00    -0.406 C  
BRANCH  17  18
HETATM   18  C   UNL     1     -10.890   8.430  70.042  1.00  0.00    -0.225 C  
BRANCH  18  19
HETATM   19  C   UNL     1      -9.538   8.944  69.559  1.00  0.00    -0.171 C  
BRANCH  19  20
HETATM   20  C   UNL     1      -8.538   8.997  70.710  1.00  0.00    -0.259 C  
BRANCH  20  21
HETATM   21  C   UNL     1      -7.319   9.832  70.336  1.00  0.00    -0.151 C  
BRANCH  21  22
HETATM   22  C   UNL     1      -7.594  10.696  69.112  1.00  0.00    -0.131 C  
HETATM   23  O   UNL     1      -6.600  10.460  68.124  1.00  0.00    -0.059 OA 
HETATM   24  H   UNL     1      -6.772  10.999  67.360  1.00  0.00     0.000 HD 
ENDBRANCH  21  22
ENDBRANCH  20  21
ENDBRANCH  19  20
ENDBRANCH  18  19
ENDBRANCH  17  18
ENDBRANCH  16  17
ENDBRANCH  15  16
ENDBRANCH  14  15
ENDBRANCH  13  14
ENDBRANCH  12  13
ENDBRANCH  11  12
ENDBRANCH  10  11
ENDBRANCH   9  10
ENDBRANCH   8   9
ENDBRANCH   7   8
ENDBRANCH   6   7
ENDBRANCH   5   6
ENDBRANCH   4   5
ENDBRANCH   3   4
ENDBRANCH   2   3
TORSDOF 20
ENDMDL
MODEL      375
REMARK 921   NORMALIZED FREE ENERGY PREDICTED BY IDOCK:   -2.57 KCAL/MOL
REMARK 922        TOTAL FREE ENERGY PREDICTED BY IDOCK:   -8.44 KCAL/MOL
REMARK 923 INTER-LIGAND FREE ENERGY PREDICTED BY IDOCK:   -5.69 KCAL/MOL
REMARK 924 INTRA-LIGAND FREE ENERGY PREDICTED BY IDOCK:   -2.75 KCAL/MOL
REMARK 927      BINDING AFFINITY PREDICTED BY RF-SCORE:    0.00 PKD
ROOT
HETATM    1  C   UNL     1      -7.734   7.434  66.065  1.00  0.00    -0.095 C  
HETATM    2  C   UNL     1      -7.105   6.631  67.190  1.00  0.00    -0.076 C  
ENDROOT
BRANCH   2   3
HETATM    3  C   UNL     1      -5.802   5.979  66.739  1.00  0.00    -0.017 C  
BRANCH   3   4
HETATM    4  C   UNL     1      -5.809   4.480  67.024  1.00  0.00    -0.023 C  
BRANCH   4   5
HETATM    5  C   UNL     1      -5.719   3.682  65.727  1.00  0.00    -0.018 C  
BRANCH   5   6
HETATM    6  C   UNL     1      -5.483   4.607  64.537  1.00  0.00    -0.013 C  
BRANCH   6   7
HETATM    7  C   UNL     1      -6.701   4.629  63.623  1.00  0.00    -0.042 C  
BRANCH   7   8
HETATM    8  C   UNL     1      -7.720   3.585  64.061  1.00  0.00    -0.080 C  
BRANCH   8   9
HETATM    9  C   UNL     1      -9.053   4.243  64.393  1.00  0.00    -0.150 C  
BRANCH   9  10
HETATM   10  C   UNL     1      -9.445   3.959  65.836  1.00  0.00    -0.182 C  
BRANCH  10  11
HETATM   11  C   UNL     1     -10.492   4.957  66.311  1.00  0.00    -0.349 C  
BRANCH  11  12
HETATM   12  C   UNL     1     -10.298   5.270  67.788  1.00  0.00    -0.196 C  
BRANCH  12  13
HETATM   13  C   UNL     1     -11.154   6.458  68.198  1.00  0.00    -0.358 C  
BRANCH  13  14
HETATM   14  C   UNL     1     -10.688   7.019  69.535  1.00  0.00    -0.263 C  
BRANCH  14  15
HETATM   15  C   UNL     1     -11.239   6.187  70.684  1.00  0.00    -0.387 C  
BRANCH  15  16
HETATM   16  C   UNL     1     -11.929   7.078  71.707  1.00  0.00    -0.361 C  
BRANCH  16  17
HETATM   17  C   UNL     1     -13.439   7.073  71.494  1.00  0.00    -0.363 C  
BRANCH  17  18
HETATM   18  C   UNL     1     -13.999   8.488  71.582  1.00  0.00    -0.463 C  
BRANCH  18  19
HETATM   19  C   UNL     1     -12.885   9.497  71.839  1.00  0.00    -0.508 C  
BRANCH  19  20
HETATM   20  C   UNL     1     -12.901  10.599  70.785  1.00  0.00    -0.439 C  
BRANCH  20  21
HETATM   21  C   UNL     1     -11.527  10.766  70.148  1.00  0.00    -0.415 C  
BRANCH  21  22
HETATM   22  C   UNL     1     -11.498  11.958  69.200  1.00  0.00    -0.296 C  
HETATM   23  O   UNL     1     -12.112  11.607  67.967  1.00  0.00    -0.597 OA 
HETATM   24  H   UNL     1     -12.094  12.351  67.376  1.00  0.00     0.000 HD 
ENDBRANCH  21  22
ENDBRANCH  20  21
ENDBRANCH  19  20
ENDBRANCH  18  19
ENDBRANCH  17  18
ENDBRANCH  16  17
ENDBRANCH  15  16
ENDBRANCH  14  15
ENDBRANCH  13  14
ENDBRANCH  12  13
ENDBRANCH  11  12
ENDBRANCH  10  11
ENDBRANCH   9  10
ENDBRANCH   8   9
ENDBRANCH   7   8
ENDBRANCH   6   7
ENDBRANCH   5   6
ENDBRANCH   4   5
ENDBRANCH   3   4
ENDBRANCH   2   3
TORSDOF 20
ENDMDL
MODEL      376
REMARK 921   NORMALIZED FREE ENERGY PREDICTED BY IDOCK:   -2.56 KCAL/MOL
REMARK 922        TOTAL FREE ENERGY PREDICTED BY IDOCK:   -8.42 KCAL/MOL
REMARK 923 INTER-LIGAND FREE ENERGY PREDICTED BY IDOCK:   -7.13 KCAL/MOL
REMARK 924 INTRA-LIGAND FREE ENERGY PREDICTED BY IDOCK:   -1.29 KCAL/MOL
REMARK 927      BINDING AFFINITY PREDICTED BY RF-SCORE:    0.00 PKD
ROOT
HETATM    1  C   UNL     1     -12.329  11.970  63.639  1.00  0.00    -0.648 C  
HETATM    2  C   UNL     1     -12.034  13.453  63.790  1.00  0.00    -0.517 C  
ENDROOT
BRANCH   2   3
HETATM    3  C   UNL     1     -10.731  13.680  64.550  1.00  0.00    -0.420 C  
BRANCH   3   4
HETATM    4  C   UNL     1     -10.646  15.107  65.083  1.00  0.00    -0.447 C  
BRANCH   4   5
HETATM    5  C   UNL     1      -9.887  15.146  66.406  1.00  0.00    -0.300 C  
BRANCH   5   6
HETATM    6  C   UNL     1      -9.364  13.761  66.772  1.00  0.00    -0.276 C  
BRANCH   6   7
HETATM    7  C   UNL     1      -9.534  13.498  68.263  1.00  0.00    -0.212 C  
BRANCH   7   8
HETATM    8  C   UNL     1     -10.938  13.873  68.717  1.00  0.00    -0.286 C  
BRANCH   8   9
HETATM    9  C   UNL     1     -11.811  12.631  68.842  1.00  0.00    -0.345 C  
BRANCH   9  10
HETATM   10  C   UNL     1     -12.126  12.343  70.303  1.00  0.00    -0.377 C  
BRANCH  10  11
HETATM   11  C   UNL     1     -11.943  10.863  70.608  1.00  0.00    -0.467 C  
BRANCH  11  12
HETATM   12  C   UNL     1     -13.202  10.290  71.244  1.00  0.00    -0.447 C  
BRANCH  12  13
HETATM   13  C   UNL     1     -12.843   9.218  72.260  1.00  0.00    -0.459 C  
BRANCH  13  14
HETATM   14  C   UNL     1     -11.564   8.499  71.853  1.00  0.00    -0.410 C  
BRANCH  14  15
HETATM   15  C   UNL     1     -11.030   7.664  73.007  1.00  0.00    -0.457 C  
BRANCH  15  16
HETATM   16  C   UNL     1     -10.669   6.262  72.532  1.00  0.00    -0.256 C  
BRANCH  16  17
HETATM   17  C   UNL     1      -9.915   6.320  71.208  1.00  0.00    -0.207 C  
BRANCH  17  18
HETATM   18  C   UNL     1      -9.399   4.939  70.823  1.00  0.00    -0.211 C  
BRANCH  18  19
HETATM   19  C   UNL     1      -9.350   4.020  72.039  1.00  0.00    -0.187 C  
BRANCH  19  20
HETATM   20  C   UNL     1      -8.787   2.654  71.661  1.00  0.00    -0.123 C  
BRANCH  20  21
HETATM   21  C   UNL     1      -7.851   2.130  72.744  1.00  0.00    -0.052 C  
BRANCH  21  22
HETATM   22  C   UNL     1      -6.493   1.752  72.165  1.00  0.00    -0.014 C  
HETATM   23  O   UNL     1      -6.257   2.488  70.972  1.00  0.00    -0.018 OA 
HETATM   24  H   UNL     1      -5.410   2.252  70.611  1.00  0.00     0.000 HD 
ENDBRANCH  21  22
ENDBRANCH  20  21
ENDBRANCH  19  20
ENDBRANCH  18  19
ENDBRANCH  17  18
ENDBRANCH  16  17
ENDBRANCH  15  16
ENDBRANCH  14  15
ENDBRANCH  13  14
ENDBRANCH  12  13
ENDBRANCH  11  12
ENDBRANCH  10  11
ENDBRANCH   9  10
ENDBRANCH   8   9
ENDBRANCH   7   8
ENDBRANCH   6   7
ENDBRANCH   5   6
ENDBRANCH   4   5
ENDBRANCH   3   4
ENDBRANCH   2   3
TORSDOF 20
ENDMDL
MODEL      377
REMARK 921   NORMALIZED FREE ENERGY PREDICTED BY IDOCK:   -2.55 KCAL/MOL
REMARK 922        TOTAL FREE ENERGY PREDICTED BY IDOCK:   -8.41 KCAL/MOL
REMARK 923 INTER-LIGAND FREE ENERGY PREDICTED BY IDOCK:   -6.04 KCAL/MOL
REMARK 924 INTRA-LIGAND FREE ENERGY PREDICTED BY IDOCK:   -2.37 KCAL/MOL
REMARK 927      BINDING AFFINITY PREDICTED BY RF-SCORE:    0.00 PKD
ROOT
HETATM    1  C   UNL     1      -9.005   7.303  66.088  1.00  0.00    -0.179 C  
HETATM    2  C   UNL     1     -10.284   7.079  66.876  1.00  0.00    -0.318 C  
ENDROOT
BRANCH   2   3
HETATM    3  C   UNL     1     -10.062   6.086  68.014  1.00  0.00    -0.187 C  
BRANCH   3   4
HETATM    4  C   UNL     1     -11.109   6.263  69.110  1.00  0.00    -0.457 C  
BRANCH   4   5
HETATM    5  C   UNL     1     -10.684   5.539  70.384  1.00  0.00    -0.321 C  
BRANCH   5   6
HETATM    6  C   UNL     1      -9.585   6.311  71.106  1.00  0.00    -0.190 C  
BRANCH   6   7
HETATM    7  C   UNL     1      -9.858   7.809  71.056  1.00  0.00    -0.186 C  
BRANCH   7   8
HETATM    8  C   UNL     1      -8.771   8.578  71.796  1.00  0.00    -0.266 C  
BRANCH   8   9
HETATM    9  C   UNL     1      -7.779   9.185  70.813  1.00  0.00    -0.162 C  
BRANCH   9  10
HETATM   10  C   UNL     1      -8.273   9.017  69.383  1.00  0.00    -0.117 C  
BRANCH  10  11
HETATM   11  C   UNL     1      -8.515  10.375  68.739  1.00  0.00    -0.132 C  
BRANCH  11  12
HETATM   12  C   UNL     1      -9.859  10.395  68.026  1.00  0.00    -0.170 C  
BRANCH  12  13
HETATM   13  C   UNL     1     -10.202  11.807  67.576  1.00  0.00    -0.214 C  
BRANCH  13  14
HETATM   14  C   UNL     1     -11.680  12.097  67.803  1.00  0.00    -0.390 C  
BRANCH  14  15
HETATM   15  C   UNL     1     -12.051  11.867  69.260  1.00  0.00    -0.270 C  
BRANCH  15  16
HETATM   16  C   UNL     1     -11.549  13.014  70.128  1.00  0.00    -0.139 C  
BRANCH  16  17
HETATM   17  C   UNL     1     -12.687  13.969  70.470  1.00  0.00    -0.347 C  
BRANCH  17  18
HETATM   18  C   UNL     1     -12.195  15.411  70.476  1.00  0.00    -0.436 C  
BRANCH  18  19
HETATM   19  C   UNL     1     -11.739  15.834  69.084  1.00  0.00    -0.398 C  
BRANCH  19  20
HETATM   20  C   UNL     1     -10.571  16.811  69.172  1.00  0.00    -0.343 C  
BRANCH  20  21
HETATM   21  C   UNL     1      -9.479  16.448  68.173  1.00  0.00    -0.213 C  
BRANCH  21  22
HETATM   22  C   UNL     1      -8.896  15.073  68.466  1.00  0.00    -0.181 C  
HETATM   23  O   UNL     1      -8.298  15.069  69.756  1.00  0.00    -0.428 OA 
HETATM   24  H   UNL     1      -7.934  14.211  69.939  1.00  0.00     0.000 HD 
ENDBRANCH  21  22
ENDBRANCH  20  21
ENDBRANCH  19  20
ENDBRANCH  18  19
ENDBRANCH  17  18
ENDBRANCH  16  17
ENDBRANCH  15  16
ENDBRANCH  14  15
ENDBRANCH  13  14
ENDBRANCH  12  13
ENDBRANCH  11  12
ENDBRANCH  10  11
ENDBRANCH   9  10
ENDBRANCH   8   9
ENDBRANCH   7   8
ENDBRANCH   6   7
ENDBRANCH   5   6
ENDBRANCH   4   5
ENDBRANCH   3   4
ENDBRANCH   2   3
TORSDOF 20
ENDMDL
MODEL      378
REMARK 921   NORMALIZED FREE ENERGY PREDICTED BY IDOCK:   -2.55 KCAL/MOL
REMARK 922        TOTAL FREE ENERGY PREDICTED BY IDOCK:   -8.41 KCAL/MOL
REMARK 923 INTER-LIGAND FREE ENERGY PREDICTED BY IDOCK:   -6.78 KCAL/MOL
REMARK 924 INTRA-LIGAND FREE ENERGY PREDICTED BY IDOCK:   -1.63 KCAL/MOL
REMARK 927      BINDING AFFINITY PREDICTED BY RF-SCORE:    0.00 PKD
ROOT
HETATM    1  C   UNL     1     -12.480  10.060  71.134  1.00  0.00    -0.480 C  
HETATM    2  C   UNL     1     -11.378   9.218  71.752  1.00  0.00    -0.437 C  
ENDROOT
BRANCH   2   3
HETATM    3  C   UNL     1     -11.494   7.758  71.322  1.00  0.00    -0.294 C  
BRANCH   3   4
HETATM    4  C   UNL     1     -10.444   6.895  72.015  1.00  0.00    -0.229 C  
BRANCH   4   5
HETATM    5  C   UNL     1      -9.076   7.568  71.969  1.00  0.00    -0.157 C  
BRANCH   5   6
HETATM    6  C   UNL     1      -8.575   7.681  70.533  1.00  0.00    -0.137 C  
BRANCH   6   7
HETATM    7  C   UNL     1      -8.338   9.139  70.159  1.00  0.00    -0.174 C  
BRANCH   7   8
HETATM    8  C   UNL     1      -8.464   9.335  68.654  1.00  0.00    -0.123 C  
BRANCH   8   9
HETATM    9  C   UNL     1      -9.599   8.486  68.096  1.00  0.00    -0.158 C  
BRANCH   9  10
HETATM   10  C   UNL     1     -10.775   9.364  67.693  1.00  0.00    -0.295 C  
BRANCH  10  11
HETATM   11  C   UNL     1     -10.332  10.427  66.698  1.00  0.00    -0.292 C  
BRANCH  11  12
HETATM   12  C   UNL     1     -11.172  11.687  66.853  1.00  0.00    -0.376 C  
BRANCH  12  13
HETATM   13  C   UNL     1     -11.811  11.734  68.232  1.00  0.00    -0.340 C  
BRANCH  13  14
HETATM   14  C   UNL     1     -11.913  13.172  68.726  1.00  0.00    -0.316 C  
BRANCH  14  15
HETATM   15  C   UNL     1     -10.532  13.799  68.834  1.00  0.00    -0.183 C  
BRANCH  15  16
HETATM   16  C   UNL     1     -10.618  15.313  68.693  1.00  0.00    -0.236 C  
BRANCH  16  17
HETATM   17  C   UNL     1     -10.809  15.707  67.233  1.00  0.00    -0.298 C  
BRANCH  17  18
HETATM   18  C   UNL     1      -9.599  15.295  66.403  1.00  0.00    -0.317 C  
BRANCH  18  19
HETATM   19  C   UNL     1     -10.002  15.013  64.960  1.00  0.00    -0.188 C  
BRANCH  19  20
HETATM   20  C   UNL     1     -10.287  13.528  64.759  1.00  0.00    -0.405 C  
BRANCH  20  21
HETATM   21  C   UNL     1     -11.590  13.319  63.997  1.00  0.00    -0.458 C  
BRANCH  21  22
HETATM   22  C   UNL     1     -12.690  14.231  64.524  1.00  0.00    -0.055 C  
HETATM   23  O   UNL     1     -12.628  15.489  63.865  1.00  0.00    -0.830 OA 
HETATM   24  H   UNL     1     -13.315  16.058  64.193  1.00  0.00     0.000 HD 
ENDBRANCH  21  22
ENDBRANCH  20  21
ENDBRANCH  19  20
ENDBRANCH  18  19
ENDBRANCH  17  18
ENDBRANCH  16  17
ENDBRANCH  15  16
ENDBRANCH  14  15
ENDBRANCH  13  14
ENDBRANCH  12  13
ENDBRANCH  11  12
ENDBRANCH  10  11
ENDBRANCH   9  10
ENDBRANCH   8   9
ENDBRANCH   7   8
ENDBRANCH   6   7
ENDBRANCH   5   6
ENDBRANCH   4   5
ENDBRANCH   3   4
ENDBRANCH   2   3
TORSDOF 20
ENDMDL
MODEL      379
REMARK 921   NORMALIZED FREE ENERGY PREDICTED BY IDOCK:   -2.55 KCAL/MOL
REMARK 922        TOTAL FREE ENERGY PREDICTED BY IDOCK:   -8.40 KCAL/MOL
REMARK 923 INTER-LIGAND FREE ENERGY PREDICTED BY IDOCK:   -6.38 KCAL/MOL
REMARK 924 INTRA-LIGAND FREE ENERGY PREDICTED BY IDOCK:   -2.03 KCAL/MOL
REMARK 927      BINDING AFFINITY PREDICTED BY RF-SCORE:    0.00 PKD
ROOT
HETATM    1  C   UNL     1     -10.126   5.976  69.418  1.00  0.00    -0.243 C  
HETATM    2  C   UNL     1     -10.149   5.032  70.608  1.00  0.00    -0.313 C  
ENDROOT
BRANCH   2   3
HETATM    3  C   UNL     1     -10.228   5.805  71.921  1.00  0.00    -0.246 C  
BRANCH   3   4
HETATM    4  C   UNL     1      -9.455   7.118  71.834  1.00  0.00    -0.157 C  
BRANCH   4   5
HETATM    5  C   UNL     1     -10.315   8.284  72.314  1.00  0.00    -0.386 C  
BRANCH   5   6
HETATM    6  C   UNL     1     -11.771   7.857  72.468  1.00  0.00    -0.423 C  
BRANCH   6   7
HETATM    7  C   UNL     1     -12.693   8.815  71.724  1.00  0.00    -0.408 C  
BRANCH   7   8
HETATM    8  C   UNL     1     -11.906   9.646  70.719  1.00  0.00    -0.378 C  
BRANCH   8   9
HETATM    9  C   UNL     1     -12.775  10.755  70.143  1.00  0.00    -0.232 C  
BRANCH   9  10
HETATM   10  C   UNL     1     -11.999  12.063  70.076  1.00  0.00    -0.400 C  
BRANCH  10  11
HETATM   11  C   UNL     1     -12.203  12.870  71.351  1.00  0.00     0.119 C  
BRANCH  11  12
HETATM   12  C   UNL     1     -13.314  13.894  71.162  1.00  0.00    -0.255 C  
BRANCH  12  13
HETATM   13  C   UNL     1     -12.821  15.287  71.522  1.00  0.00    -0.469 C  
BRANCH  13  14
HETATM   14  C   UNL     1     -11.552  15.622  70.749  1.00  0.00    -0.412 C  
BRANCH  14  15
HETATM   15  C   UNL     1     -11.855  15.777  69.266  1.00  0.00    -0.358 C  
BRANCH  15  16
HETATM   16  C   UNL     1     -10.573  15.703  68.447  1.00  0.00    -0.252 C  
BRANCH  16  17
HETATM   17  C   UNL     1     -10.149  14.253  68.242  1.00  0.00    -0.238 C  
BRANCH  17  18
HETATM   18  C   UNL     1      -8.633  14.147  68.133  1.00  0.00    -0.175 C  
BRANCH  18  19
HETATM   19  C   UNL     1      -7.952  15.217  68.981  1.00  0.00    -0.188 C  
BRANCH  19  20
HETATM   20  C   UNL     1      -6.739  14.641  69.704  1.00  0.00    -0.163 C  
BRANCH  20  21
HETATM   21  C   UNL     1      -6.399  13.251  69.180  1.00  0.00    -0.103 C  
BRANCH  21  22
HETATM   22  C   UNL     1      -5.829  12.369  70.283  1.00  0.00    -0.163 C  
HETATM   23  O   UNL     1      -5.870  13.062  71.523  1.00  0.00    -0.532 OA 
HETATM   24  H   UNL     1      -5.515  12.512  72.211  1.00  0.00     0.000 HD 
ENDBRANCH  21  22
ENDBRANCH  20  21
ENDBRANCH  19  20
ENDBRANCH  18  19
ENDBRANCH  17  18
ENDBRANCH  16  17
ENDBRANCH  15  16
ENDBRANCH  14  15
ENDBRANCH  13  14
ENDBRANCH  12  13
ENDBRANCH  11  12
ENDBRANCH  10  11
ENDBRANCH   9  10
ENDBRANCH   8   9
ENDBRANCH   7   8
ENDBRANCH   6   7
ENDBRANCH   5   6
ENDBRANCH   4   5
ENDBRANCH   3   4
ENDBRANCH   2   3
TORSDOF 20
ENDMDL
MODEL      380
REMARK 921   NORMALIZED FREE ENERGY PREDICTED BY IDOCK:   -2.55 KCAL/MOL
REMARK 922        TOTAL FREE ENERGY PREDICTED BY IDOCK:   -8.39 KCAL/MOL
REMARK 923 INTER-LIGAND FREE ENERGY PREDICTED BY IDOCK:   -6.07 KCAL/MOL
REMARK 924 INTRA-LIGAND FREE ENERGY PREDICTED BY IDOCK:   -2.32 KCAL/MOL
REMARK 927      BINDING AFFINITY PREDICTED BY RF-SCORE:    0.00 PKD
ROOT
HETATM    1  C   UNL     1      -9.748   6.293  66.527  1.00  0.00    -0.180 C  
HETATM    2  C   UNL     1     -11.006   6.678  67.287  1.00  0.00    -0.456 C  
ENDROOT
BRANCH   2   3
HETATM    3  C   UNL     1     -10.993   6.099  68.699  1.00  0.00    -0.415 C  
BRANCH   3   4
HETATM    4  C   UNL     1     -11.593   7.081  69.702  1.00  0.00    -0.058 C  
BRANCH   4   5
HETATM    5  C   UNL     1     -11.047   6.824  71.103  1.00  0.00    -0.313 C  
BRANCH   5   6
HETATM    6  C   UNL     1     -10.100   7.941  71.529  1.00  0.00    -0.221 C  
BRANCH   6   7
HETATM    7  C   UNL     1     -10.275   9.165  70.638  1.00  0.00    -0.306 C  
BRANCH   7   8
HETATM    8  C   UNL     1      -8.923   9.771  70.287  1.00  0.00    -0.198 C  
BRANCH   8   9
HETATM    9  C   UNL     1      -8.564   9.478  68.837  1.00  0.00    -0.128 C  
BRANCH   9  10
HETATM   10  C   UNL     1      -9.639  10.014  67.901  1.00  0.00    -0.163 C  
BRANCH  10  11
HETATM   11  C   UNL     1      -9.102  10.127  66.481  1.00  0.00    -0.166 C  
BRANCH  11  12
HETATM   12  C   UNL     1     -10.244  10.317  65.493  1.00  0.00    -0.308 C  
BRANCH  12  13
HETATM   13  C   UNL     1     -10.043  11.589  64.685  1.00  0.00    -0.318 C  
BRANCH  13  14
HETATM   14  C   UNL     1     -11.335  11.988  63.984  1.00  0.00    -0.478 C  
BRANCH  14  15
HETATM   15  C   UNL     1     -12.054  13.076  64.769  1.00  0.00    -0.465 C  
BRANCH  15  16
HETATM   16  C   UNL     1     -11.126  13.687  65.811  1.00  0.00    -0.292 C  
BRANCH  16  17
HETATM   17  C   UNL     1     -11.702  13.515  67.212  1.00  0.00    -0.423 C  
BRANCH  17  18
HETATM   18  C   UNL     1     -11.083  14.523  68.174  1.00  0.00    -0.280 C  
BRANCH  18  19
HETATM   19  C   UNL     1     -10.833  13.887  69.537  1.00  0.00    -0.045 C  
BRANCH  19  20
HETATM   20  C   UNL     1     -11.831  14.407  70.566  1.00  0.00    -0.367 C  
BRANCH  20  21
HETATM   21  C   UNL     1     -11.134  15.259  71.621  1.00  0.00    -0.251 C  
BRANCH  21  22
HETATM   22  C   UNL     1     -11.816  15.127  72.977  1.00  0.00    -0.335 C  
HETATM   23  O   UNL     1     -12.302  13.802  73.143  1.00  0.00     0.097 OA 
HETATM   24  H   UNL     1     -12.727  13.719  73.989  1.00  0.00     0.000 HD 
ENDBRANCH  21  22
ENDBRANCH  20  21
ENDBRANCH  19  20
ENDBRANCH  18  19
ENDBRANCH  17  18
ENDBRANCH  16  17
ENDBRANCH  15  16
ENDBRANCH  14  15
ENDBRANCH  13  14
ENDBRANCH  12  13
ENDBRANCH  11  12
ENDBRANCH  10  11
ENDBRANCH   9  10
ENDBRANCH   8   9
ENDBRANCH   7   8
ENDBRANCH   6   7
ENDBRANCH   5   6
ENDBRANCH   4   5
ENDBRANCH   3   4
ENDBRANCH   2   3
TORSDOF 20
ENDMDL
MODEL      381
REMARK 921   NORMALIZED FREE ENERGY PREDICTED BY IDOCK:   -2.55 KCAL/MOL
REMARK 922        TOTAL FREE ENERGY PREDICTED BY IDOCK:   -8.39 KCAL/MOL
REMARK 923 INTER-LIGAND FREE ENERGY PREDICTED BY IDOCK:   -6.97 KCAL/MOL
REMARK 924 INTRA-LIGAND FREE ENERGY PREDICTED BY IDOCK:   -1.42 KCAL/MOL
REMARK 927      BINDING AFFINITY PREDICTED BY RF-SCORE:    0.00 PKD
ROOT
HETATM    1  C   UNL     1      -7.966  15.530  69.014  1.00  0.00    -0.205 C  
HETATM    2  C   UNL     1      -8.759  16.719  68.501  1.00  0.00    -0.245 C  
ENDROOT
BRANCH   2   3
HETATM    3  C   UNL     1     -10.260  16.477  68.632  1.00  0.00    -0.264 C  
BRANCH   3   4
HETATM    4  C   UNL     1     -10.603  15.879  69.993  1.00  0.00    -0.320 C  
BRANCH   4   5
HETATM    5  C   UNL     1     -12.097  15.585  70.093  1.00  0.00    -0.404 C  
BRANCH   5   6
HETATM    6  C   UNL     1     -12.344  14.100  70.334  1.00  0.00    -0.428 C  
BRANCH   6   7
HETATM    7  C   UNL     1     -11.823  13.272  69.166  1.00  0.00    -0.378 C  
BRANCH   7   8
HETATM    8  C   UNL     1     -12.019  11.785  69.432  1.00  0.00    -0.361 C  
BRANCH   8   9
HETATM    9  C   UNL     1     -12.447  11.551  70.875  1.00  0.00    -0.464 C  
BRANCH   9  10
HETATM   10  C   UNL     1     -13.135  10.201  71.016  1.00  0.00    -0.458 C  
BRANCH  10  11
HETATM   11  C   UNL     1     -12.511   9.399  72.150  1.00  0.00    -0.396 C  
BRANCH  11  12
HETATM   12  C   UNL     1     -11.086   8.999  71.798  1.00  0.00    -0.444 C  
BRANCH  12  13
HETATM   13  C   UNL     1     -10.566   7.960  72.779  1.00  0.00    -0.418 C  
BRANCH  13  14
HETATM   14  C   UNL     1     -10.750   6.555  72.220  1.00  0.00    -0.252 C  
BRANCH  14  15
HETATM   15  C   UNL     1      -9.409   5.961  71.818  1.00  0.00    -0.161 C  
BRANCH  15  16
HETATM   16  C   UNL     1      -9.449   5.472  70.376  1.00  0.00    -0.209 C  
BRANCH  16  17
HETATM   17  C   UNL     1     -10.207   6.458  69.495  1.00  0.00    -0.228 C  
BRANCH  17  18
HETATM   18  C   UNL     1     -10.775   5.755  68.268  1.00  0.00    -0.285 C  
BRANCH  18  19
HETATM   19  C   UNL     1     -10.052   6.205  67.002  1.00  0.00    -0.222 C  
BRANCH  19  20
HETATM   20  C   UNL     1     -10.495   7.607  66.598  1.00  0.00    -0.198 C  
BRANCH  20  21
HETATM   21  C   UNL     1      -9.313   8.430  66.098  1.00  0.00    -0.267 C  
BRANCH  21  22
HETATM   22  C   UNL     1      -9.575   9.923  66.251  1.00  0.00    -0.209 C  
HETATM   23  O   UNL     1      -8.416  10.656  65.876  1.00  0.00    -0.157 OA 
HETATM   24  H   UNL     1      -8.580  11.587  65.971  1.00  0.00     0.000 HD 
ENDBRANCH  21  22
ENDBRANCH  20  21
ENDBRANCH  19  20
ENDBRANCH  18  19
ENDBRANCH  17  18
ENDBRANCH  16  17
ENDBRANCH  15  16
ENDBRANCH  14  15
ENDBRANCH  13  14
ENDBRANCH  12  13
ENDBRANCH  11  12
ENDBRANCH  10  11
ENDBRANCH   9  10
ENDBRANCH   8   9
ENDBRANCH   7   8
ENDBRANCH   6   7
ENDBRANCH   5   6
ENDBRANCH   4   5
ENDBRANCH   3   4
ENDBRANCH   2   3
TORSDOF 20
ENDMDL
MODEL      382
REMARK 921   NORMALIZED FREE ENERGY PREDICTED BY IDOCK:   -2.54 KCAL/MOL
REMARK 922        TOTAL FREE ENERGY PREDICTED BY IDOCK:   -8.39 KCAL/MOL
REMARK 923 INTER-LIGAND FREE ENERGY PREDICTED BY IDOCK:   -5.70 KCAL/MOL
REMARK 924 INTRA-LIGAND FREE ENERGY PREDICTED BY IDOCK:   -2.69 KCAL/MOL
REMARK 927      BINDING AFFINITY PREDICTED BY RF-SCORE:    0.00 PKD
ROOT
HETATM    1  C   UNL     1      -7.109   7.169  67.121  1.00  0.00    -0.087 C  
HETATM    2  C   UNL     1      -6.997   6.112  68.206  1.00  0.00    -0.080 C  
ENDROOT
BRANCH   2   3
HETATM    3  C   UNL     1      -6.460   4.800  67.642  1.00  0.00    -0.045 C  
BRANCH   3   4
HETATM    4  C   UNL     1      -7.333   3.621  68.063  1.00  0.00    -0.061 C  
BRANCH   4   5
HETATM    5  C   UNL     1      -8.067   3.036  66.860  1.00  0.00    -0.080 C  
BRANCH   5   6
HETATM    6  C   UNL     1      -7.593   3.688  65.565  1.00  0.00    -0.078 C  
BRANCH   6   7
HETATM    7  C   UNL     1      -8.718   4.489  64.923  1.00  0.00    -0.140 C  
BRANCH   7   8
HETATM    8  C   UNL     1     -10.000   4.360  65.736  1.00  0.00    -0.251 C  
BRANCH   8   9
HETATM    9  C   UNL     1     -10.386   5.702  66.344  1.00  0.00    -0.241 C  
BRANCH   9  10
HETATM   10  C   UNL     1     -10.754   5.537  67.812  1.00  0.00    -0.186 C  
BRANCH  10  11
HETATM   11  C   UNL     1     -10.716   6.881  68.526  1.00  0.00    -0.252 C  
BRANCH  11  12
HETATM   12  C   UNL     1     -10.683   6.683  70.035  1.00  0.00    -0.287 C  
BRANCH  12  13
HETATM   13  C   UNL     1      -9.768   7.708  70.687  1.00  0.00    -0.174 C  
BRANCH  13  14
HETATM   14  C   UNL     1     -10.423   8.298  71.928  1.00  0.00    -0.342 C  
BRANCH  14  15
HETATM   15  C   UNL     1     -11.858   8.707  71.631  1.00  0.00    -0.389 C  
BRANCH  15  16
HETATM   16  C   UNL     1     -11.915  10.151  71.149  1.00  0.00    -0.480 C  
BRANCH  16  17
HETATM   17  C   UNL     1     -12.412  10.218  69.710  1.00  0.00     0.032 C  
BRANCH  17  18
HETATM   18  C   UNL     1     -11.495  11.095  68.865  1.00  0.00    -0.363 C  
BRANCH  18  19
HETATM   19  C   UNL     1     -11.645  12.563  69.247  1.00  0.00    -0.378 C  
BRANCH  19  20
HETATM   20  C   UNL     1     -12.032  13.400  68.033  1.00  0.00    -0.357 C  
BRANCH  20  21
HETATM   21  C   UNL     1     -11.714  12.663  66.737  1.00  0.00    -0.460 C  
BRANCH  21  22
HETATM   22  C   UNL     1     -12.240  13.422  65.526  1.00  0.00    -0.455 C  
HETATM   23  O   UNL     1     -13.301  14.282  65.920  1.00  0.00    -0.545 OA 
HETATM   24  H   UNL     1     -13.629  14.755  65.165  1.00  0.00     0.000 HD 
ENDBRANCH  21  22
ENDBRANCH  20  21
ENDBRANCH  19  20
ENDBRANCH  18  19
ENDBRANCH  17  18
ENDBRANCH  16  17
ENDBRANCH  15  16
ENDBRANCH  14  15
ENDBRANCH  13  14
ENDBRANCH  12  13
ENDBRANCH  11  12
ENDBRANCH  10  11
ENDBRANCH   9  10
ENDBRANCH   8   9
ENDBRANCH   7   8
ENDBRANCH   6   7
ENDBRANCH   5   6
ENDBRANCH   4   5
ENDBRANCH   3   4
ENDBRANCH   2   3
TORSDOF 20
ENDMDL
MODEL      383
REMARK 921   NORMALIZED FREE ENERGY PREDICTED BY IDOCK:   -2.54 KCAL/MOL
REMARK 922        TOTAL FREE ENERGY PREDICTED BY IDOCK:   -8.37 KCAL/MOL
REMARK 923 INTER-LIGAND FREE ENERGY PREDICTED BY IDOCK:   -4.80 KCAL/MOL
REMARK 924 INTRA-LIGAND FREE ENERGY PREDICTED BY IDOCK:   -3.57 KCAL/MOL
REMARK 927      BINDING AFFINITY PREDICTED BY RF-SCORE:    0.00 PKD
ROOT
HETATM    1  C   UNL     1     -13.536   9.881  71.327  1.00  0.00    -0.353 C  
HETATM    2  C   UNL     1     -12.567   9.032  72.133  1.00  0.00    -0.461 C  
ENDROOT
BRANCH   2   3
HETATM    3  C   UNL     1     -12.629   7.569  71.705  1.00  0.00    -0.363 C  
BRANCH   3   4
HETATM    4  C   UNL     1     -11.486   6.767  72.319  1.00  0.00    -0.314 C  
BRANCH   4   5
HETATM    5  C   UNL     1     -10.757   7.589  73.378  1.00  0.00    -0.387 C  
BRANCH   5   6
HETATM    6  C   UNL     1      -9.292   7.173  73.474  1.00  0.00    -0.231 C  
BRANCH   6   7
HETATM    7  C   UNL     1      -8.623   7.238  72.107  1.00  0.00    -0.126 C  
BRANCH   7   8
HETATM    8  C   UNL     1      -7.449   6.271  72.038  1.00  0.00    -0.094 C  
BRANCH   8   9
HETATM    9  C   UNL     1      -7.688   5.212  70.969  1.00  0.00    -0.095 C  
BRANCH   9  10
HETATM   10  C   UNL     1      -8.902   4.363  71.320  1.00  0.00    -0.152 C  
BRANCH  10  11
HETATM   11  C   UNL     1      -9.776   4.149  70.092  1.00  0.00    -0.278 C  
BRANCH  11  12
HETATM   12  C   UNL     1      -9.057   3.280  69.070  1.00  0.00    -0.207 C  
BRANCH  12  13
HETATM   13  C   UNL     1      -9.358   3.759  67.659  1.00  0.00    -0.240 C  
BRANCH  13  14
HETATM   14  C   UNL     1      -9.063   5.247  67.523  1.00  0.00    -0.110 C  
BRANCH  14  15
HETATM   15  C   UNL     1     -10.221   5.961  66.844  1.00  0.00    -0.262 C  
BRANCH  15  16
HETATM   16  C   UNL     1     -11.175   6.540  67.881  1.00  0.00    -0.257 C  
BRANCH  16  17
HETATM   17  C   UNL     1     -10.413   7.357  68.917  1.00  0.00    -0.213 C  
BRANCH  17  18
HETATM   18  C   UNL     1     -10.501   8.845  68.599  1.00  0.00    -0.223 C  
BRANCH  18  19
HETATM   19  C   UNL     1      -9.437   9.627  69.362  1.00  0.00    -0.201 C  
BRANCH  19  20
HETATM   20  C   UNL     1      -8.136   9.683  68.568  1.00  0.00    -0.104 C  
BRANCH  20  21
HETATM   21  C   UNL     1      -7.108   8.712  69.135  1.00  0.00    -0.063 C  
BRANCH  21  22
HETATM   22  C   UNL     1      -6.217   8.146  68.037  1.00  0.00    -0.047 C  
HETATM   23  O   UNL     1      -5.812   6.827  68.378  1.00  0.00    -0.016 OA 
HETATM   24  H   UNL     1      -5.257   6.474  67.692  1.00  0.00     0.000 HD 
ENDBRANCH  21  22
ENDBRANCH  20  21
ENDBRANCH  19  20
ENDBRANCH  18  19
ENDBRANCH  17  18
ENDBRANCH  16  17
ENDBRANCH  15  16
ENDBRANCH  14  15
ENDBRANCH  13  14
ENDBRANCH  12  13
ENDBRANCH  11  12
ENDBRANCH  10  11
ENDBRANCH   9  10
ENDBRANCH   8   9
ENDBRANCH   7   8
ENDBRANCH   6   7
ENDBRANCH   5   6
ENDBRANCH   4   5
ENDBRANCH   3   4
ENDBRANCH   2   3
TORSDOF 20
ENDMDL
MODEL      384
REMARK 921   NORMALIZED FREE ENERGY PREDICTED BY IDOCK:   -2.53 KCAL/MOL
REMARK 922        TOTAL FREE ENERGY PREDICTED BY IDOCK:   -8.36 KCAL/MOL
REMARK 923 INTER-LIGAND FREE ENERGY PREDICTED BY IDOCK:   -6.00 KCAL/MOL
REMARK 924 INTRA-LIGAND FREE ENERGY PREDICTED BY IDOCK:   -2.36 KCAL/MOL
REMARK 927      BINDING AFFINITY PREDICTED BY RF-SCORE:    0.00 PKD
ROOT
HETATM    1  C   UNL     1      -6.964  14.892  69.638  1.00  0.00    -0.184 C  
HETATM    2  C   UNL     1      -8.208  15.425  68.948  1.00  0.00    -0.192 C  
ENDROOT
BRANCH   2   3
HETATM    3  C   UNL     1      -8.172  15.137  67.450  1.00  0.00    -0.215 C  
BRANCH   3   4
HETATM    4  C   UNL     1      -8.734  13.752  67.143  1.00  0.00    -0.231 C  
BRANCH   4   5
HETATM    5  C   UNL     1      -9.878  13.410  68.093  1.00  0.00    -0.234 C  
BRANCH   5   6
HETATM    6  C   UNL     1      -9.880  11.922  68.426  1.00  0.00    -0.201 C  
BRANCH   6   7
HETATM    7  C   UNL     1     -11.271  11.468  68.851  1.00  0.00    -0.308 C  
BRANCH   7   8
HETATM    8  C   UNL     1     -11.878  12.454  69.839  1.00  0.00    -0.376 C  
BRANCH   8   9
HETATM    9  C   UNL     1     -12.446  11.722  71.048  1.00  0.00    -0.411 C  
BRANCH   9  10
HETATM   10  C   UNL     1     -12.503  10.224  70.787  1.00  0.00    -0.439 C  
BRANCH  10  11
HETATM   11  C   UNL     1     -12.840   9.471  72.067  1.00  0.00    -0.499 C  
BRANCH  11  12
HETATM   12  C   UNL     1     -11.853   8.335  72.293  1.00  0.00    -0.451 C  
BRANCH  12  13
HETATM   13  C   UNL     1     -10.711   8.415  71.292  1.00  0.00    -0.286 C  
BRANCH  13  14
HETATM   14  C   UNL     1     -10.459   7.053  70.657  1.00  0.00    -0.229 C  
BRANCH  14  15
HETATM   15  C   UNL     1     -11.230   5.969  71.395  1.00  0.00    -0.325 C  
BRANCH  15  16
HETATM   16  C   UNL     1     -10.588   4.607  71.170  1.00  0.00     0.050 C  
BRANCH  16  17
HETATM   17  C   UNL     1      -9.929   4.104  72.449  1.00  0.00    -0.229 C  
BRANCH  17  18
HETATM   18  C   UNL     1     -10.391   4.921  73.649  1.00  0.00    -0.259 C  
BRANCH  18  19
HETATM   19  C   UNL     1      -9.199   5.479  74.417  1.00  0.00    -0.124 C  
BRANCH  19  20
HETATM   20  C   UNL     1      -7.967   5.555  73.521  1.00  0.00    -0.113 C  
BRANCH  20  21
HETATM   21  C   UNL     1      -7.597   7.002  73.221  1.00  0.00    -0.086 C  
BRANCH  21  22
HETATM   22  C   UNL     1      -8.124   7.942  74.297  1.00  0.00    -0.245 C  
HETATM   23  O   UNL     1      -7.190   8.991  74.520  1.00  0.00    -0.414 OA 
HETATM   24  H   UNL     1      -7.519   9.577  75.191  1.00  0.00     0.000 HD 
ENDBRANCH  21  22
ENDBRANCH  20  21
ENDBRANCH  19  20
ENDBRANCH  18  19
ENDBRANCH  17  18
ENDBRANCH  16  17
ENDBRANCH  15  16
ENDBRANCH  14  15
ENDBRANCH  13  14
ENDBRANCH  12  13
ENDBRANCH  11  12
ENDBRANCH  10  11
ENDBRANCH   9  10
ENDBRANCH   8   9
ENDBRANCH   7   8
ENDBRANCH   6   7
ENDBRANCH   5   6
ENDBRANCH   4   5
ENDBRANCH   3   4
ENDBRANCH   2   3
TORSDOF 20
ENDMDL
MODEL      385
REMARK 921   NORMALIZED FREE ENERGY PREDICTED BY IDOCK:   -2.53 KCAL/MOL
REMARK 922        TOTAL FREE ENERGY PREDICTED BY IDOCK:   -8.36 KCAL/MOL
REMARK 923 INTER-LIGAND FREE ENERGY PREDICTED BY IDOCK:   -5.36 KCAL/MOL
REMARK 924 INTRA-LIGAND FREE ENERGY PREDICTED BY IDOCK:   -3.00 KCAL/MOL
REMARK 927      BINDING AFFINITY PREDICTED BY RF-SCORE:    0.00 PKD
ROOT
HETATM    1  C   UNL     1     -10.435   4.977  66.301  1.00  0.00    -0.352 C  
HETATM    2  C   UNL     1      -9.751   4.948  67.657  1.00  0.00    -0.197 C  
ENDROOT
BRANCH   2   3
HETATM    3  C   UNL     1      -9.064   6.277  67.955  1.00  0.00    -0.112 C  
BRANCH   3   4
HETATM    4  C   UNL     1      -9.712   7.418  67.176  1.00  0.00    -0.223 C  
BRANCH   4   5
HETATM    5  C   UNL     1     -10.597   8.261  68.089  1.00  0.00    -0.169 C  
BRANCH   5   6
HETATM    6  C   UNL     1      -9.973   8.401  69.473  1.00  0.00    -0.190 C  
BRANCH   6   7
HETATM    7  C   UNL     1     -10.129   9.824  69.993  1.00  0.00    -0.301 C  
BRANCH   7   8
HETATM    8  C   UNL     1     -11.529  10.040  70.553  1.00  0.00    -0.407 C  
BRANCH   8   9
HETATM    9  C   UNL     1     -12.289  11.063  69.719  1.00  0.00    -0.331 C  
BRANCH   9  10
HETATM   10  C   UNL     1     -11.356  12.171  69.252  1.00  0.00    -0.327 C  
BRANCH  10  11
HETATM   11  C   UNL     1     -12.021  13.008  68.168  1.00  0.00    -0.322 C  
BRANCH  11  12
HETATM   12  C   UNL     1     -11.165  13.030  66.910  1.00  0.00    -0.331 C  
BRANCH  12  13
HETATM   13  C   UNL     1     -10.776  11.617  66.506  1.00  0.00    -0.313 C  
BRANCH  13  14
HETATM   14  C   UNL     1      -9.351  11.586  65.969  1.00  0.00    -0.239 C  
BRANCH  14  15
HETATM   15  C   UNL     1      -8.368  11.262  67.084  1.00  0.00    -0.151 C  
BRANCH  15  16
HETATM   16  C   UNL     1      -7.272  12.318  67.156  1.00  0.00    -0.100 C  
BRANCH  16  17
HETATM   17  C   UNL     1      -7.017  12.730  68.601  1.00  0.00    -0.101 C  
BRANCH  17  18
HETATM   18  C   UNL     1      -6.946  14.248  68.722  1.00  0.00    -0.102 C  
BRANCH  18  19
HETATM   19  C   UNL     1      -8.089  14.906  67.957  1.00  0.00    -0.137 C  
BRANCH  19  20
HETATM   20  C   UNL     1      -8.600  16.135  68.703  1.00  0.00    -0.210 C  
BRANCH  20  21
HETATM   21  C   UNL     1     -10.101  16.040  68.948  1.00  0.00    -0.229 C  
BRANCH  21  22
HETATM   22  C   UNL     1     -10.751  17.417  68.937  1.00  0.00    -0.139 C  
HETATM   23  O   UNL     1     -10.910  17.863  67.597  1.00  0.00    -0.375 OA 
HETATM   24  H   UNL     1     -11.315  18.723  67.590  1.00  0.00     0.000 HD 
ENDBRANCH  21  22
ENDBRANCH  20  21
ENDBRANCH  19  20
ENDBRANCH  18  19
ENDBRANCH  17  18
ENDBRANCH  16  17
ENDBRANCH  15  16
ENDBRANCH  14  15
ENDBRANCH  13  14
ENDBRANCH  12  13
ENDBRANCH  11  12
ENDBRANCH  10  11
ENDBRANCH   9  10
ENDBRANCH   8   9
ENDBRANCH   7   8
ENDBRANCH   6   7
ENDBRANCH   5   6
ENDBRANCH   4   5
ENDBRANCH   3   4
ENDBRANCH   2   3
TORSDOF 20
ENDMDL
MODEL      386
REMARK 921   NORMALIZED FREE ENERGY PREDICTED BY IDOCK:   -2.49 KCAL/MOL
REMARK 922        TOTAL FREE ENERGY PREDICTED BY IDOCK:   -8.28 KCAL/MOL
REMARK 923 INTER-LIGAND FREE ENERGY PREDICTED BY IDOCK:   -5.43 KCAL/MOL
REMARK 924 INTRA-LIGAND FREE ENERGY PREDICTED BY IDOCK:   -2.85 KCAL/MOL
REMARK 927      BINDING AFFINITY PREDICTED BY RF-SCORE:    0.00 PKD
ROOT
HETATM    1  C   UNL     1     -13.465   9.485  71.551  1.00  0.00    -0.444 C  
HETATM    2  C   UNL     1     -12.582   8.489  72.283  1.00  0.00    -0.438 C  
ENDROOT
BRANCH   2   3
HETATM    3  C   UNL     1     -12.523   7.158  71.541  1.00  0.00    -0.418 C  
BRANCH   3   4
HETATM    4  C   UNL     1     -11.636   6.157  72.276  1.00  0.00    -0.362 C  
BRANCH   4   5
HETATM    5  C   UNL     1     -10.734   6.869  73.279  1.00  0.00    -0.349 C  
BRANCH   5   6
HETATM    6  C   UNL     1      -9.486   6.042  73.570  1.00  0.00    -0.139 C  
BRANCH   6   7
HETATM    7  C   UNL     1      -8.588   5.973  72.341  1.00  0.00    -0.120 C  
BRANCH   7   8
HETATM    8  C   UNL     1      -7.793   4.674  72.329  1.00  0.00    -0.093 C  
BRANCH   8   9
HETATM    9  C   UNL     1      -7.928   3.975  70.983  1.00  0.00    -0.063 C  
BRANCH   9  10
HETATM   10  C   UNL     1      -9.391   3.698  70.668  1.00  0.00    -0.228 C  
BRANCH  10  11
HETATM   11  C   UNL     1      -9.851   4.536  69.484  1.00  0.00    -0.277 C  
BRANCH  11  12
HETATM   12  C   UNL     1      -9.096   4.139  68.223  1.00  0.00    -0.176 C  
BRANCH  12  13
HETATM   13  C   UNL     1      -8.974   5.325  67.280  1.00  0.00    -0.111 C  
BRANCH  13  14
HETATM   14  C   UNL     1      -8.272   6.488  67.970  1.00  0.00    -0.116 C  
BRANCH  14  15
HETATM   15  C   UNL     1      -8.943   7.805  67.611  1.00  0.00    -0.128 C  
BRANCH  15  16
HETATM   16  C   UNL     1     -10.139   8.061  68.518  1.00  0.00    -0.218 C  
BRANCH  16  17
HETATM   17  C   UNL     1      -9.734   8.910  69.717  1.00  0.00    -0.180 C  
BRANCH  17  18
HETATM   18  C   UNL     1     -10.130  10.366  69.503  1.00  0.00    -0.246 C  
BRANCH  18  19
HETATM   19  C   UNL     1      -8.959  11.170  68.948  1.00  0.00    -0.089 C  
BRANCH  19  20
HETATM   20  C   UNL     1      -9.456  12.307  68.061  1.00  0.00    -0.206 C  
BRANCH  20  21
HETATM   21  C   UNL     1     -10.061  11.768  66.770  1.00  0.00    -0.235 C  
BRANCH  21  22
HETATM   22  C   UNL     1     -10.962  12.802  66.108  1.00  0.00    -0.283 C  
HETATM   23  O   UNL     1     -12.315  12.564  66.473  1.00  0.00    -0.507 OA 
HETATM   24  H   UNL     1     -12.878  13.209  66.060  1.00  0.00     0.000 HD 
ENDBRANCH  21  22
ENDBRANCH  20  21
ENDBRANCH  19  20
ENDBRANCH  18  19
ENDBRANCH  17  18
ENDBRANCH  16  17
ENDBRANCH  15  16
ENDBRANCH  14  15
ENDBRANCH  13  14
ENDBRANCH  12  13
ENDBRANCH  11  12
ENDBRANCH  10  11
ENDBRANCH   9  10
ENDBRANCH   8   9
ENDBRANCH   7   8
ENDBRANCH   6   7
ENDBRANCH   5   6
ENDBRANCH   4   5
ENDBRANCH   3   4
ENDBRANCH   2   3
TORSDOF 20
ENDMDL
MODEL      387
REMARK 921   NORMALIZED FREE ENERGY PREDICTED BY IDOCK:   -2.49 KCAL/MOL
REMARK 922        TOTAL FREE ENERGY PREDICTED BY IDOCK:   -8.28 KCAL/MOL
REMARK 923 INTER-LIGAND FREE ENERGY PREDICTED BY IDOCK:   -6.07 KCAL/MOL
REMARK 924 INTRA-LIGAND FREE ENERGY PREDICTED BY IDOCK:   -2.21 KCAL/MOL
REMARK 927      BINDING AFFINITY PREDICTED BY RF-SCORE:    0.00 PKD
ROOT
HETATM    1  C   UNL     1     -10.190  17.881  66.345  1.00  0.00    -0.372 C  
HETATM    2  C   UNL     1     -10.746  17.537  67.716  1.00  0.00    -0.333 C  
ENDROOT
BRANCH   2   3
HETATM    3  C   UNL     1      -9.964  16.393  68.355  1.00  0.00    -0.238 C  
BRANCH   3   4
HETATM    4  C   UNL     1     -10.042  15.129  67.502  1.00  0.00    -0.232 C  
BRANCH   4   5
HETATM    5  C   UNL     1     -11.148  14.206  68.004  1.00  0.00    -0.285 C  
BRANCH   5   6
HETATM    6  C   UNL     1     -12.160  13.921  66.900  1.00  0.00    -0.467 C  
BRANCH   6   7
HETATM    7  C   UNL     1     -11.531  14.126  65.527  1.00  0.00    -0.324 C  
BRANCH   7   8
HETATM    8  C   UNL     1     -11.553  12.830  64.728  1.00  0.00    -0.368 C  
BRANCH   8   9
HETATM    9  C   UNL     1     -10.141  12.294  64.537  1.00  0.00    -0.280 C  
BRANCH   9  10
HETATM   10  C   UNL     1     -10.080  10.812  64.881  1.00  0.00    -0.387 C  
BRANCH  10  11
HETATM   11  C   UNL     1     -10.193  10.609  66.385  1.00  0.00    -0.291 C  
BRANCH  11  12
HETATM   12  C   UNL     1      -9.096   9.677  66.881  1.00  0.00    -0.160 C  
BRANCH  12  13
HETATM   13  C   UNL     1      -9.276   8.285  66.298  1.00  0.00    -0.258 C  
BRANCH  13  14
HETATM   14  C   UNL     1     -10.602   7.684  66.746  1.00  0.00    -0.256 C  
BRANCH  14  15
HETATM   15  C   UNL     1     -10.404   6.258  67.237  1.00  0.00    -0.270 C  
BRANCH  15  16
HETATM   16  C   UNL     1     -10.108   6.242  68.731  1.00  0.00    -0.191 C  
BRANCH  16  17
HETATM   17  C   UNL     1     -10.973   7.262  69.461  1.00  0.00    -0.182 C  
BRANCH  17  18
HETATM   18  C   UNL     1     -10.506   7.429  70.902  1.00  0.00    -0.225 C  
BRANCH  18  19
HETATM   19  C   UNL     1      -8.984   7.488  70.975  1.00  0.00    -0.147 C  
BRANCH  19  20
HETATM   20  C   UNL     1      -8.516   8.884  71.372  1.00  0.00    -0.216 C  
BRANCH  20  21
HETATM   21  C   UNL     1      -7.236   9.261  70.635  1.00  0.00    -0.120 C  
BRANCH  21  22
HETATM   22  C   UNL     1      -7.328  10.664  70.049  1.00  0.00     0.026 C  
HETATM   23  O   UNL     1      -6.495  11.549  70.787  1.00  0.00    -0.490 OA 
HETATM   24  H   UNL     1      -6.553  12.424  70.422  1.00  0.00     0.000 HD 
ENDBRANCH  21  22
ENDBRANCH  20  21
ENDBRANCH  19  20
ENDBRANCH  18  19
ENDBRANCH  17  18
ENDBRANCH  16  17
ENDBRANCH  15  16
ENDBRANCH  14  15
ENDBRANCH  13  14
ENDBRANCH  12  13
ENDBRANCH  11  12
ENDBRANCH  10  11
ENDBRANCH   9  10
ENDBRANCH   8   9
ENDBRANCH   7   8
ENDBRANCH   6   7
ENDBRANCH   5   6
ENDBRANCH   4   5
ENDBRANCH   3   4
ENDBRANCH   2   3
TORSDOF 20
ENDMDL
MODEL      388
REMARK 921   NORMALIZED FREE ENERGY PREDICTED BY IDOCK:   -2.49 KCAL/MOL
REMARK 922        TOTAL FREE ENERGY PREDICTED BY IDOCK:   -8.27 KCAL/MOL
REMARK 923 INTER-LIGAND FREE ENERGY PREDICTED BY IDOCK:   -5.74 KCAL/MOL
REMARK 924 INTRA-LIGAND FREE ENERGY PREDICTED BY IDOCK:   -2.53 KCAL/MOL
REMARK 927      BINDING AFFINITY PREDICTED BY RF-SCORE:    0.00 PKD
ROOT
HETATM    1  C   UNL     1     -12.150  11.264  70.461  1.00  0.00    -0.481 C  
HETATM    2  C   UNL     1     -13.231  10.338  70.990  1.00  0.00    -0.399 C  
ENDROOT
BRANCH   2   3
HETATM    3  C   UNL     1     -12.624   9.154  71.738  1.00  0.00    -0.446 C  
BRANCH   3   4
HETATM    4  C   UNL     1     -11.100   9.169  71.646  1.00  0.00    -0.445 C  
BRANCH   4   5
HETATM    5  C   UNL     1     -10.589   7.913  70.947  1.00  0.00    -0.227 C  
BRANCH   5   6
HETATM    6  C   UNL     1      -9.344   8.219  70.122  1.00  0.00    -0.159 C  
BRANCH   6   7
HETATM    7  C   UNL     1      -9.288   9.698  69.761  1.00  0.00    -0.238 C  
BRANCH   7   8
HETATM    8  C   UNL     1      -9.318   9.881  68.249  1.00  0.00    -0.136 C  
BRANCH   8   9
HETATM    9  C   UNL     1      -8.284   8.986  67.579  1.00  0.00    -0.109 C  
BRANCH   9  10
HETATM   10  C   UNL     1      -7.632   9.707  66.407  1.00  0.00    -0.101 C  
BRANCH  10  11
HETATM   11  C   UNL     1      -6.204  10.107  66.754  1.00  0.00    -0.068 C  
BRANCH  11  12
HETATM   12  C   UNL     1      -6.131  11.591  67.083  1.00  0.00    -0.115 C  
BRANCH  12  13
HETATM   13  C   UNL     1      -5.743  11.796  68.538  1.00  0.00    -0.048 C  
BRANCH  13  14
HETATM   14  C   UNL     1      -6.877  12.462  69.306  1.00  0.00    -0.028 C  
BRANCH  14  15
HETATM   15  C   UNL     1      -6.676  13.970  69.354  1.00  0.00    -0.107 C  
BRANCH  15  16
HETATM   16  C   UNL     1      -7.990  14.694  69.091  1.00  0.00    -0.097 C  
BRANCH  16  17
HETATM   17  C   UNL     1      -8.444  14.478  67.652  1.00  0.00    -0.189 C  
BRANCH  17  18
HETATM   18  C   UNL     1      -9.961  14.348  67.582  1.00  0.00    -0.224 C  
BRANCH  18  19
HETATM   19  C   UNL     1     -10.366  12.929  67.197  1.00  0.00    -0.239 C  
BRANCH  19  20
HETATM   20  C   UNL     1     -11.002  12.906  65.811  1.00  0.00    -0.303 C  
BRANCH  20  21
HETATM   21  C   UNL     1     -12.215  13.825  65.751  1.00  0.00    -0.495 C  
BRANCH  21  22
HETATM   22  C   UNL     1     -12.124  14.784  64.571  1.00  0.00    -0.446 C  
HETATM   23  O   UNL     1     -10.788  15.250  64.432  1.00  0.00    -0.636 OA 
HETATM   24  H   UNL     1     -10.731  15.848  63.696  1.00  0.00     0.000 HD 
ENDBRANCH  21  22
ENDBRANCH  20  21
ENDBRANCH  19  20
ENDBRANCH  18  19
ENDBRANCH  17  18
ENDBRANCH  16  17
ENDBRANCH  15  16
ENDBRANCH  14  15
ENDBRANCH  13  14
ENDBRANCH  12  13
ENDBRANCH  11  12
ENDBRANCH  10  11
ENDBRANCH   9  10
ENDBRANCH   8   9
ENDBRANCH   7   8
ENDBRANCH   6   7
ENDBRANCH   5   6
ENDBRANCH   4   5
ENDBRANCH   3   4
ENDBRANCH   2   3
TORSDOF 20
ENDMDL
MODEL      389
REMARK 921   NORMALIZED FREE ENERGY PREDICTED BY IDOCK:   -2.49 KCAL/MOL
REMARK 922        TOTAL FREE ENERGY PREDICTED BY IDOCK:   -8.27 KCAL/MOL
REMARK 923 INTER-LIGAND FREE ENERGY PREDICTED BY IDOCK:   -6.35 KCAL/MOL
REMARK 924 INTRA-LIGAND FREE ENERGY PREDICTED BY IDOCK:   -1.92 KCAL/MOL
REMARK 927      BINDING AFFINITY PREDICTED BY RF-SCORE:    0.00 PKD
ROOT
HETATM    1  C   UNL     1      -9.451  18.492  66.324  1.00  0.00    -0.256 C  
HETATM    2  C   UNL     1      -9.426  16.979  66.450  1.00  0.00    -0.294 C  
ENDROOT
BRANCH   2   3
HETATM    3  C   UNL     1      -9.695  16.542  67.888  1.00  0.00    -0.236 C  
BRANCH   3   4
HETATM    4  C   UNL     1      -9.341  15.072  68.091  1.00  0.00    -0.187 C  
BRANCH   4   5
HETATM    5  C   UNL     1      -9.836  14.230  66.920  1.00  0.00    -0.264 C  
BRANCH   5   6
HETATM    6  C   UNL     1      -9.545  12.751  67.153  1.00  0.00    -0.219 C  
BRANCH   6   7
HETATM    7  C   UNL     1     -10.166  11.900  66.052  1.00  0.00    -0.262 C  
BRANCH   7   8
HETATM    8  C   UNL     1      -9.175  10.854  65.559  1.00  0.00    -0.232 C  
BRANCH   8   9
HETATM    9  C   UNL     1      -9.840   9.487  65.465  1.00  0.00    -0.304 C  
BRANCH   9  10
HETATM   10  C   UNL     1      -9.681   8.725  66.773  1.00  0.00    -0.286 C  
BRANCH  10  11
HETATM   11  C   UNL     1      -8.351   7.984  66.801  1.00  0.00    -0.116 C  
BRANCH  11  12
HETATM   12  C   UNL     1      -8.135   7.327  68.157  1.00  0.00    -0.124 C  
BRANCH  12  13
HETATM   13  C   UNL     1      -9.466   6.912  68.766  1.00  0.00    -0.135 C  
BRANCH  13  14
HETATM   14  C   UNL     1      -9.272   6.426  70.196  1.00  0.00    -0.160 C  
BRANCH  14  15
HETATM   15  C   UNL     1     -10.431   6.874  71.074  1.00  0.00    -0.235 C  
BRANCH  15  16
HETATM   16  C   UNL     1     -11.759   6.649  70.364  1.00  0.00    -0.446 C  
BRANCH  16  17
HETATM   17  C   UNL     1     -12.926   6.938  71.301  1.00  0.00    -0.309 C  
BRANCH  17  18
HETATM   18  C   UNL     1     -12.636   8.164  72.158  1.00  0.00    -0.349 C  
BRANCH  18  19
HETATM   19  C   UNL     1     -13.707   9.231  71.958  1.00  0.00    -0.493 C  
BRANCH  19  20
HETATM   20  C   UNL     1     -13.132  10.444  71.235  1.00  0.00    -0.494 C  
BRANCH  20  21
HETATM   21  C   UNL     1     -11.609  10.417  71.248  1.00  0.00    -0.231 C  
BRANCH  21  22
HETATM   22  C   UNL     1     -11.042  10.526  69.838  1.00  0.00    -0.307 C  
HETATM   23  O   UNL     1      -9.623  10.446  69.883  1.00  0.00    -0.409 OA 
HETATM   24  H   UNL     1      -9.269  10.513  69.004  1.00  0.00     0.000 HD 
ENDBRANCH  21  22
ENDBRANCH  20  21
ENDBRANCH  19  20
ENDBRANCH  18  19
ENDBRANCH  17  18
ENDBRANCH  16  17
ENDBRANCH  15  16
ENDBRANCH  14  15
ENDBRANCH  13  14
ENDBRANCH  12  13
ENDBRANCH  11  12
ENDBRANCH  10  11
ENDBRANCH   9  10
ENDBRANCH   8   9
ENDBRANCH   7   8
ENDBRANCH   6   7
ENDBRANCH   5   6
ENDBRANCH   4   5
ENDBRANCH   3   4
ENDBRANCH   2   3
TORSDOF 20
ENDMDL
MODEL      390
REMARK 921   NORMALIZED FREE ENERGY PREDICTED BY IDOCK:   -2.49 KCAL/MOL
REMARK 922        TOTAL FREE ENERGY PREDICTED BY IDOCK:   -8.26 KCAL/MOL
REMARK 923 INTER-LIGAND FREE ENERGY PREDICTED BY IDOCK:   -5.69 KCAL/MOL
REMARK 924 INTRA-LIGAND FREE ENERGY PREDICTED BY IDOCK:   -2.57 KCAL/MOL
REMARK 927      BINDING AFFINITY PREDICTED BY RF-SCORE:    0.00 PKD
ROOT
HETATM    1  C   UNL     1      -9.824   8.367  66.345  1.00  0.00    -0.310 C  
HETATM    2  C   UNL     1      -8.572   9.030  65.797  1.00  0.00    -0.180 C  
ENDROOT
BRANCH   2   3
HETATM    3  C   UNL     1      -8.921  10.259  64.963  1.00  0.00    -0.225 C  
BRANCH   3   4
HETATM    4  C   UNL     1     -10.373  10.676  65.179  1.00  0.00    -0.331 C  
BRANCH   4   5
HETATM    5  C   UNL     1     -10.899  11.447  63.972  1.00  0.00    -0.450 C  
BRANCH   5   6
HETATM    6  C   UNL     1     -10.435  12.899  64.010  1.00  0.00    -0.395 C  
BRANCH   6   7
HETATM    7  C   UNL     1     -11.489  13.783  64.664  1.00  0.00    -0.385 C  
BRANCH   7   8
HETATM    8  C   UNL     1     -10.863  15.073  65.179  1.00  0.00    -0.422 C  
BRANCH   8   9
HETATM    9  C   UNL     1     -10.685  15.016  66.691  1.00  0.00    -0.312 C  
BRANCH   9  10
HETATM   10  C   UNL     1     -11.602  13.963  67.298  1.00  0.00    -0.393 C  
BRANCH  10  11
HETATM   11  C   UNL     1     -10.918  13.271  68.469  1.00  0.00    -0.291 C  
BRANCH  11  12
HETATM   12  C   UNL     1     -11.743  12.083  68.942  1.00  0.00    -0.383 C  
BRANCH  12  13
HETATM   13  C   UNL     1     -10.912  10.810  68.905  1.00  0.00    -0.289 C  
BRANCH  13  14
HETATM   14  C   UNL     1      -9.429  11.141  68.799  1.00  0.00    -0.173 C  
BRANCH  14  15
HETATM   15  C   UNL     1      -8.590  10.034  69.420  1.00  0.00    -0.182 C  
BRANCH  15  16
HETATM   16  C   UNL     1      -9.463   9.098  70.245  1.00  0.00    -0.253 C  
BRANCH  16  17
HETATM   17  C   UNL     1      -8.938   7.669  70.174  1.00  0.00    -0.146 C  
BRANCH  17  18
HETATM   18  C   UNL     1      -7.441   7.660  69.886  1.00  0.00    -0.083 C  
BRANCH  18  19
HETATM   19  C   UNL     1      -6.999   6.301  69.356  1.00  0.00    -0.067 C  
BRANCH  19  20
HETATM   20  C   UNL     1      -8.187   5.350  69.251  1.00  0.00    -0.093 C  
BRANCH  20  21
HETATM   21  C   UNL     1      -8.875   5.484  67.898  1.00  0.00    -0.105 C  
BRANCH  21  22
HETATM   22  C   UNL     1      -8.135   4.701  66.821  1.00  0.00    -0.103 C  
HETATM   23  O   UNL     1      -8.888   4.712  65.615  1.00  0.00    -0.123 OA 
HETATM   24  H   UNL     1      -8.426   4.224  64.944  1.00  0.00     0.000 HD 
ENDBRANCH  21  22
ENDBRANCH  20  21
ENDBRANCH  19  20
ENDBRANCH  18  19
ENDBRANCH  17  18
ENDBRANCH  16  17
ENDBRANCH  15  16
ENDBRANCH  14  15
ENDBRANCH  13  14
ENDBRANCH  12  13
ENDBRANCH  11  12
ENDBRANCH  10  11
ENDBRANCH   9  10
ENDBRANCH   8   9
ENDBRANCH   7   8
ENDBRANCH   6   7
ENDBRANCH   5   6
ENDBRANCH   4   5
ENDBRANCH   3   4
ENDBRANCH   2   3
TORSDOF 20
ENDMDL
MODEL      391
REMARK 921   NORMALIZED FREE ENERGY PREDICTED BY IDOCK:   -2.49 KCAL/MOL
REMARK 922        TOTAL FREE ENERGY PREDICTED BY IDOCK:   -8.26 KCAL/MOL
REMARK 923 INTER-LIGAND FREE ENERGY PREDICTED BY IDOCK:   -6.50 KCAL/MOL
REMARK 924 INTRA-LIGAND FREE ENERGY PREDICTED BY IDOCK:   -1.76 KCAL/MOL
REMARK 927      BINDING AFFINITY PREDICTED BY RF-SCORE:    0.00 PKD
ROOT
HETATM    1  C   UNL     1      -6.579  20.212  65.060  1.00  0.00    -0.325 C  
HETATM    2  C   UNL     1      -6.504  20.676  66.505  1.00  0.00    -0.305 C  
ENDROOT
BRANCH   2   3
HETATM    3  C   UNL     1      -7.771  20.303  67.269  1.00  0.00    -0.357 C  
BRANCH   3   4
HETATM    4  C   UNL     1      -9.020  20.655  66.467  1.00  0.00    -0.034 C  
BRANCH   4   5
HETATM    5  C   UNL     1      -9.939  19.444  66.339  1.00  0.00    -0.498 C  
BRANCH   5   6
HETATM    6  C   UNL     1     -10.695  19.196  67.640  1.00  0.00    -0.514 C  
BRANCH   6   7
HETATM    7  C   UNL     1     -10.404  17.798  68.173  1.00  0.00    -0.393 C  
BRANCH   7   8
HETATM    8  C   UNL     1     -10.072  16.847  67.031  1.00  0.00    -0.289 C  
BRANCH   8   9
HETATM    9  C   UNL     1     -10.502  15.427  67.373  1.00  0.00    -0.277 C  
BRANCH   9  10
HETATM   10  C   UNL     1     -10.796  15.301  68.861  1.00  0.00    -0.247 C  
BRANCH  10  11
HETATM   11  C   UNL     1     -11.087  13.853  69.228  1.00  0.00    -0.261 C  
BRANCH  11  12
HETATM   12  C   UNL     1     -10.858  12.943  68.029  1.00  0.00    -0.261 C  
BRANCH  12  13
HETATM   13  C   UNL     1     -11.730  11.701  68.130  1.00  0.00    -0.365 C  
BRANCH  13  14
HETATM   14  C   UNL     1     -10.902  10.445  67.892  1.00  0.00    -0.331 C  
BRANCH  14  15
HETATM   15  C   UNL     1     -10.365  10.421  66.469  1.00  0.00    -0.287 C  
BRANCH  15  16
HETATM   16  C   UNL     1      -8.883  10.069  66.461  1.00  0.00    -0.154 C  
BRANCH  16  17
HETATM   17  C   UNL     1      -8.498   9.335  67.740  1.00  0.00    -0.116 C  
BRANCH  17  18
HETATM   18  C   UNL     1      -7.891   7.975  67.416  1.00  0.00    -0.117 C  
BRANCH  18  19
HETATM   19  C   UNL     1      -8.667   6.858  68.105  1.00  0.00    -0.126 C  
BRANCH  19  20
HETATM   20  C   UNL     1     -10.095   6.785  67.575  1.00  0.00    -0.215 C  
BRANCH  20  21
HETATM   21  C   UNL     1     -11.046   6.249  68.638  1.00  0.00    -0.409 C  
BRANCH  21  22
HETATM   22  C   UNL     1     -11.193   7.229  69.794  1.00  0.00    -0.126 C  
HETATM   23  O   UNL     1     -12.242   6.806  70.654  1.00  0.00    -0.491 OA 
HETATM   24  H   UNL     1     -12.334   7.417  71.375  1.00  0.00     0.000 HD 
ENDBRANCH  21  22
ENDBRANCH  20  21
ENDBRANCH  19  20
ENDBRANCH  18  19
ENDBRANCH  17  18
ENDBRANCH  16  17
ENDBRANCH  15  16
ENDBRANCH  14  15
ENDBRANCH  13  14
ENDBRANCH  12  13
ENDBRANCH  11  12
ENDBRANCH  10  11
ENDBRANCH   9  10
ENDBRANCH   8   9
ENDBRANCH   7   8
ENDBRANCH   6   7
ENDBRANCH   5   6
ENDBRANCH   4   5
ENDBRANCH   3   4
ENDBRANCH   2   3
TORSDOF 20
ENDMDL
MODEL      392
REMARK 921   NORMALIZED FREE ENERGY PREDICTED BY IDOCK:   -2.48 KCAL/MOL
REMARK 922        TOTAL FREE ENERGY PREDICTED BY IDOCK:   -8.25 KCAL/MOL
REMARK 923 INTER-LIGAND FREE ENERGY PREDICTED BY IDOCK:   -4.59 KCAL/MOL
REMARK 924 INTRA-LIGAND FREE ENERGY PREDICTED BY IDOCK:   -3.67 KCAL/MOL
REMARK 927      BINDING AFFINITY PREDICTED BY RF-SCORE:    0.00 PKD
ROOT
HETATM    1  C   UNL     1     -12.376  10.098  71.079  1.00  0.00    -0.474 C  
HETATM    2  C   UNL     1     -11.472   9.011  71.636  1.00  0.00    -0.431 C  
ENDROOT
BRANCH   2   3
HETATM    3  C   UNL     1     -11.851   7.642  71.079  1.00  0.00    -0.306 C  
BRANCH   3   4
HETATM    4  C   UNL     1     -11.055   6.532  71.759  1.00  0.00    -0.299 C  
BRANCH   4   5
HETATM    5  C   UNL     1      -9.674   7.033  72.171  1.00  0.00    -0.161 C  
BRANCH   5   6
HETATM    6  C   UNL     1      -8.622   6.631  71.143  1.00  0.00    -0.130 C  
BRANCH   6   7
HETATM    7  C   UNL     1      -8.233   7.823  70.277  1.00  0.00    -0.125 C  
BRANCH   7   8
HETATM    8  C   UNL     1      -8.070   7.400  68.823  1.00  0.00    -0.128 C  
BRANCH   8   9
HETATM    9  C   UNL     1      -9.170   6.427  68.421  1.00  0.00    -0.120 C  
BRANCH   9  10
HETATM   10  C   UNL     1     -10.236   7.136  67.597  1.00  0.00    -0.253 C  
BRANCH  10  11
HETATM   11  C   UNL     1      -9.601   7.884  66.433  1.00  0.00    -0.251 C  
BRANCH  11  12
HETATM   12  C   UNL     1     -10.221   9.266  66.286  1.00  0.00    -0.273 C  
BRANCH  12  13
HETATM   13  C   UNL     1     -11.046   9.614  67.515  1.00  0.00    -0.035 C  
BRANCH  13  14
HETATM   14  C   UNL     1     -10.697  11.009  68.017  1.00  0.00    -0.260 C  
BRANCH  14  15
HETATM   15  C   UNL     1      -9.325  11.012  68.674  1.00  0.00    -0.196 C  
BRANCH  15  16
HETATM   16  C   UNL     1      -8.607  12.329  68.407  1.00  0.00    -0.136 C  
BRANCH  16  17
HETATM   17  C   UNL     1      -7.783  12.242  67.127  1.00  0.00    -0.134 C  
BRANCH  17  18
HETATM   18  C   UNL     1      -6.558  11.360  67.335  1.00  0.00    -0.090 C  
BRANCH  18  19
HETATM   19  C   UNL     1      -6.047  10.819  66.005  1.00  0.00    -0.133 C  
BRANCH  19  20
HETATM   20  C   UNL     1      -6.488   9.372  65.805  1.00  0.00    -0.069 C  
BRANCH  20  21
HETATM   21  C   UNL     1      -6.842   9.106  64.347  1.00  0.00    -0.087 C  
BRANCH  21  22
HETATM   22  C   UNL     1      -7.735  10.204  63.785  1.00  0.00    -0.141 C  
HETATM   23  O   UNL     1      -7.038  10.920  62.773  1.00  0.00    -0.354 OA 
HETATM   24  H   UNL     1      -7.595  11.605  62.423  1.00  0.00     0.000 HD 
ENDBRANCH  21  22
ENDBRANCH  20  21
ENDBRANCH  19  20
ENDBRANCH  18  19
ENDBRANCH  17  18
ENDBRANCH  16  17
ENDBRANCH  15  16
ENDBRANCH  14  15
ENDBRANCH  13  14
ENDBRANCH  12  13
ENDBRANCH  11  12
ENDBRANCH  10  11
ENDBRANCH   9  10
ENDBRANCH   8   9
ENDBRANCH   7   8
ENDBRANCH   6   7
ENDBRANCH   5   6
ENDBRANCH   4   5
ENDBRANCH   3   4
ENDBRANCH   2   3
TORSDOF 20
ENDMDL
MODEL      393
REMARK 921   NORMALIZED FREE ENERGY PREDICTED BY IDOCK:   -2.47 KCAL/MOL
REMARK 922        TOTAL FREE ENERGY PREDICTED BY IDOCK:   -8.23 KCAL/MOL
REMARK 923 INTER-LIGAND FREE ENERGY PREDICTED BY IDOCK:   -6.60 KCAL/MOL
REMARK 924 INTRA-LIGAND FREE ENERGY PREDICTED BY IDOCK:   -1.63 KCAL/MOL
REMARK 927      BINDING AFFINITY PREDICTED BY RF-SCORE:    0.00 PKD
ROOT
HETATM    1  C   UNL     1      -6.712  20.475  64.990  1.00  0.00    -0.271 C  
HETATM    2  C   UNL     1      -6.359  20.109  66.421  1.00  0.00    -0.218 C  
ENDROOT
BRANCH   2   3
HETATM    3  C   UNL     1      -7.565  19.526  67.153  1.00  0.00    -0.271 C  
BRANCH   3   4
HETATM    4  C   UNL     1      -8.803  20.397  66.953  1.00  0.00    -0.361 C  
BRANCH   4   5
HETATM    5  C   UNL     1      -9.966  19.567  66.418  1.00  0.00    -0.532 C  
BRANCH   5   6
HETATM    6  C   UNL     1     -10.730  18.904  67.559  1.00  0.00    -0.509 C  
BRANCH   6   7
HETATM    7  C   UNL     1     -10.785  17.394  67.365  1.00  0.00    -0.251 C  
BRANCH   7   8
HETATM    8  C   UNL     1     -10.291  17.014  65.975  1.00  0.00    -0.324 C  
BRANCH   8   9
HETATM    9  C   UNL     1     -10.588  15.550  65.682  1.00  0.00    -0.389 C  
BRANCH   9  10
HETATM   10  C   UNL     1     -11.362  14.921  66.831  1.00  0.00    -0.338 C  
BRANCH  10  11
HETATM   11  C   UNL     1     -11.504  13.419  66.621  1.00  0.00    -0.376 C  
BRANCH  11  12
HETATM   12  C   UNL     1     -10.482  12.924  65.608  1.00  0.00    -0.292 C  
BRANCH  12  13
HETATM   13  C   UNL     1     -11.039  11.746  64.823  1.00  0.00    -0.356 C  
BRANCH  13  14
HETATM   14  C   UNL     1     -10.231  10.486  65.103  1.00  0.00    -0.358 C  
BRANCH  14  15
HETATM   15  C   UNL     1      -8.781  10.678  64.683  1.00  0.00    -0.161 C  
BRANCH  15  16
HETATM   16  C   UNL     1      -7.841  10.325  65.829  1.00  0.00    -0.145 C  
BRANCH  16  17
HETATM   17  C   UNL     1      -8.465   9.266  66.730  1.00  0.00    -0.129 C  
BRANCH  17  18
HETATM   18  C   UNL     1      -7.726   7.940  66.592  1.00  0.00    -0.098 C  
BRANCH  18  19
HETATM   19  C   UNL     1      -8.610   6.894  65.921  1.00  0.00    -0.152 C  
BRANCH  19  20
HETATM   20  C   UNL     1      -9.927   6.738  66.674  1.00  0.00    -0.207 C  
BRANCH  20  21
HETATM   21  C   UNL     1     -10.596   5.410  66.336  1.00  0.00    -0.322 C  
BRANCH  21  22
HETATM   22  C   UNL     1      -9.781   4.625  65.316  1.00  0.00    -0.136 C  
HETATM   23  O   UNL     1     -10.432   3.396  65.024  1.00  0.00    -0.402 OA 
HETATM   24  H   UNL     1      -9.924   2.906  64.388  1.00  0.00     0.000 HD 
ENDBRANCH  21  22
ENDBRANCH  20  21
ENDBRANCH  19  20
ENDBRANCH  18  19
ENDBRANCH  17  18
ENDBRANCH  16  17
ENDBRANCH  15  16
ENDBRANCH  14  15
ENDBRANCH  13  14
ENDBRANCH  12  13
ENDBRANCH  11  12
ENDBRANCH  10  11
ENDBRANCH   9  10
ENDBRANCH   8   9
ENDBRANCH   7   8
ENDBRANCH   6   7
ENDBRANCH   5   6
ENDBRANCH   4   5
ENDBRANCH   3   4
ENDBRANCH   2   3
TORSDOF 20
ENDMDL
MODEL      394
REMARK 921   NORMALIZED FREE ENERGY PREDICTED BY IDOCK:   -2.47 KCAL/MOL
REMARK 922        TOTAL FREE ENERGY PREDICTED BY IDOCK:   -8.23 KCAL/MOL
REMARK 923 INTER-LIGAND FREE ENERGY PREDICTED BY IDOCK:   -6.28 KCAL/MOL
REMARK 924 INTRA-LIGAND FREE ENERGY PREDICTED BY IDOCK:   -1.95 KCAL/MOL
REMARK 927      BINDING AFFINITY PREDICTED BY RF-SCORE:    0.00 PKD
ROOT
HETATM    1  C   UNL     1      -9.809  11.832  67.956  1.00  0.00    -0.184 C  
HETATM    2  C   UNL     1     -11.295  12.051  68.184  1.00  0.00    -0.349 C  
ENDROOT
BRANCH   2   3
HETATM    3  C   UNL     1     -11.539  13.203  69.154  1.00  0.00    -0.368 C  
BRANCH   3   4
HETATM    4  C   UNL     1     -12.341  12.741  70.367  1.00  0.00    -0.324 C  
BRANCH   4   5
HETATM    5  C   UNL     1     -12.049  11.277  70.682  1.00  0.00    -0.480 C  
BRANCH   5   6
HETATM    6  C   UNL     1     -12.998  10.753  71.755  1.00  0.00    -0.568 C  
BRANCH   6   7
HETATM    7  C   UNL     1     -12.700   9.292  72.069  1.00  0.00    -0.479 C  
BRANCH   7   8
HETATM    8  C   UNL     1     -11.659   8.737  71.105  1.00  0.00    -0.344 C  
BRANCH   8   9
HETATM    9  C   UNL     1     -10.343   8.479  71.827  1.00  0.00    -0.354 C  
BRANCH   9  10
HETATM   10  C   UNL     1      -9.550   7.389  71.120  1.00  0.00    -0.162 C  
BRANCH  10  11
HETATM   11  C   UNL     1      -9.276   6.229  72.066  1.00  0.00    -0.145 C  
BRANCH  11  12
HETATM   12  C   UNL     1     -10.037   4.987  71.622  1.00  0.00    -0.260 C  
BRANCH  12  13
HETATM   13  C   UNL     1      -9.921   4.803  70.117  1.00  0.00    -0.321 C  
BRANCH  13  14
HETATM   14  C   UNL     1      -8.618   4.100  69.762  1.00  0.00    -0.099 C  
BRANCH  14  15
HETATM   15  C   UNL     1      -8.885   2.901  68.864  1.00  0.00    -0.155 C  
BRANCH  15  16
HETATM   16  C   UNL     1      -8.912   3.322  67.401  1.00  0.00    -0.176 C  
BRANCH  16  17
HETATM   17  C   UNL     1      -7.792   4.313  67.105  1.00  0.00    -0.096 C  
BRANCH  17  18
HETATM   18  C   UNL     1      -7.806   4.716  65.635  1.00  0.00    -0.094 C  
BRANCH  18  19
HETATM   19  C   UNL     1      -8.021   6.219  65.487  1.00  0.00    -0.115 C  
BRANCH  19  20
HETATM   20  C   UNL     1      -8.469   6.833  66.809  1.00  0.00    -0.117 C  
BRANCH  20  21
HETATM   21  C   UNL     1      -9.695   7.717  66.614  1.00  0.00    -0.283 C  
BRANCH  21  22
HETATM   22  C   UNL     1     -10.915   7.133  67.315  1.00  0.00    -0.263 C  
HETATM   23  O   UNL     1     -11.198   5.842  66.793  1.00  0.00    -0.540 OA 
HETATM   24  H   UNL     1     -11.959   5.478  67.230  1.00  0.00     0.000 HD 
ENDBRANCH  21  22
ENDBRANCH  20  21
ENDBRANCH  19  20
ENDBRANCH  18  19
ENDBRANCH  17  18
ENDBRANCH  16  17
ENDBRANCH  15  16
ENDBRANCH  14  15
ENDBRANCH  13  14
ENDBRANCH  12  13
ENDBRANCH  11  12
ENDBRANCH  10  11
ENDBRANCH   9  10
ENDBRANCH   8   9
ENDBRANCH   7   8
ENDBRANCH   6   7
ENDBRANCH   5   6
ENDBRANCH   4   5
ENDBRANCH   3   4
ENDBRANCH   2   3
TORSDOF 20
ENDMDL
MODEL      395
REMARK 921   NORMALIZED FREE ENERGY PREDICTED BY IDOCK:   -2.47 KCAL/MOL
REMARK 922        TOTAL FREE ENERGY PREDICTED BY IDOCK:   -8.23 KCAL/MOL
REMARK 923 INTER-LIGAND FREE ENERGY PREDICTED BY IDOCK:   -6.45 KCAL/MOL
REMARK 924 INTRA-LIGAND FREE ENERGY PREDICTED BY IDOCK:   -1.78 KCAL/MOL
REMARK 927      BINDING AFFINITY PREDICTED BY RF-SCORE:    0.00 PKD
ROOT
HETATM    1  C   UNL     1      -8.447   4.055  66.267  1.00  0.00    -0.109 C  
HETATM    2  C   UNL     1      -9.176   5.144  65.499  1.00  0.00    -0.144 C  
ENDROOT
BRANCH   2   3
HETATM    3  C   UNL     1      -9.117   6.475  66.243  1.00  0.00    -0.168 C  
BRANCH   3   4
HETATM    4  C   UNL     1     -10.270   6.602  67.236  1.00  0.00    -0.256 C  
BRANCH   4   5
HETATM    5  C   UNL     1     -10.263   7.976  67.898  1.00  0.00    -0.267 C  
BRANCH   5   6
HETATM    6  C   UNL     1     -10.497   9.077  66.869  1.00  0.00    -0.293 C  
BRANCH   6   7
HETATM    7  C   UNL     1     -10.464  10.449  67.530  1.00  0.00    -0.292 C  
BRANCH   7   8
HETATM    8  C   UNL     1     -11.232  10.428  68.846  1.00  0.00    -0.290 C  
BRANCH   8   9
HETATM    9  C   UNL     1     -11.743  11.821  69.190  1.00  0.00    -0.388 C  
BRANCH   9  10
HETATM   10  C   UNL     1     -11.059  12.871  68.325  1.00  0.00    -0.294 C  
BRANCH  10  11
HETATM   11  C   UNL     1     -12.072  13.889  67.820  1.00  0.00    -0.328 C  
BRANCH  11  12
HETATM   12  C   UNL     1     -11.513  14.648  66.625  1.00  0.00    -0.363 C  
BRANCH  12  13
HETATM   13  C   UNL     1     -10.584  15.759  67.087  1.00  0.00    -0.313 C  
BRANCH  13  14
HETATM   14  C   UNL     1     -11.038  16.312  68.432  1.00  0.00    -0.362 C  
BRANCH  14  15
HETATM   15  C   UNL     1     -10.323  17.619  68.741  1.00  0.00    -0.348 C  
BRANCH  15  16
HETATM   16  C   UNL     1     -10.341  18.539  67.527  1.00  0.00    -0.440 C  
BRANCH  16  17
HETATM   17  C   UNL     1      -8.930  18.994  67.175  1.00  0.00    -0.310 C  
BRANCH  17  18
HETATM   18  C   UNL     1      -7.980  18.749  68.342  1.00  0.00    -0.365 C  
BRANCH  18  19
HETATM   19  C   UNL     1      -6.727  18.015  67.876  1.00  0.00    -0.191 C  
BRANCH  19  20
HETATM   20  C   UNL     1      -7.089  16.673  67.248  1.00  0.00    -0.208 C  
BRANCH  20  21
HETATM   21  C   UNL     1      -6.431  15.523  67.999  1.00  0.00    -0.148 C  
BRANCH  21  22
HETATM   22  C   UNL     1      -6.819  15.530  69.472  1.00  0.00    -0.186 C  
HETATM   23  O   UNL     1      -8.100  14.938  69.635  1.00  0.00    -0.389 OA 
HETATM   24  H   UNL     1      -8.342  14.943  70.554  1.00  0.00     0.000 HD 
ENDBRANCH  21  22
ENDBRANCH  20  21
ENDBRANCH  19  20
ENDBRANCH  18  19
ENDBRANCH  17  18
ENDBRANCH  16  17
ENDBRANCH  15  16
ENDBRANCH  14  15
ENDBRANCH  13  14
ENDBRANCH  12  13
ENDBRANCH  11  12
ENDBRANCH  10  11
ENDBRANCH   9  10
ENDBRANCH   8   9
ENDBRANCH   7   8
ENDBRANCH   6   7
ENDBRANCH   5   6
ENDBRANCH   4   5
ENDBRANCH   3   4
ENDBRANCH   2   3
TORSDOF 20
ENDMDL
MODEL      396
REMARK 921   NORMALIZED FREE ENERGY PREDICTED BY IDOCK:   -2.46 KCAL/MOL
REMARK 922        TOTAL FREE ENERGY PREDICTED BY IDOCK:   -8.21 KCAL/MOL
REMARK 923 INTER-LIGAND FREE ENERGY PREDICTED BY IDOCK:   -5.41 KCAL/MOL
REMARK 924 INTRA-LIGAND FREE ENERGY PREDICTED BY IDOCK:   -2.81 KCAL/MOL
REMARK 927      BINDING AFFINITY PREDICTED BY RF-SCORE:    0.00 PKD
ROOT
HETATM    1  C   UNL     1     -10.429   5.499  66.613  1.00  0.00    -0.355 C  
HETATM    2  C   UNL     1     -10.757   6.175  67.934  1.00  0.00    -0.374 C  
ENDROOT
BRANCH   2   3
HETATM    3  C   UNL     1      -9.726   5.823  69.002  1.00  0.00    -0.180 C  
BRANCH   3   4
HETATM    4  C   UNL     1     -10.114   4.545  69.741  1.00  0.00    -0.177 C  
BRANCH   4   5
HETATM    5  C   UNL     1      -9.124   3.424  69.438  1.00  0.00    -0.199 C  
BRANCH   5   6
HETATM    6  C   UNL     1      -8.295   3.084  70.672  1.00  0.00    -0.085 C  
BRANCH   6   7
HETATM    7  C   UNL     1      -6.984   3.861  70.670  1.00  0.00    -0.033 C  
BRANCH   7   8
HETATM    8  C   UNL     1      -6.787   4.585  71.996  1.00  0.00    -0.053 C  
BRANCH   8   9
HETATM    9  C   UNL     1      -7.948   4.300  72.940  1.00  0.00    -0.086 C  
BRANCH   9  10
HETATM   10  C   UNL     1      -8.575   5.600  73.424  1.00  0.00    -0.115 C  
BRANCH  10  11
HETATM   11  C   UNL     1     -10.094   5.505  73.393  1.00  0.00    -0.202 C  
BRANCH  11  12
HETATM   12  C   UNL     1     -10.690   6.728  72.710  1.00  0.00    -0.277 C  
BRANCH  12  13
HETATM   13  C   UNL     1      -9.589   7.662  72.233  1.00  0.00    -0.215 C  
BRANCH  13  14
HETATM   14  C   UNL     1     -10.170   9.009  71.824  1.00  0.00    -0.389 C  
BRANCH  14  15
HETATM   15  C   UNL     1     -11.338   8.819  70.869  1.00  0.00    -0.322 C  
BRANCH  15  16
HETATM   16  C   UNL     1     -11.314   9.880  69.776  1.00  0.00    -0.241 C  
BRANCH  16  17
HETATM   17  C   UNL     1     -10.032   9.781  68.958  1.00  0.00    -0.189 C  
BRANCH  17  18
HETATM   18  C   UNL     1      -9.669  11.136  68.360  1.00  0.00    -0.191 C  
BRANCH  18  19
HETATM   19  C   UNL     1     -10.837  11.707  67.563  1.00  0.00    -0.287 C  
BRANCH  19  20
HETATM   20  C   UNL     1     -10.877  11.109  66.161  1.00  0.00    -0.247 C  
BRANCH  20  21
HETATM   21  C   UNL     1      -9.916  11.838  65.229  1.00  0.00    -0.284 C  
BRANCH  21  22
HETATM   22  C   UNL     1      -9.960  13.343  65.457  1.00  0.00    -0.210 C  
HETATM   23  O   UNL     1     -10.044  14.017  64.207  1.00  0.00    -0.697 OA 
HETATM   24  H   UNL     1     -10.071  14.956  64.349  1.00  0.00     0.000 HD 
ENDBRANCH  21  22
ENDBRANCH  20  21
ENDBRANCH  19  20
ENDBRANCH  18  19
ENDBRANCH  17  18
ENDBRANCH  16  17
ENDBRANCH  15  16
ENDBRANCH  14  15
ENDBRANCH  13  14
ENDBRANCH  12  13
ENDBRANCH  11  12
ENDBRANCH  10  11
ENDBRANCH   9  10
ENDBRANCH   8   9
ENDBRANCH   7   8
ENDBRANCH   6   7
ENDBRANCH   5   6
ENDBRANCH   4   5
ENDBRANCH   3   4
ENDBRANCH   2   3
TORSDOF 20
ENDMDL
MODEL      397
REMARK 921   NORMALIZED FREE ENERGY PREDICTED BY IDOCK:   -2.46 KCAL/MOL
REMARK 922        TOTAL FREE ENERGY PREDICTED BY IDOCK:   -8.21 KCAL/MOL
REMARK 923 INTER-LIGAND FREE ENERGY PREDICTED BY IDOCK:   -6.12 KCAL/MOL
REMARK 924 INTRA-LIGAND FREE ENERGY PREDICTED BY IDOCK:   -2.08 KCAL/MOL
REMARK 927      BINDING AFFINITY PREDICTED BY RF-SCORE:    0.00 PKD
ROOT
HETATM    1  C   UNL     1     -10.276  18.000  66.222  1.00  0.00    -0.381 C  
HETATM    2  C   UNL     1     -10.736  17.486  67.576  1.00  0.00    -0.280 C  
ENDROOT
BRANCH   2   3
HETATM    3  C   UNL     1      -9.982  16.219  67.968  1.00  0.00    -0.240 C  
BRANCH   3   4
HETATM    4  C   UNL     1     -10.356  15.052  67.058  1.00  0.00    -0.269 C  
BRANCH   4   5
HETATM    5  C   UNL     1     -11.393  14.156  67.728  1.00  0.00    -0.330 C  
BRANCH   5   6
HETATM    6  C   UNL     1     -12.554  13.867  66.782  1.00  0.00    -0.103 C  
BRANCH   6   7
HETATM    7  C   UNL     1     -12.099  13.950  65.331  1.00  0.00    -0.423 C  
BRANCH   7   8
HETATM    8  C   UNL     1     -12.205  12.589  64.656  1.00  0.00    -0.524 C  
BRANCH   8   9
HETATM    9  C   UNL     1     -10.884  12.209  64.001  1.00  0.00    -0.436 C  
BRANCH   9  10
HETATM   10  C   UNL     1     -10.351  10.909  64.586  1.00  0.00    -0.407 C  
BRANCH  10  11
HETATM   11  C   UNL     1     -10.284  10.994  66.104  1.00  0.00    -0.298 C  
BRANCH  11  12
HETATM   12  C   UNL     1      -8.875  11.350  66.557  1.00  0.00    -0.187 C  
BRANCH  12  13
HETATM   13  C   UNL     1      -7.988  10.115  66.555  1.00  0.00    -0.118 C  
BRANCH  13  14
HETATM   14  C   UNL     1      -8.662   8.970  67.301  1.00  0.00    -0.122 C  
BRANCH  14  15
HETATM   15  C   UNL     1      -8.304   9.012  68.779  1.00  0.00    -0.122 C  
BRANCH  15  16
HETATM   16  C   UNL     1      -9.422   9.663  69.583  1.00  0.00    -0.226 C  
BRANCH  16  17
HETATM   17  C   UNL     1      -9.772   8.817  70.801  1.00  0.00    -0.257 C  
BRANCH  17  18
HETATM   18  C   UNL     1     -11.269   8.536  70.848  1.00  0.00    -0.304 C  
BRANCH  18  19
HETATM   19  C   UNL     1     -11.586   7.178  70.231  1.00  0.00    -0.260 C  
BRANCH  19  20
HETATM   20  C   UNL     1     -11.072   6.049  71.118  1.00  0.00    -0.336 C  
BRANCH  20  21
HETATM   21  C   UNL     1     -10.329   5.004  70.295  1.00  0.00    -0.299 C  
BRANCH  21  22
HETATM   22  C   UNL     1      -8.867   4.908  70.713  1.00  0.00    -0.126 C  
HETATM   23  O   UNL     1      -8.644   3.688  71.407  1.00  0.00    -0.074 OA 
HETATM   24  H   UNL     1      -7.732   3.628  71.668  1.00  0.00     0.000 HD 
ENDBRANCH  21  22
ENDBRANCH  20  21
ENDBRANCH  19  20
ENDBRANCH  18  19
ENDBRANCH  17  18
ENDBRANCH  16  17
ENDBRANCH  15  16
ENDBRANCH  14  15
ENDBRANCH  13  14
ENDBRANCH  12  13
ENDBRANCH  11  12
ENDBRANCH  10  11
ENDBRANCH   9  10
ENDBRANCH   8   9
ENDBRANCH   7   8
ENDBRANCH   6   7
ENDBRANCH   5   6
ENDBRANCH   4   5
ENDBRANCH   3   4
ENDBRANCH   2   3
TORSDOF 20
ENDMDL
MODEL      398
REMARK 921   NORMALIZED FREE ENERGY PREDICTED BY IDOCK:   -2.46 KCAL/MOL
REMARK 922        TOTAL FREE ENERGY PREDICTED BY IDOCK:   -8.20 KCAL/MOL
REMARK 923 INTER-LIGAND FREE ENERGY PREDICTED BY IDOCK:   -6.59 KCAL/MOL
REMARK 924 INTRA-LIGAND FREE ENERGY PREDICTED BY IDOCK:   -1.61 KCAL/MOL
REMARK 927      BINDING AFFINITY PREDICTED BY RF-SCORE:    0.00 PKD
ROOT
HETATM    1  C   UNL     1      -8.511   7.882  64.864  1.00  0.00    -0.045 C  
HETATM    2  C   UNL     1      -9.587   8.593  65.667  1.00  0.00    -0.032 C  
ENDROOT
BRANCH   2   3
HETATM    3  C   UNL     1      -9.723   7.989  67.061  1.00  0.00    -0.275 C  
BRANCH   3   4
HETATM    4  C   UNL     1     -10.169   9.038  68.075  1.00  0.00    -0.260 C  
BRANCH   4   5
HETATM    5  C   UNL     1      -9.823   8.600  69.494  1.00  0.00    -0.187 C  
BRANCH   5   6
HETATM    6  C   UNL     1     -10.573   7.326  69.868  1.00  0.00    -0.244 C  
BRANCH   6   7
HETATM    7  C   UNL     1     -10.198   6.872  71.273  1.00  0.00    -0.213 C  
BRANCH   7   8
HETATM    8  C   UNL     1     -11.425   6.847  72.174  1.00  0.00    -0.316 C  
BRANCH   8   9
HETATM    9  C   UNL     1     -12.690   6.640  71.352  1.00  0.00    -0.211 C  
BRANCH   9  10
HETATM   10  C   UNL     1     -13.631   7.826  71.510  1.00  0.00    -0.391 C  
BRANCH  10  11
HETATM   11  C   UNL     1     -12.914   8.991  72.177  1.00  0.00    -0.490 C  
BRANCH  11  12
HETATM   12  C   UNL     1     -13.361  10.313  71.568  1.00  0.00    -0.413 C  
BRANCH  12  13
HETATM   13  C   UNL     1     -12.157  11.131  71.128  1.00  0.00    -0.302 C  
BRANCH  13  14
HETATM   14  C   UNL     1     -12.146  11.295  69.614  1.00  0.00    -0.391 C  
BRANCH  14  15
HETATM   15  C   UNL     1     -11.581  12.654  69.229  1.00  0.00    -0.376 C  
BRANCH  15  16
HETATM   16  C   UNL     1     -10.803  12.560  67.923  1.00  0.00    -0.251 C  
BRANCH  16  17
HETATM   17  C   UNL     1     -11.586  13.200  66.782  1.00  0.00    -0.414 C  
BRANCH  17  18
HETATM   18  C   UNL     1     -10.893  12.949  65.448  1.00  0.00    -0.307 C  
BRANCH  18  19
HETATM   19  C   UNL     1     -10.179  14.205  64.963  1.00  0.00    -0.399 C  
BRANCH  19  20
HETATM   20  C   UNL     1     -10.107  15.249  66.073  1.00  0.00    -0.340 C  
BRANCH  20  21
HETATM   21  C   UNL     1     -10.970  16.460  65.740  1.00  0.00    -0.032 C  
BRANCH  21  22
HETATM   22  C   UNL     1     -10.272  17.758  66.125  1.00  0.00    -0.339 C  
HETATM   23  O   UNL     1      -8.934  17.746  65.643  1.00  0.00    -0.365 OA 
HETATM   24  H   UNL     1      -8.499  18.555  65.883  1.00  0.00     0.000 HD 
ENDBRANCH  21  22
ENDBRANCH  20  21
ENDBRANCH  19  20
ENDBRANCH  18  19
ENDBRANCH  17  18
ENDBRANCH  16  17
ENDBRANCH  15  16
ENDBRANCH  14  15
ENDBRANCH  13  14
ENDBRANCH  12  13
ENDBRANCH  11  12
ENDBRANCH  10  11
ENDBRANCH   9  10
ENDBRANCH   8   9
ENDBRANCH   7   8
ENDBRANCH   6   7
ENDBRANCH   5   6
ENDBRANCH   4   5
ENDBRANCH   3   4
ENDBRANCH   2   3
TORSDOF 20
ENDMDL
MODEL      399
REMARK 921   NORMALIZED FREE ENERGY PREDICTED BY IDOCK:   -2.45 KCAL/MOL
REMARK 922        TOTAL FREE ENERGY PREDICTED BY IDOCK:   -8.19 KCAL/MOL
REMARK 923 INTER-LIGAND FREE ENERGY PREDICTED BY IDOCK:   -6.69 KCAL/MOL
REMARK 924 INTRA-LIGAND FREE ENERGY PREDICTED BY IDOCK:   -1.50 KCAL/MOL
REMARK 927      BINDING AFFINITY PREDICTED BY RF-SCORE:    0.00 PKD
ROOT
HETATM    1  C   UNL     1     -10.397  20.107  66.429  1.00  0.00    -0.510 C  
HETATM    2  C   UNL     1      -9.658  18.813  66.133  1.00  0.00    -0.238 C  
ENDROOT
BRANCH   2   3
HETATM    3  C   UNL     1     -10.591  17.610  66.241  1.00  0.00    -0.215 C  
BRANCH   3   4
HETATM    4  C   UNL     1     -10.320  16.816  67.516  1.00  0.00    -0.301 C  
BRANCH   4   5
HETATM    5  C   UNL     1      -8.833  16.830  67.856  1.00  0.00    -0.218 C  
BRANCH   5   6
HETATM    6  C   UNL     1      -8.188  15.489  67.524  1.00  0.00    -0.182 C  
BRANCH   6   7
HETATM    7  C   UNL     1      -9.013  14.736  66.488  1.00  0.00    -0.267 C  
BRANCH   7   8
HETATM    8  C   UNL     1      -9.225  13.291  66.919  1.00  0.00    -0.242 C  
BRANCH   8   9
HETATM    9  C   UNL     1      -9.266  13.184  68.438  1.00  0.00    -0.141 C  
BRANCH   9  10
HETATM   10  C   UNL     1     -10.686  13.379  68.949  1.00  0.00    -0.219 C  
BRANCH  10  11
HETATM   11  C   UNL     1     -11.624  12.356  68.324  1.00  0.00    -0.384 C  
BRANCH  11  12
HETATM   12  C   UNL     1     -11.852  11.189  69.274  1.00  0.00    -0.422 C  
BRANCH  12  13
HETATM   13  C   UNL     1     -12.074  11.692  70.691  1.00  0.00    -0.432 C  
BRANCH  13  14
HETATM   14  C   UNL     1     -12.685  10.599  71.558  1.00  0.00    -0.549 C  
BRANCH  14  15
HETATM   15  C   UNL     1     -11.901   9.303  71.414  1.00  0.00    -0.428 C  
BRANCH  15  16
HETATM   16  C   UNL     1     -12.843   8.133  71.163  1.00  0.00    -0.106 C  
BRANCH  16  17
HETATM   17  C   UNL     1     -12.608   7.025  72.182  1.00  0.00    -0.158 C  
BRANCH  17  18
HETATM   18  C   UNL     1     -11.427   6.155  71.768  1.00  0.00    -0.342 C  
BRANCH  18  19
HETATM   19  C   UNL     1     -10.623   5.716  72.987  1.00  0.00    -0.275 C  
BRANCH  19  20
HETATM   20  C   UNL     1     -10.187   6.924  73.809  1.00  0.00    -0.396 C  
BRANCH  20  21
HETATM   21  C   UNL     1      -8.748   7.313  73.488  1.00  0.00    -0.197 C  
BRANCH  21  22
HETATM   22  C   UNL     1      -8.686   8.285  72.317  1.00  0.00    -0.200 C  
HETATM   23  O   UNL     1      -7.549   9.126  72.451  1.00  0.00    -0.271 OA 
HETATM   24  H   UNL     1      -7.510   9.733  71.720  1.00  0.00     0.000 HD 
ENDBRANCH  21  22
ENDBRANCH  20  21
ENDBRANCH  19  20
ENDBRANCH  18  19
ENDBRANCH  17  18
ENDBRANCH  16  17
ENDBRANCH  15  16
ENDBRANCH  14  15
ENDBRANCH  13  14
ENDBRANCH  12  13
ENDBRANCH  11  12
ENDBRANCH  10  11
ENDBRANCH   9  10
ENDBRANCH   8   9
ENDBRANCH   7   8
ENDBRANCH   6   7
ENDBRANCH   5   6
ENDBRANCH   4   5
ENDBRANCH   3   4
ENDBRANCH   2   3
TORSDOF 20
ENDMDL
MODEL      400
REMARK 921   NORMALIZED FREE ENERGY PREDICTED BY IDOCK:   -2.45 KCAL/MOL
REMARK 922        TOTAL FREE ENERGY PREDICTED BY IDOCK:   -8.19 KCAL/MOL
REMARK 923 INTER-LIGAND FREE ENERGY PREDICTED BY IDOCK:   -5.57 KCAL/MOL
REMARK 924 INTRA-LIGAND FREE ENERGY PREDICTED BY IDOCK:   -2.62 KCAL/MOL
REMARK 927      BINDING AFFINITY PREDICTED BY RF-SCORE:    0.00 PKD
ROOT
HETATM    1  C   UNL     1     -10.553   4.097  64.621  1.00  0.00    -0.176 C  
HETATM    2  C   UNL     1      -9.079   4.215  64.968  1.00  0.00    -0.143 C  
ENDROOT
BRANCH   2   3
HETATM    3  C   UNL     1      -8.868   4.220  66.479  1.00  0.00    -0.116 C  
BRANCH   3   4
HETATM    4  C   UNL     1      -8.924   5.639  67.037  1.00  0.00    -0.114 C  
BRANCH   4   5
HETATM    5  C   UNL     1      -8.059   6.582  66.206  1.00  0.00    -0.115 C  
BRANCH   5   6
HETATM    6  C   UNL     1      -8.878   7.763  65.697  1.00  0.00    -0.102 C  
BRANCH   6   7
HETATM    7  C   UNL     1      -8.196   8.415  64.500  1.00  0.00    -0.149 C  
BRANCH   7   8
HETATM    8  C   UNL     1      -7.788   9.845  64.828  1.00  0.00    -0.141 C  
BRANCH   8   9
HETATM    9  C   UNL     1      -8.767  10.470  65.813  1.00  0.00    -0.188 C  
BRANCH   9  10
HETATM   10  C   UNL     1      -8.048  11.440  66.739  1.00  0.00    -0.161 C  
BRANCH  10  11
HETATM   11  C   UNL     1      -8.989  12.553  67.181  1.00  0.00    -0.200 C  
BRANCH  11  12
HETATM   12  C   UNL     1     -10.437  12.096  67.086  1.00  0.00    -0.241 C  
BRANCH  12  13
HETATM   13  C   UNL     1     -11.176  12.396  68.381  1.00  0.00    -0.316 C  
BRANCH  13  14
HETATM   14  C   UNL     1     -11.595  11.104  69.070  1.00  0.00    -0.392 C  
BRANCH  14  15
HETATM   15  C   UNL     1     -11.148   9.897  68.260  1.00  0.00    -0.207 C  
BRANCH  15  16
HETATM   16  C   UNL     1     -10.164   9.051  69.058  1.00  0.00    -0.216 C  
BRANCH  16  17
HETATM   17  C   UNL     1      -9.766   9.761  70.347  1.00  0.00    -0.244 C  
BRANCH  17  18
HETATM   18  C   UNL     1      -9.335   8.752  71.405  1.00  0.00    -0.328 C  
BRANCH  18  19
HETATM   19  C   UNL     1     -10.459   7.767  71.705  1.00  0.00    -0.259 C  
BRANCH  19  20
HETATM   20  C   UNL     1     -11.621   8.470  72.400  1.00  0.00    -0.425 C  
BRANCH  20  21
HETATM   21  C   UNL     1     -12.942   8.160  71.706  1.00  0.00    -0.364 C  
BRANCH  21  22
HETATM   22  C   UNL     1     -14.002   9.199  72.045  1.00  0.00    -0.371 C  
HETATM   23  O   UNL     1     -13.378  10.436  72.366  1.00  0.00    -0.601 OA 
HETATM   24  H   UNL     1     -14.040  11.084  72.577  1.00  0.00     0.000 HD 
ENDBRANCH  21  22
ENDBRANCH  20  21
ENDBRANCH  19  20
ENDBRANCH  18  19
ENDBRANCH  17  18
ENDBRANCH  16  17
ENDBRANCH  15  16
ENDBRANCH  14  15
ENDBRANCH  13  14
ENDBRANCH  12  13
ENDBRANCH  11  12
ENDBRANCH  10  11
ENDBRANCH   9  10
ENDBRANCH   8   9
ENDBRANCH   7   8
ENDBRANCH   6   7
ENDBRANCH   5   6
ENDBRANCH   4   5
ENDBRANCH   3   4
ENDBRANCH   2   3
TORSDOF 20
ENDMDL
MODEL      401
REMARK 921   NORMALIZED FREE ENERGY PREDICTED BY IDOCK:   -2.45 KCAL/MOL
REMARK 922        TOTAL FREE ENERGY PREDICTED BY IDOCK:   -8.19 KCAL/MOL
REMARK 923 INTER-LIGAND FREE ENERGY PREDICTED BY IDOCK:   -6.10 KCAL/MOL
REMARK 924 INTRA-LIGAND FREE ENERGY PREDICTED BY IDOCK:   -2.09 KCAL/MOL
REMARK 927      BINDING AFFINITY PREDICTED BY RF-SCORE:    0.00 PKD
ROOT
HETATM    1  C   UNL     1      -7.228   7.203  67.234  1.00  0.00    -0.086 C  
HETATM    2  C   UNL     1      -7.126   6.033  68.197  1.00  0.00    -0.078 C  
ENDROOT
BRANCH   2   3
HETATM    3  C   UNL     1      -6.942   4.717  67.447  1.00  0.00    -0.061 C  
BRANCH   3   4
HETATM    4  C   UNL     1      -7.860   3.633  68.004  1.00  0.00    -0.068 C  
BRANCH   4   5
HETATM    5  C   UNL     1      -8.893   3.213  66.962  1.00  0.00    -0.155 C  
BRANCH   5   6
HETATM    6  C   UNL     1      -8.515   3.738  65.581  1.00  0.00    -0.110 C  
BRANCH   6   7
HETATM    7  C   UNL     1      -9.574   4.703  65.064  1.00  0.00    -0.113 C  
BRANCH   7   8
HETATM    8  C   UNL     1     -10.716   4.832  66.063  1.00  0.00    -0.211 C  
BRANCH   8   9
HETATM    9  C   UNL     1     -10.694   6.200  66.731  1.00  0.00    -0.371 C  
BRANCH   9  10
HETATM   10  C   UNL     1     -10.828   6.061  68.241  1.00  0.00    -0.366 C  
BRANCH  10  11
HETATM   11  C   UNL     1     -10.555   7.393  68.926  1.00  0.00    -0.191 C  
BRANCH  11  12
HETATM   12  C   UNL     1     -11.152   7.405  70.326  1.00  0.00    -0.278 C  
BRANCH  12  13
HETATM   13  C   UNL     1     -10.395   8.374  71.220  1.00  0.00    -0.272 C  
BRANCH  13  14
HETATM   14  C   UNL     1     -11.359   9.329  71.912  1.00  0.00    -0.359 C  
BRANCH  14  15
HETATM   15  C   UNL     1     -12.329   9.931  70.906  1.00  0.00    -0.403 C  
BRANCH  15  16
HETATM   16  C   UNL     1     -11.882  11.330  70.503  1.00  0.00    -0.421 C  
BRANCH  16  17
HETATM   17  C   UNL     1     -12.490  12.377  71.429  1.00  0.00    -0.205 C  
BRANCH  17  18
HETATM   18  C   UNL     1     -12.831  13.645  70.655  1.00  0.00    -0.224 C  
BRANCH  18  19
HETATM   19  C   UNL     1     -11.590  14.508  70.454  1.00  0.00    -0.308 C  
BRANCH  19  20
HETATM   20  C   UNL     1     -11.483  15.565  71.548  1.00  0.00    -0.489 C  
BRANCH  20  21
HETATM   21  C   UNL     1     -12.836  15.807  72.207  1.00  0.00    -0.525 C  
BRANCH  21  22
HETATM   22  C   UNL     1     -12.787  15.506  73.699  1.00  0.00    -0.563 C  
HETATM   23  O   UNL     1     -11.665  14.681  73.986  1.00  0.00    -0.245 OA 
HETATM   24  H   UNL     1     -11.634  14.492  74.917  1.00  0.00     0.000 HD 
ENDBRANCH  21  22
ENDBRANCH  20  21
ENDBRANCH  19  20
ENDBRANCH  18  19
ENDBRANCH  17  18
ENDBRANCH  16  17
ENDBRANCH  15  16
ENDBRANCH  14  15
ENDBRANCH  13  14
ENDBRANCH  12  13
ENDBRANCH  11  12
ENDBRANCH  10  11
ENDBRANCH   9  10
ENDBRANCH   8   9
ENDBRANCH   7   8
ENDBRANCH   6   7
ENDBRANCH   5   6
ENDBRANCH   4   5
ENDBRANCH   3   4
ENDBRANCH   2   3
TORSDOF 20
ENDMDL
MODEL      402
REMARK 921   NORMALIZED FREE ENERGY PREDICTED BY IDOCK:   -2.44 KCAL/MOL
REMARK 922        TOTAL FREE ENERGY PREDICTED BY IDOCK:   -8.15 KCAL/MOL
REMARK 923 INTER-LIGAND FREE ENERGY PREDICTED BY IDOCK:   -5.68 KCAL/MOL
REMARK 924 INTRA-LIGAND FREE ENERGY PREDICTED BY IDOCK:   -2.48 KCAL/MOL
REMARK 927      BINDING AFFINITY PREDICTED BY RF-SCORE:    0.00 PKD
ROOT
HETATM    1  C   UNL     1      -9.728   6.303  66.502  1.00  0.00    -0.180 C  
HETATM    2  C   UNL     1     -10.920   6.779  67.314  1.00  0.00    -0.433 C  
ENDROOT
BRANCH   2   3
HETATM    3  C   UNL     1     -10.827   6.301  68.760  1.00  0.00    -0.398 C  
BRANCH   3   4
HETATM    4  C   UNL     1     -11.246   7.401  69.731  1.00  0.00    -0.110 C  
BRANCH   4   5
HETATM    5  C   UNL     1     -10.527   7.245  71.067  1.00  0.00    -0.226 C  
BRANCH   5   6
HETATM    6  C   UNL     1      -9.456   8.318  71.236  1.00  0.00    -0.219 C  
BRANCH   6   7
HETATM    7  C   UNL     1      -9.679   9.460  70.252  1.00  0.00    -0.292 C  
BRANCH   7   8
HETATM    8  C   UNL     1      -8.356   9.919  69.654  1.00  0.00    -0.181 C  
BRANCH   8   9
HETATM    9  C   UNL     1      -8.252   9.499  68.194  1.00  0.00    -0.114 C  
BRANCH   9  10
HETATM   10  C   UNL     1      -9.411  10.070  67.389  1.00  0.00    -0.167 C  
BRANCH  10  11
HETATM   11  C   UNL     1      -9.083  10.063  65.903  1.00  0.00    -0.195 C  
BRANCH  11  12
HETATM   12  C   UNL     1     -10.354  10.197  65.076  1.00  0.00    -0.059 C  
BRANCH  12  13
HETATM   13  C   UNL     1     -10.228  11.346  64.088  1.00  0.00    -0.376 C  
BRANCH  13  14
HETATM   14  C   UNL     1     -11.595  11.729  63.535  1.00  0.00    -0.487 C  
BRANCH  14  15
HETATM   15  C   UNL     1     -12.112  12.987  64.214  1.00  0.00    -0.480 C  
BRANCH  15  16
HETATM   16  C   UNL     1     -10.956  13.813  64.764  1.00  0.00    -0.396 C  
BRANCH  16  17
HETATM   17  C   UNL     1     -11.044  13.918  66.282  1.00  0.00    -0.304 C  
BRANCH  17  18
HETATM   18  C   UNL     1     -10.306  15.156  66.779  1.00  0.00    -0.273 C  
BRANCH  18  19
HETATM   19  C   UNL     1      -9.376  14.806  67.934  1.00  0.00    -0.193 C  
BRANCH  19  20
HETATM   20  C   UNL     1      -8.001  14.399  67.416  1.00  0.00    -0.220 C  
BRANCH  20  21
HETATM   21  C   UNL     1      -7.753  12.911  67.633  1.00  0.00    -0.162 C  
BRANCH  21  22
HETATM   22  C   UNL     1      -6.267  12.614  67.787  1.00  0.00    -0.131 C  
HETATM   23  O   UNL     1      -5.623  13.705  68.432  1.00  0.00    -0.082 OA 
HETATM   24  H   UNL     1      -4.696  13.520  68.528  1.00  0.00     0.000 HD 
ENDBRANCH  21  22
ENDBRANCH  20  21
ENDBRANCH  19  20
ENDBRANCH  18  19
ENDBRANCH  17  18
ENDBRANCH  16  17
ENDBRANCH  15  16
ENDBRANCH  14  15
ENDBRANCH  13  14
ENDBRANCH  12  13
ENDBRANCH  11  12
ENDBRANCH  10  11
ENDBRANCH   9  10
ENDBRANCH   8   9
ENDBRANCH   7   8
ENDBRANCH   6   7
ENDBRANCH   5   6
ENDBRANCH   4   5
ENDBRANCH   3   4
ENDBRANCH   2   3
TORSDOF 20
ENDMDL
MODEL      403
REMARK 921   NORMALIZED FREE ENERGY PREDICTED BY IDOCK:   -2.43 KCAL/MOL
REMARK 922        TOTAL FREE ENERGY PREDICTED BY IDOCK:   -8.15 KCAL/MOL
REMARK 923 INTER-LIGAND FREE ENERGY PREDICTED BY IDOCK:   -5.38 KCAL/MOL
REMARK 924 INTRA-LIGAND FREE ENERGY PREDICTED BY IDOCK:   -2.76 KCAL/MOL
REMARK 927      BINDING AFFINITY PREDICTED BY RF-SCORE:    0.00 PKD
ROOT
HETATM    1  C   UNL     1     -11.822  13.085  67.566  1.00  0.00    -0.408 C  
HETATM    2  C   UNL     1     -11.561  11.641  67.959  1.00  0.00    -0.383 C  
ENDROOT
BRANCH   2   3
HETATM    3  C   UNL     1     -10.741  10.921  66.893  1.00  0.00    -0.318 C  
BRANCH   3   4
HETATM    4  C   UNL     1      -9.252  10.956  67.227  1.00  0.00    -0.160 C  
BRANCH   4   5
HETATM    5  C   UNL     1      -9.031  11.428  68.661  1.00  0.00    -0.133 C  
BRANCH   5   6
HETATM    6  C   UNL     1      -7.639  11.043  69.151  1.00  0.00    -0.113 C  
BRANCH   6   7
HETATM    7  C   UNL     1      -7.564   9.548  69.436  1.00  0.00    -0.091 C  
BRANCH   7   8
HETATM    8  C   UNL     1      -8.766   9.097  70.255  1.00  0.00    -0.223 C  
BRANCH   8   9
HETATM    9  C   UNL     1      -8.361   8.823  71.697  1.00  0.00    -0.190 C  
BRANCH   9  10
HETATM   10  C   UNL     1      -9.591   8.591  72.563  1.00  0.00    -0.324 C  
BRANCH  10  11
HETATM   11  C   UNL     1     -10.861   8.729  71.735  1.00  0.00    -0.416 C  
BRANCH  11  12
HETATM   12  C   UNL     1     -11.980   7.886  72.329  1.00  0.00    -0.387 C  
BRANCH  12  13
HETATM   13  C   UNL     1     -12.397   6.793  71.358  1.00  0.00    -0.403 C  
BRANCH  13  14
HETATM   14  C   UNL     1     -11.381   6.661  70.232  1.00  0.00    -0.431 C  
BRANCH  14  15
HETATM   15  C   UNL     1     -10.755   5.274  70.238  1.00  0.00    -0.221 C  
BRANCH  15  16
HETATM   16  C   UNL     1      -9.757   5.141  71.380  1.00  0.00    -0.225 C  
BRANCH  16  17
HETATM   17  C   UNL     1      -8.370   5.592  70.937  1.00  0.00    -0.120 C  
BRANCH  17  18
HETATM   18  C   UNL     1      -7.950   4.866  69.665  1.00  0.00    -0.067 C  
BRANCH  18  19
HETATM   19  C   UNL     1      -7.059   5.754  68.802  1.00  0.00    -0.073 C  
BRANCH  19  20
HETATM   20  C   UNL     1      -7.734   6.063  67.470  1.00  0.00    -0.097 C  
BRANCH  20  21
HETATM   21  C   UNL     1      -8.807   7.133  67.636  1.00  0.00    -0.119 C  
BRANCH  21  22
HETATM   22  C   UNL     1      -9.802   7.101  66.483  1.00  0.00    -0.120 C  
HETATM   23  O   UNL     1      -9.144   7.443  65.270  1.00  0.00    -0.363 OA 
HETATM   24  H   UNL     1      -9.765   7.423  64.551  1.00  0.00     0.000 HD 
ENDBRANCH  21  22
ENDBRANCH  20  21
ENDBRANCH  19  20
ENDBRANCH  18  19
ENDBRANCH  17  18
ENDBRANCH  16  17
ENDBRANCH  15  16
ENDBRANCH  14  15
ENDBRANCH  13  14
ENDBRANCH  12  13
ENDBRANCH  11  12
ENDBRANCH  10  11
ENDBRANCH   9  10
ENDBRANCH   8   9
ENDBRANCH   7   8
ENDBRANCH   6   7
ENDBRANCH   5   6
ENDBRANCH   4   5
ENDBRANCH   3   4
ENDBRANCH   2   3
TORSDOF 20
ENDMDL
MODEL      404
REMARK 921   NORMALIZED FREE ENERGY PREDICTED BY IDOCK:   -2.43 KCAL/MOL
REMARK 922        TOTAL FREE ENERGY PREDICTED BY IDOCK:   -8.13 KCAL/MOL
REMARK 923 INTER-LIGAND FREE ENERGY PREDICTED BY IDOCK:   -5.93 KCAL/MOL
REMARK 924 INTRA-LIGAND FREE ENERGY PREDICTED BY IDOCK:   -2.20 KCAL/MOL
REMARK 927      BINDING AFFINITY PREDICTED BY RF-SCORE:    0.00 PKD
ROOT
HETATM    1  C   UNL     1      -8.336   6.701  64.985  1.00  0.00    -0.067 C  
HETATM    2  C   UNL     1      -7.746   6.970  66.359  1.00  0.00    -0.104 C  
ENDROOT
BRANCH   2   3
HETATM    3  C   UNL     1      -8.698   7.804  67.211  1.00  0.00    -0.128 C  
BRANCH   3   4
HETATM    4  C   UNL     1      -7.947   8.528  68.326  1.00  0.00    -0.114 C  
BRANCH   4   5
HETATM    5  C   UNL     1      -7.861  10.023  68.037  1.00  0.00    -0.089 C  
BRANCH   5   6
HETATM    6  C   UNL     1      -9.253  10.630  67.899  1.00  0.00    -0.150 C  
BRANCH   6   7
HETATM    7  C   UNL     1      -9.377  11.401  66.590  1.00  0.00    -0.198 C  
BRANCH   7   8
HETATM    8  C   UNL     1     -10.822  11.415  66.110  1.00  0.00    -0.310 C  
BRANCH   8   9
HETATM    9  C   UNL     1     -10.927  12.079  64.744  1.00  0.00    -0.361 C  
BRANCH   9  10
HETATM   10  C   UNL     1     -12.318  12.660  64.537  1.00  0.00    -0.537 C  
BRANCH  10  11
HETATM   11  C   UNL     1     -12.371  14.104  65.017  1.00  0.00    -0.452 C  
BRANCH  11  12
HETATM   12  C   UNL     1     -11.064  14.818  64.704  1.00  0.00    -0.337 C  
BRANCH  12  13
HETATM   13  C   UNL     1     -10.440  15.370  65.976  1.00  0.00    -0.333 C  
BRANCH  13  14
HETATM   14  C   UNL     1     -11.495  15.531  67.063  1.00  0.00    -0.036 C  
BRANCH  14  15
HETATM   15  C   UNL     1     -10.838  15.687  68.426  1.00  0.00    -0.290 C  
BRANCH  15  16
HETATM   16  C   UNL     1     -10.540  14.324  69.037  1.00  0.00    -0.243 C  
BRANCH  16  17
HETATM   17  C   UNL     1     -11.700  13.363  68.800  1.00  0.00    -0.377 C  
BRANCH  17  18
HETATM   18  C   UNL     1     -12.267  12.868  70.125  1.00  0.00    -0.336 C  
BRANCH  18  19
HETATM   19  C   UNL     1     -12.165  13.948  71.196  1.00  0.00    -0.390 C  
BRANCH  19  20
HETATM   20  C   UNL     1     -12.760  13.460  72.513  1.00  0.00    -0.053 C  
BRANCH  20  21
HETATM   21  C   UNL     1     -12.191  14.240  73.692  1.00  0.00     0.345 C  
BRANCH  21  22
HETATM   22  C   UNL     1     -12.368  15.740  73.500  1.00  0.00    -0.552 C  
HETATM   23  O   UNL     1     -13.751  16.070  73.536  1.00  0.00    -0.814 OA 
HETATM   24  H   UNL     1     -13.862  17.006  73.416  1.00  0.00     0.000 HD 
ENDBRANCH  21  22
ENDBRANCH  20  21
ENDBRANCH  19  20
ENDBRANCH  18  19
ENDBRANCH  17  18
ENDBRANCH  16  17
ENDBRANCH  15  16
ENDBRANCH  14  15
ENDBRANCH  13  14
ENDBRANCH  12  13
ENDBRANCH  11  12
ENDBRANCH  10  11
ENDBRANCH   9  10
ENDBRANCH   8   9
ENDBRANCH   7   8
ENDBRANCH   6   7
ENDBRANCH   5   6
ENDBRANCH   4   5
ENDBRANCH   3   4
ENDBRANCH   2   3
TORSDOF 20
ENDMDL
MODEL      405
REMARK 921   NORMALIZED FREE ENERGY PREDICTED BY IDOCK:   -2.42 KCAL/MOL
REMARK 922        TOTAL FREE ENERGY PREDICTED BY IDOCK:   -8.11 KCAL/MOL
REMARK 923 INTER-LIGAND FREE ENERGY PREDICTED BY IDOCK:   -6.28 KCAL/MOL
REMARK 924 INTRA-LIGAND FREE ENERGY PREDICTED BY IDOCK:   -1.84 KCAL/MOL
REMARK 927      BINDING AFFINITY PREDICTED BY RF-SCORE:    0.00 PKD
ROOT
HETATM    1  C   UNL     1     -10.461  14.082  67.997  1.00  0.00    -0.241 C  
HETATM    2  C   UNL     1     -11.800  13.883  68.687  1.00  0.00    -0.407 C  
ENDROOT
BRANCH   2   3
HETATM    3  C   UNL     1     -11.973  14.863  69.843  1.00  0.00    -0.376 C  
BRANCH   3   4
HETATM    4  C   UNL     1     -12.550  14.166  71.073  1.00  0.00    -0.439 C  
BRANCH   4   5
HETATM    5  C   UNL     1     -12.334  12.658  70.990  1.00  0.00    -0.307 C  
BRANCH   5   6
HETATM    6  C   UNL     1     -13.173  11.932  72.036  1.00  0.00    -0.461 C  
BRANCH   6   7
HETATM    7  C   UNL     1     -13.046  10.422  71.874  1.00  0.00    -0.563 C  
BRANCH   7   8
HETATM    8  C   UNL     1     -11.815  10.073  71.048  1.00  0.00    -0.476 C  
BRANCH   8   9
HETATM    9  C   UNL     1     -10.860   9.200  71.851  1.00  0.00    -0.353 C  
BRANCH   9  10
HETATM   10  C   UNL     1      -9.959   8.398  70.923  1.00  0.00    -0.230 C  
BRANCH  10  11
HETATM   11  C   UNL     1      -9.847   6.957  71.400  1.00  0.00    -0.184 C  
BRANCH  11  12
HETATM   12  C   UNL     1     -11.147   6.208  71.146  1.00  0.00    -0.360 C  
BRANCH  12  13
HETATM   13  C   UNL     1     -11.626   6.442  69.722  1.00  0.00    -0.397 C  
BRANCH  13  14
HETATM   14  C   UNL     1     -10.659   5.821  68.722  1.00  0.00    -0.321 C  
BRANCH  14  15
HETATM   15  C   UNL     1     -10.904   6.376  67.327  1.00  0.00    -0.463 C  
BRANCH  15  16
HETATM   16  C   UNL     1      -9.669   7.108  66.817  1.00  0.00    -0.252 C  
BRANCH  16  17
HETATM   17  C   UNL     1      -8.516   6.972  67.806  1.00  0.00    -0.120 C  
BRANCH  17  18
HETATM   18  C   UNL     1      -7.236   7.556  67.222  1.00  0.00    -0.086 C  
BRANCH  18  19
HETATM   19  C   UNL     1      -6.154   6.487  67.109  1.00  0.00    -0.028 C  
BRANCH  19  20
HETATM   20  C   UNL     1      -6.775   5.113  66.882  1.00  0.00    -0.058 C  
BRANCH  20  21
HETATM   21  C   UNL     1      -6.160   4.075  67.813  1.00  0.00    -0.032 C  
BRANCH  21  22
HETATM   22  C   UNL     1      -7.041   2.836  67.917  1.00  0.00    -0.049 C  
HETATM   23  O   UNL     1      -8.359   3.213  68.293  1.00  0.00    -0.075 OA 
HETATM   24  H   UNL     1      -8.908   2.440  68.358  1.00  0.00     0.000 HD 
ENDBRANCH  21  22
ENDBRANCH  20  21
ENDBRANCH  19  20
ENDBRANCH  18  19
ENDBRANCH  17  18
ENDBRANCH  16  17
ENDBRANCH  15  16
ENDBRANCH  14  15
ENDBRANCH  13  14
ENDBRANCH  12  13
ENDBRANCH  11  12
ENDBRANCH  10  11
ENDBRANCH   9  10
ENDBRANCH   8   9
ENDBRANCH   7   8
ENDBRANCH   6   7
ENDBRANCH   5   6
ENDBRANCH   4   5
ENDBRANCH   3   4
ENDBRANCH   2   3
TORSDOF 20
ENDMDL
MODEL      406
REMARK 921   NORMALIZED FREE ENERGY PREDICTED BY IDOCK:   -2.42 KCAL/MOL
REMARK 922        TOTAL FREE ENERGY PREDICTED BY IDOCK:   -8.11 KCAL/MOL
REMARK 923 INTER-LIGAND FREE ENERGY PREDICTED BY IDOCK:   -5.86 KCAL/MOL
REMARK 924 INTRA-LIGAND FREE ENERGY PREDICTED BY IDOCK:   -2.25 KCAL/MOL
REMARK 927      BINDING AFFINITY PREDICTED BY RF-SCORE:    0.00 PKD
ROOT
HETATM    1  C   UNL     1      -8.354  20.125  66.458  1.00  0.00    -0.314 C  
HETATM    2  C   UNL     1      -9.738  19.539  66.234  1.00  0.00    -0.481 C  
ENDROOT
BRANCH   2   3
HETATM    3  C   UNL     1     -10.479  19.360  67.555  1.00  0.00    -0.577 C  
BRANCH   3   4
HETATM    4  C   UNL     1     -10.767  17.886  67.829  1.00  0.00    -0.339 C  
BRANCH   4   5
HETATM    5  C   UNL     1     -10.005  16.996  66.852  1.00  0.00    -0.289 C  
BRANCH   5   6
HETATM    6  C   UNL     1      -9.488  15.743  67.550  1.00  0.00    -0.218 C  
BRANCH   6   7
HETATM    7  C   UNL     1      -8.967  16.078  68.942  1.00  0.00    -0.239 C  
BRANCH   7   8
HETATM    8  C   UNL     1      -7.482  16.414  68.892  1.00  0.00    -0.214 C  
BRANCH   8   9
HETATM    9  C   UNL     1      -6.646  15.215  69.320  1.00  0.00    -0.139 C  
BRANCH   9  10
HETATM   10  C   UNL     1      -6.207  14.409  68.106  1.00  0.00    -0.142 C  
BRANCH  10  11
HETATM   11  C   UNL     1      -6.192  12.921  68.428  1.00  0.00    -0.079 C  
BRANCH  11  12
HETATM   12  C   UNL     1      -7.104  12.160  67.477  1.00  0.00    -0.135 C  
BRANCH  12  13
HETATM   13  C   UNL     1      -7.148  10.686  67.847  1.00  0.00    -0.086 C  
BRANCH  13  14
HETATM   14  C   UNL     1      -6.795   9.821  66.644  1.00  0.00    -0.084 C  
BRANCH  14  15
HETATM   15  C   UNL     1      -7.359  10.427  65.367  1.00  0.00    -0.124 C  
BRANCH  15  16
HETATM   16  C   UNL     1      -8.721   9.826  65.045  1.00  0.00    -0.198 C  
BRANCH  16  17
HETATM   17  C   UNL     1      -9.584  10.825  64.283  1.00  0.00    -0.333 C  
BRANCH  17  18
HETATM   18  C   UNL     1     -10.646  11.424  65.197  1.00  0.00    -0.352 C  
BRANCH  18  19
HETATM   19  C   UNL     1     -10.553  10.831  66.599  1.00  0.00    -0.291 C  
BRANCH  19  20
HETATM   20  C   UNL     1     -10.767  11.910  67.656  1.00  0.00    -0.253 C  
BRANCH  20  21
HETATM   21  C   UNL     1     -11.771  11.453  68.707  1.00  0.00    -0.404 C  
BRANCH  21  22
HETATM   22  C   UNL     1     -11.444  12.038  70.075  1.00  0.00    -0.101 C  
HETATM   23  O   UNL     1     -11.143  13.422  69.947  1.00  0.00    -0.468 OA 
HETATM   24  H   UNL     1     -10.939  13.787  70.800  1.00  0.00     0.000 HD 
ENDBRANCH  21  22
ENDBRANCH  20  21
ENDBRANCH  19  20
ENDBRANCH  18  19
ENDBRANCH  17  18
ENDBRANCH  16  17
ENDBRANCH  15  16
ENDBRANCH  14  15
ENDBRANCH  13  14
ENDBRANCH  12  13
ENDBRANCH  11  12
ENDBRANCH  10  11
ENDBRANCH   9  10
ENDBRANCH   8   9
ENDBRANCH   7   8
ENDBRANCH   6   7
ENDBRANCH   5   6
ENDBRANCH   4   5
ENDBRANCH   3   4
ENDBRANCH   2   3
TORSDOF 20
ENDMDL
MODEL      407
REMARK 921   NORMALIZED FREE ENERGY PREDICTED BY IDOCK:   -2.41 KCAL/MOL
REMARK 922        TOTAL FREE ENERGY PREDICTED BY IDOCK:   -8.09 KCAL/MOL
REMARK 923 INTER-LIGAND FREE ENERGY PREDICTED BY IDOCK:   -5.77 KCAL/MOL
REMARK 924 INTRA-LIGAND FREE ENERGY PREDICTED BY IDOCK:   -2.32 KCAL/MOL
REMARK 927      BINDING AFFINITY PREDICTED BY RF-SCORE:    0.00 PKD
ROOT
HETATM    1  C   UNL     1      -5.741  13.615  70.151  1.00  0.00    -0.136 C  
HETATM    2  C   UNL     1      -6.764  14.592  69.598  1.00  0.00    -0.163 C  
ENDROOT
BRANCH   2   3
HETATM    3  C   UNL     1      -6.637  14.722  68.083  1.00  0.00    -0.138 C  
BRANCH   3   4
HETATM    4  C   UNL     1      -7.536  13.719  67.367  1.00  0.00    -0.153 C  
BRANCH   4   5
HETATM    5  C   UNL     1      -8.939  13.725  67.968  1.00  0.00    -0.187 C  
BRANCH   5   6
HETATM    6  C   UNL     1      -9.382  12.310  68.327  1.00  0.00    -0.199 C  
BRANCH   6   7
HETATM    7  C   UNL     1     -10.884  12.151  68.132  1.00  0.00    -0.256 C  
BRANCH   7   8
HETATM    8  C   UNL     1     -11.646  13.131  69.015  1.00  0.00    -0.360 C  
BRANCH   8   9
HETATM    9  C   UNL     1     -12.154  12.438  70.272  1.00  0.00    -0.377 C  
BRANCH   9  10
HETATM   10  C   UNL     1     -12.309  10.943  70.032  1.00  0.00    -0.385 C  
BRANCH  10  11
HETATM   11  C   UNL     1     -12.436  10.200  71.355  1.00  0.00    -0.524 C  
BRANCH  11  12
HETATM   12  C   UNL     1     -11.306   9.193  71.511  1.00  0.00    -0.439 C  
BRANCH  12  13
HETATM   13  C   UNL     1     -11.789   7.963  72.264  1.00  0.00    -0.404 C  
BRANCH  13  14
HETATM   14  C   UNL     1     -10.748   7.515  73.282  1.00  0.00    -0.437 C  
BRANCH  14  15
HETATM   15  C   UNL     1      -9.385   8.100  72.944  1.00  0.00    -0.343 C  
BRANCH  15  16
HETATM   16  C   UNL     1      -8.314   7.017  72.977  1.00  0.00    -0.122 C  
BRANCH  16  17
HETATM   17  C   UNL     1      -7.191   7.342  71.999  1.00  0.00    -0.071 C  
BRANCH  17  18
HETATM   18  C   UNL     1      -7.383   8.731  71.402  1.00  0.00    -0.117 C  
BRANCH  18  19
HETATM   19  C   UNL     1      -7.431   8.664  69.879  1.00  0.00    -0.056 C  
BRANCH  19  20
HETATM   20  C   UNL     1      -7.727   7.243  69.410  1.00  0.00    -0.107 C  
BRANCH  20  21
HETATM   21  C   UNL     1      -9.193   7.089  69.026  1.00  0.00    -0.137 C  
BRANCH  21  22
HETATM   22  C   UNL     1      -9.721   8.344  68.343  1.00  0.00    -0.156 C  
HETATM   23  O   UNL     1     -10.913   8.039  67.631  1.00  0.00    -0.504 OA 
HETATM   24  H   UNL     1     -11.242   8.822  67.205  1.00  0.00     0.000 HD 
ENDBRANCH  21  22
ENDBRANCH  20  21
ENDBRANCH  19  20
ENDBRANCH  18  19
ENDBRANCH  17  18
ENDBRANCH  16  17
ENDBRANCH  15  16
ENDBRANCH  14  15
ENDBRANCH  13  14
ENDBRANCH  12  13
ENDBRANCH  11  12
ENDBRANCH  10  11
ENDBRANCH   9  10
ENDBRANCH   8   9
ENDBRANCH   7   8
ENDBRANCH   6   7
ENDBRANCH   5   6
ENDBRANCH   4   5
ENDBRANCH   3   4
ENDBRANCH   2   3
TORSDOF 20
ENDMDL
MODEL      408
REMARK 921   NORMALIZED FREE ENERGY PREDICTED BY IDOCK:   -2.40 KCAL/MOL
REMARK 922        TOTAL FREE ENERGY PREDICTED BY IDOCK:   -8.07 KCAL/MOL
REMARK 923 INTER-LIGAND FREE ENERGY PREDICTED BY IDOCK:   -5.63 KCAL/MOL
REMARK 924 INTRA-LIGAND FREE ENERGY PREDICTED BY IDOCK:   -2.45 KCAL/MOL
REMARK 927      BINDING AFFINITY PREDICTED BY RF-SCORE:    0.00 PKD
ROOT
HETATM    1  C   UNL     1     -10.695   5.696  66.761  1.00  0.00    -0.358 C  
HETATM    2  C   UNL     1     -10.380   5.405  68.219  1.00  0.00    -0.213 C  
ENDROOT
BRANCH   2   3
HETATM    3  C   UNL     1      -9.222   6.265  68.714  1.00  0.00    -0.125 C  
BRANCH   3   4
HETATM    4  C   UNL     1      -9.550   7.750  68.597  1.00  0.00    -0.154 C  
BRANCH   4   5
HETATM    5  C   UNL     1      -9.443   8.436  69.955  1.00  0.00    -0.164 C  
BRANCH   5   6
HETATM    6  C   UNL     1     -10.386   7.791  70.965  1.00  0.00    -0.215 C  
BRANCH   6   7
HETATM    7  C   UNL     1     -11.050   8.851  71.835  1.00  0.00    -0.442 C  
BRANCH   7   8
HETATM    8  C   UNL     1     -12.242   9.468  71.114  1.00  0.00    -0.421 C  
BRANCH   8   9
HETATM    9  C   UNL     1     -12.079  10.978  71.003  1.00  0.00    -0.406 C  
BRANCH   9  10
HETATM   10  C   UNL     1     -12.965  11.688  72.016  1.00  0.00    -0.365 C  
BRANCH  10  11
HETATM   11  C   UNL     1     -13.488  12.998  71.444  1.00  0.00    -0.062 C  
BRANCH  11  12
HETATM   12  C   UNL     1     -12.334  13.932  71.109  1.00  0.00    -0.440 C  
BRANCH  12  13
HETATM   13  C   UNL     1     -12.512  14.522  69.719  1.00  0.00    -0.259 C  
BRANCH  13  14
HETATM   14  C   UNL     1     -11.451  13.982  68.769  1.00  0.00    -0.327 C  
BRANCH  14  15
HETATM   15  C   UNL     1     -12.101  13.338  67.554  1.00  0.00    -0.312 C  
BRANCH  15  16
HETATM   16  C   UNL     1     -11.747  11.858  67.478  1.00  0.00    -0.335 C  
BRANCH  16  17
HETATM   17  C   UNL     1     -11.081  11.532  66.146  1.00  0.00    -0.302 C  
BRANCH  17  18
HETATM   18  C   UNL     1      -9.569  11.703  66.246  1.00  0.00    -0.241 C  
BRANCH  18  19
HETATM   19  C   UNL     1      -9.040  11.099  67.542  1.00  0.00    -0.146 C  
BRANCH  19  20
HETATM   20  C   UNL     1      -8.024  12.031  68.196  1.00  0.00    -0.152 C  
BRANCH  20  21
HETATM   21  C   UNL     1      -6.761  11.274  68.587  1.00  0.00    -0.071 C  
BRANCH  21  22
HETATM   22  C   UNL     1      -6.501  10.107  67.643  1.00  0.00    -0.063 C  
HETATM   23  O   UNL     1      -5.701  10.540  66.551  1.00  0.00    -0.056 OA 
HETATM   24  H   UNL     1      -5.539   9.813  65.962  1.00  0.00     0.000 HD 
ENDBRANCH  21  22
ENDBRANCH  20  21
ENDBRANCH  19  20
ENDBRANCH  18  19
ENDBRANCH  17  18
ENDBRANCH  16  17
ENDBRANCH  15  16
ENDBRANCH  14  15
ENDBRANCH  13  14
ENDBRANCH  12  13
ENDBRANCH  11  12
ENDBRANCH  10  11
ENDBRANCH   9  10
ENDBRANCH   8   9
ENDBRANCH   7   8
ENDBRANCH   6   7
ENDBRANCH   5   6
ENDBRANCH   4   5
ENDBRANCH   3   4
ENDBRANCH   2   3
TORSDOF 20
ENDMDL
MODEL      409
REMARK 921   NORMALIZED FREE ENERGY PREDICTED BY IDOCK:   -2.37 KCAL/MOL
REMARK 922        TOTAL FREE ENERGY PREDICTED BY IDOCK:   -8.01 KCAL/MOL
REMARK 923 INTER-LIGAND FREE ENERGY PREDICTED BY IDOCK:   -6.29 KCAL/MOL
REMARK 924 INTRA-LIGAND FREE ENERGY PREDICTED BY IDOCK:   -1.72 KCAL/MOL
REMARK 927      BINDING AFFINITY PREDICTED BY RF-SCORE:    0.00 PKD
ROOT
HETATM    1  C   UNL     1     -10.403  20.114  66.433  1.00  0.00    -0.510 C  
HETATM    2  C   UNL     1      -9.694  18.813  66.098  1.00  0.00    -0.280 C  
ENDROOT
BRANCH   2   3
HETATM    3  C   UNL     1     -10.654  17.629  66.167  1.00  0.00    -0.220 C  
BRANCH   3   4
HETATM    4  C   UNL     1     -10.388  16.777  67.405  1.00  0.00    -0.302 C  
BRANCH   4   5
HETATM    5  C   UNL     1      -8.897  16.743  67.726  1.00  0.00    -0.208 C  
BRANCH   5   6
HETATM    6  C   UNL     1      -8.282  15.410  67.313  1.00  0.00    -0.222 C  
BRANCH   6   7
HETATM    7  C   UNL     1      -9.141  14.726  66.257  1.00  0.00    -0.231 C  
BRANCH   7   8
HETATM    8  C   UNL     1      -9.348  13.257  66.602  1.00  0.00    -0.247 C  
BRANCH   8   9
HETATM    9  C   UNL     1      -9.371  13.059  68.112  1.00  0.00    -0.217 C  
BRANCH   9  10
HETATM   10  C   UNL     1     -10.796  13.143  68.640  1.00  0.00    -0.287 C  
BRANCH  10  11
HETATM   11  C   UNL     1     -11.670  12.078  67.991  1.00  0.00    -0.398 C  
BRANCH  11  12
HETATM   12  C   UNL     1     -11.769  10.851  68.887  1.00  0.00    -0.376 C  
BRANCH  12  13
HETATM   13  C   UNL     1     -11.984  11.265  70.335  1.00  0.00    -0.471 C  
BRANCH  13  14
HETATM   14  C   UNL     1     -12.395  10.066  71.179  1.00  0.00    -0.477 C  
BRANCH  14  15
HETATM   15  C   UNL     1     -11.423   8.913  70.979  1.00  0.00    -0.351 C  
BRANCH  15  16
HETATM   16  C   UNL     1     -10.102   9.199  71.680  1.00  0.00    -0.346 C  
BRANCH  16  17
HETATM   17  C   UNL     1      -8.936   9.059  70.708  1.00  0.00    -0.286 C  
BRANCH  17  18
HETATM   18  C   UNL     1      -8.149   7.785  70.993  1.00  0.00    -0.098 C  
BRANCH  18  19
HETATM   19  C   UNL     1      -7.627   7.169  69.699  1.00  0.00    -0.104 C  
BRANCH  19  20
HETATM   20  C   UNL     1      -8.767   6.941  68.712  1.00  0.00    -0.129 C  
BRANCH  20  21
HETATM   21  C   UNL     1      -9.234   5.490  68.743  1.00  0.00    -0.142 C  
BRANCH  21  22
HETATM   22  C   UNL     1      -9.810   5.067  67.398  1.00  0.00    -0.176 C  
HETATM   23  O   UNL     1      -9.605   3.673  67.205  1.00  0.00    -0.217 OA 
HETATM   24  H   UNL     1      -9.965   3.409  66.366  1.00  0.00     0.000 HD 
ENDBRANCH  21  22
ENDBRANCH  20  21
ENDBRANCH  19  20
ENDBRANCH  18  19
ENDBRANCH  17  18
ENDBRANCH  16  17
ENDBRANCH  15  16
ENDBRANCH  14  15
ENDBRANCH  13  14
ENDBRANCH  12  13
ENDBRANCH  11  12
ENDBRANCH  10  11
ENDBRANCH   9  10
ENDBRANCH   8   9
ENDBRANCH   7   8
ENDBRANCH   6   7
ENDBRANCH   5   6
ENDBRANCH   4   5
ENDBRANCH   3   4
ENDBRANCH   2   3
TORSDOF 20
ENDMDL
MODEL      410
REMARK 921   NORMALIZED FREE ENERGY PREDICTED BY IDOCK:   -2.35 KCAL/MOL
REMARK 922        TOTAL FREE ENERGY PREDICTED BY IDOCK:   -7.97 KCAL/MOL
REMARK 923 INTER-LIGAND FREE ENERGY PREDICTED BY IDOCK:   -6.78 KCAL/MOL
REMARK 924 INTRA-LIGAND FREE ENERGY PREDICTED BY IDOCK:   -1.19 KCAL/MOL
REMARK 927      BINDING AFFINITY PREDICTED BY RF-SCORE:    0.00 PKD
ROOT
HETATM    1  C   UNL     1     -10.589   9.271  69.098  1.00  0.00    -0.228 C  
HETATM    2  C   UNL     1     -10.661   8.502  70.406  1.00  0.00    -0.242 C  
ENDROOT
BRANCH   2   3
HETATM    3  C   UNL     1     -11.569   9.207  71.409  1.00  0.00    -0.411 C  
BRANCH   3   4
HETATM    4  C   UNL     1     -12.278  10.396  70.768  1.00  0.00    -0.457 C  
BRANCH   4   5
HETATM    5  C   UNL     1     -13.110  11.150  71.801  1.00  0.00    -0.536 C  
BRANCH   5   6
HETATM    6  C   UNL     1     -12.907  12.656  71.668  1.00  0.00    -0.367 C  
BRANCH   6   7
HETATM    7  C   UNL     1     -14.235  13.391  71.793  1.00  0.00     0.137 C  
BRANCH   7   8
HETATM    8  C   UNL     1     -14.060  14.872  71.481  1.00  0.00    -0.593 C  
BRANCH   8   9
HETATM    9  C   UNL     1     -13.167  15.537  72.520  1.00  0.00    -0.565 C  
BRANCH   9  10
HETATM   10  C   UNL     1     -11.872  16.020  71.882  1.00  0.00    -0.619 C  
BRANCH  10  11
HETATM   11  C   UNL     1     -11.502  15.143  70.695  1.00  0.00    -0.345 C  
BRANCH  11  12
HETATM   12  C   UNL     1     -10.230  15.652  70.032  1.00  0.00    -0.277 C  
BRANCH  12  13
HETATM   13  C   UNL     1     -10.497  16.957  69.298  1.00  0.00    -0.319 C  
BRANCH  13  14
HETATM   14  C   UNL     1     -10.493  16.734  67.791  1.00  0.00    -0.335 C  
BRANCH  14  15
HETATM   15  C   UNL     1     -10.610  15.252  67.470  1.00  0.00    -0.273 C  
BRANCH  15  16
HETATM   16  C   UNL     1      -9.772  14.901  66.248  1.00  0.00    -0.320 C  
BRANCH  16  17
HETATM   17  C   UNL     1      -8.289  14.881  66.600  1.00  0.00    -0.059 C  
BRANCH  17  18
HETATM   18  C   UNL     1      -8.050  14.080  67.874  1.00  0.00    -0.156 C  
BRANCH  18  19
HETATM   19  C   UNL     1      -6.669  14.375  68.449  1.00  0.00    -0.103 C  
BRANCH  19  20
HETATM   20  C   UNL     1      -6.695  15.647  69.289  1.00  0.00    -0.158 C  
BRANCH  20  21
HETATM   21  C   UNL     1      -6.034  16.804  68.550  1.00  0.00    -0.131 C  
BRANCH  21  22
HETATM   22  C   UNL     1      -5.284  17.717  69.511  1.00  0.00    -0.182 C  
HETATM   23  O   UNL     1      -5.280  17.146  70.813  1.00  0.00    -0.244 OA 
HETATM   24  H   UNL     1      -4.812  17.716  71.412  1.00  0.00     0.000 HD 
ENDBRANCH  21  22
ENDBRANCH  20  21
ENDBRANCH  19  20
ENDBRANCH  18  19
ENDBRANCH  17  18
ENDBRANCH  16  17
ENDBRANCH  15  16
ENDBRANCH  14  15
ENDBRANCH  13  14
ENDBRANCH  12  13
ENDBRANCH  11  12
ENDBRANCH  10  11
ENDBRANCH   9  10
ENDBRANCH   8   9
ENDBRANCH   7   8
ENDBRANCH   6   7
ENDBRANCH   5   6
ENDBRANCH   4   5
ENDBRANCH   3   4
ENDBRANCH   2   3
TORSDOF 20
ENDMDL
MODEL      411
REMARK 921   NORMALIZED FREE ENERGY PREDICTED BY IDOCK:   -2.33 KCAL/MOL
REMARK 922        TOTAL FREE ENERGY PREDICTED BY IDOCK:   -7.93 KCAL/MOL
REMARK 923 INTER-LIGAND FREE ENERGY PREDICTED BY IDOCK:   -5.29 KCAL/MOL
REMARK 924 INTRA-LIGAND FREE ENERGY PREDICTED BY IDOCK:   -2.63 KCAL/MOL
REMARK 927      BINDING AFFINITY PREDICTED BY RF-SCORE:    0.00 PKD
ROOT
HETATM    1  C   UNL     1     -10.851   8.636  72.547  1.00  0.00    -0.210 C  
HETATM    2  C   UNL     1     -10.581   7.996  71.196  1.00  0.00    -0.235 C  
ENDROOT
BRANCH   2   3
HETATM    3  C   UNL     1     -11.160   8.837  70.063  1.00  0.00    -0.169 C  
BRANCH   3   4
HETATM    4  C   UNL     1     -11.062  10.327  70.378  1.00  0.00    -0.391 C  
BRANCH   4   5
HETATM    5  C   UNL     1     -11.949  11.138  69.437  1.00  0.00    -0.420 C  
BRANCH   5   6
HETATM    6  C   UNL     1     -11.190  12.335  68.874  1.00  0.00    -0.323 C  
BRANCH   6   7
HETATM    7  C   UNL     1     -11.925  12.921  67.675  1.00  0.00    -0.344 C  
BRANCH   7   8
HETATM    8  C   UNL     1     -10.944  13.584  66.717  1.00  0.00    -0.297 C  
BRANCH   8   9
HETATM    9  C   UNL     1      -9.985  12.555  66.134  1.00  0.00    -0.267 C  
BRANCH   9  10
HETATM   10  C   UNL     1     -10.728  11.584  65.228  1.00  0.00    -0.337 C  
BRANCH  10  11
HETATM   11  C   UNL     1      -9.868  10.362  64.934  1.00  0.00    -0.400 C  
BRANCH  11  12
HETATM   12  C   UNL     1      -9.791   9.459  66.156  1.00  0.00    -0.356 C  
BRANCH  12  13
HETATM   13  C   UNL     1      -8.354   9.343  66.642  1.00  0.00    -0.119 C  
BRANCH  13  14
HETATM   14  C   UNL     1      -8.192  10.014  68.000  1.00  0.00    -0.116 C  
BRANCH  14  15
HETATM   15  C   UNL     1      -7.530   9.067  68.988  1.00  0.00    -0.074 C  
BRANCH  15  16
HETATM   16  C   UNL     1      -7.628   7.628  68.499  1.00  0.00    -0.110 C  
BRANCH  16  17
HETATM   17  C   UNL     1      -8.081   6.706  69.625  1.00  0.00    -0.126 C  
BRANCH  17  18
HETATM   18  C   UNL     1      -7.055   5.604  69.862  1.00  0.00    -0.067 C  
BRANCH  18  19
HETATM   19  C   UNL     1      -7.173   5.049  71.278  1.00  0.00    -0.068 C  
BRANCH  19  20
HETATM   20  C   UNL     1      -8.453   4.235  71.433  1.00  0.00    -0.110 C  
BRANCH  20  21
HETATM   21  C   UNL     1      -9.137   4.540  72.760  1.00  0.00    -0.134 C  
BRANCH  21  22
HETATM   22  C   UNL     1     -10.649   4.631  72.594  1.00  0.00    -0.195 C  
HETATM   23  O   UNL     1     -11.216   5.298  73.714  1.00  0.00    -0.427 OA 
HETATM   24  H   UNL     1     -12.159   5.354  73.611  1.00  0.00     0.000 HD 
ENDBRANCH  21  22
ENDBRANCH  20  21
ENDBRANCH  19  20
ENDBRANCH  18  19
ENDBRANCH  17  18
ENDBRANCH  16  17
ENDBRANCH  15  16
ENDBRANCH  14  15
ENDBRANCH  13  14
ENDBRANCH  12  13
ENDBRANCH  11  12
ENDBRANCH  10  11
ENDBRANCH   9  10
ENDBRANCH   8   9
ENDBRANCH   7   8
ENDBRANCH   6   7
ENDBRANCH   5   6
ENDBRANCH   4   5
ENDBRANCH   3   4
ENDBRANCH   2   3
TORSDOF 20
ENDMDL
MODEL      412
REMARK 921   NORMALIZED FREE ENERGY PREDICTED BY IDOCK:   -2.32 KCAL/MOL
REMARK 922        TOTAL FREE ENERGY PREDICTED BY IDOCK:   -7.90 KCAL/MOL
REMARK 923 INTER-LIGAND FREE ENERGY PREDICTED BY IDOCK:   -5.48 KCAL/MOL
REMARK 924 INTRA-LIGAND FREE ENERGY PREDICTED BY IDOCK:   -2.42 KCAL/MOL
REMARK 927      BINDING AFFINITY PREDICTED BY RF-SCORE:    0.00 PKD
ROOT
HETATM    1  C   UNL     1     -11.287  13.420  66.954  1.00  0.00    -0.351 C  
HETATM    2  C   UNL     1     -12.156  12.561  66.051  1.00  0.00    -0.390 C  
ENDROOT
BRANCH   2   3
HETATM    3  C   UNL     1     -11.679  12.626  64.604  1.00  0.00    -0.411 C  
BRANCH   3   4
HETATM    4  C   UNL     1     -10.804  11.425  64.257  1.00  0.00    -0.416 C  
BRANCH   4   5
HETATM    5  C   UNL     1      -9.665  11.835  63.329  1.00  0.00    -0.350 C  
BRANCH   5   6
HETATM    6  C   UNL     1      -9.316  10.706  62.366  1.00  0.00    -0.282 C  
BRANCH   6   7
HETATM    7  C   UNL     1      -7.821  10.415  62.396  1.00  0.00    -0.182 C  
BRANCH   7   8
HETATM    8  C   UNL     1      -7.473   9.514  63.573  1.00  0.00    -0.114 C  
BRANCH   8   9
HETATM    9  C   UNL     1      -6.140   9.922  64.186  1.00  0.00    -0.123 C  
BRANCH   9  10
HETATM   10  C   UNL     1      -6.332  10.389  65.622  1.00  0.00    -0.126 C  
BRANCH  10  11
HETATM   11  C   UNL     1      -7.400   9.554  66.316  1.00  0.00    -0.093 C  
BRANCH  11  12
HETATM   12  C   UNL     1      -8.452  10.454  66.948  1.00  0.00    -0.124 C  
BRANCH  12  13
HETATM   13  C   UNL     1      -7.874  11.831  67.232  1.00  0.00    -0.161 C  
BRANCH  13  14
HETATM   14  C   UNL     1      -7.613  12.006  68.723  1.00  0.00    -0.070 C  
BRANCH  14  15
HETATM   15  C   UNL     1      -6.944  13.345  68.994  1.00  0.00    -0.084 C  
BRANCH  15  16
HETATM   16  C   UNL     1      -5.936  13.672  67.901  1.00  0.00    -0.147 C  
BRANCH  16  17
HETATM   17  C   UNL     1      -6.044  15.135  67.488  1.00  0.00    -0.048 C  
BRANCH  17  18
HETATM   18  C   UNL     1      -7.483  15.624  67.615  1.00  0.00    -0.186 C  
BRANCH  18  19
HETATM   19  C   UNL     1      -7.523  17.120  67.905  1.00  0.00    -0.183 C  
BRANCH  19  20
HETATM   20  C   UNL     1      -8.914  17.685  67.634  1.00  0.00    -0.240 C  
BRANCH  20  21
HETATM   21  C   UNL     1      -8.889  19.208  67.604  1.00  0.00    -0.332 C  
BRANCH  21  22
HETATM   22  C   UNL     1     -10.231  19.791  68.028  1.00  0.00    -0.451 C  
HETATM   23  O   UNL     1     -10.403  19.632  69.430  1.00  0.00    -0.615 OA 
HETATM   24  H   UNL     1     -11.240  19.996  69.694  1.00  0.00     0.000 HD 
ENDBRANCH  21  22
ENDBRANCH  20  21
ENDBRANCH  19  20
ENDBRANCH  18  19
ENDBRANCH  17  18
ENDBRANCH  16  17
ENDBRANCH  15  16
ENDBRANCH  14  15
ENDBRANCH  13  14
ENDBRANCH  12  13
ENDBRANCH  11  12
ENDBRANCH  10  11
ENDBRANCH   9  10
ENDBRANCH   8   9
ENDBRANCH   7   8
ENDBRANCH   6   7
ENDBRANCH   5   6
ENDBRANCH   4   5
ENDBRANCH   3   4
ENDBRANCH   2   3
TORSDOF 20
ENDMDL
MODEL      413
REMARK 921   NORMALIZED FREE ENERGY PREDICTED BY IDOCK:   -2.32 KCAL/MOL
REMARK 922        TOTAL FREE ENERGY PREDICTED BY IDOCK:   -7.89 KCAL/MOL
REMARK 923 INTER-LIGAND FREE ENERGY PREDICTED BY IDOCK:   -5.86 KCAL/MOL
REMARK 924 INTRA-LIGAND FREE ENERGY PREDICTED BY IDOCK:   -2.03 KCAL/MOL
REMARK 927      BINDING AFFINITY PREDICTED BY RF-SCORE:    0.00 PKD
ROOT
HETATM    1  C   UNL     1     -12.650  12.165  63.796  1.00  0.00    -0.585 C  
HETATM    2  C   UNL     1     -11.548  13.189  64.001  1.00  0.00    -0.481 C  
ENDROOT
BRANCH   2   3
HETATM    3  C   UNL     1     -12.123  14.541  64.413  1.00  0.00    -0.492 C  
BRANCH   3   4
HETATM    4  C   UNL     1     -11.031  15.464  64.948  1.00  0.00    -0.453 C  
BRANCH   4   5
HETATM    5  C   UNL     1     -10.853  15.274  66.452  1.00  0.00    -0.317 C  
BRANCH   5   6
HETATM    6  C   UNL     1      -9.446  14.784  66.774  1.00  0.00    -0.271 C  
BRANCH   6   7
HETATM    7  C   UNL     1      -9.497  13.500  67.592  1.00  0.00    -0.222 C  
BRANCH   7   8
HETATM    8  C   UNL     1     -10.930  13.181  67.999  1.00  0.00    -0.270 C  
BRANCH   8   9
HETATM    9  C   UNL     1     -11.333  11.799  67.501  1.00  0.00    -0.377 C  
BRANCH   9  10
HETATM   10  C   UNL     1     -11.966  10.990  68.624  1.00  0.00    -0.247 C  
BRANCH  10  11
HETATM   11  C   UNL     1     -11.204  11.196  69.926  1.00  0.00    -0.293 C  
BRANCH  11  12
HETATM   12  C   UNL     1      -9.985  10.286  69.981  1.00  0.00    -0.123 C  
BRANCH  12  13
HETATM   13  C   UNL     1     -10.377   8.852  69.660  1.00  0.00    -0.214 C  
BRANCH  13  14
HETATM   14  C   UNL     1      -9.964   7.918  70.790  1.00  0.00    -0.192 C  
BRANCH  14  15
HETATM   15  C   UNL     1      -8.800   8.509  71.572  1.00  0.00    -0.260 C  
BRANCH  15  16
HETATM   16  C   UNL     1      -7.557   7.642  71.418  1.00  0.00    -0.080 C  
BRANCH  16  17
HETATM   17  C   UNL     1      -7.562   6.927  70.072  1.00  0.00    -0.099 C  
BRANCH  17  18
HETATM   18  C   UNL     1      -7.290   5.439  70.253  1.00  0.00    -0.067 C  
BRANCH  18  19
HETATM   19  C   UNL     1      -7.952   4.628  69.144  1.00  0.00    -0.070 C  
BRANCH  19  20
HETATM   20  C   UNL     1      -8.827   3.525  69.731  1.00  0.00    -0.151 C  
BRANCH  20  21
HETATM   21  C   UNL     1      -9.904   4.107  70.639  1.00  0.00    -0.249 C  
BRANCH  21  22
HETATM   22  C   UNL     1      -9.833   3.505  72.037  1.00  0.00    -0.168 C  
HETATM   23  O   UNL     1     -10.815   4.107  72.870  1.00  0.00    -0.177 OA 
HETATM   24  H   UNL     1     -10.771   3.732  73.742  1.00  0.00     0.000 HD 
ENDBRANCH  21  22
ENDBRANCH  20  21
ENDBRANCH  19  20
ENDBRANCH  18  19
ENDBRANCH  17  18
ENDBRANCH  16  17
ENDBRANCH  15  16
ENDBRANCH  14  15
ENDBRANCH  13  14
ENDBRANCH  12  13
ENDBRANCH  11  12
ENDBRANCH  10  11
ENDBRANCH   9  10
ENDBRANCH   8   9
ENDBRANCH   7   8
ENDBRANCH   6   7
ENDBRANCH   5   6
ENDBRANCH   4   5
ENDBRANCH   3   4
ENDBRANCH   2   3
TORSDOF 20
ENDMDL
MODEL      414
REMARK 921   NORMALIZED FREE ENERGY PREDICTED BY IDOCK:   -2.30 KCAL/MOL
REMARK 922        TOTAL FREE ENERGY PREDICTED BY IDOCK:   -7.85 KCAL/MOL
REMARK 923 INTER-LIGAND FREE ENERGY PREDICTED BY IDOCK:   -6.14 KCAL/MOL
REMARK 924 INTRA-LIGAND FREE ENERGY PREDICTED BY IDOCK:   -1.71 KCAL/MOL
REMARK 927      BINDING AFFINITY PREDICTED BY RF-SCORE:    0.00 PKD
ROOT
HETATM    1  C   UNL     1     -10.551  13.629  67.718  1.00  0.00    -0.247 C  
HETATM    2  C   UNL     1     -11.938  14.001  68.214  1.00  0.00    -0.384 C  
ENDROOT
BRANCH   2   3
HETATM    3  C   UNL     1     -11.875  15.164  69.200  1.00  0.00    -0.340 C  
BRANCH   3   4
HETATM    4  C   UNL     1     -12.508  14.787  70.536  1.00  0.00    -0.411 C  
BRANCH   4   5
HETATM    5  C   UNL     1     -12.537  13.271  70.712  1.00  0.00    -0.357 C  
BRANCH   5   6
HETATM    6  C   UNL     1     -13.330  12.884  71.955  1.00  0.00    -0.579 C  
BRANCH   6   7
HETATM    7  C   UNL     1     -13.485  11.371  72.045  1.00  0.00    -0.289 C  
BRANCH   7   8
HETATM    8  C   UNL     1     -12.735  10.687  70.909  1.00  0.00    -0.498 C  
BRANCH   8   9
HETATM    9  C   UNL     1     -11.621   9.805  71.457  1.00  0.00    -0.424 C  
BRANCH   9  10
HETATM   10  C   UNL     1     -11.181   8.788  70.414  1.00  0.00    -0.247 C  
BRANCH  10  11
HETATM   11  C   UNL     1     -10.956   7.426  71.057  1.00  0.00    -0.268 C  
BRANCH  11  12
HETATM   12  C   UNL     1     -11.714   6.346  70.299  1.00  0.00    -0.389 C  
BRANCH  12  13
HETATM   13  C   UNL     1     -10.791   5.633  69.323  1.00  0.00    -0.309 C  
BRANCH  13  14
HETATM   14  C   UNL     1      -9.813   4.735  70.069  1.00  0.00    -0.297 C  
BRANCH  14  15
HETATM   15  C   UNL     1      -8.967   3.936  69.089  1.00  0.00    -0.172 C  
BRANCH  15  16
HETATM   16  C   UNL     1      -7.770   4.754  68.623  1.00  0.00    -0.076 C  
BRANCH  16  17
HETATM   17  C   UNL     1      -7.154   5.518  69.789  1.00  0.00    -0.063 C  
BRANCH  17  18
HETATM   18  C   UNL     1      -5.867   6.211  69.357  1.00  0.00    -0.017 C  
BRANCH  18  19
HETATM   19  C   UNL     1      -6.000   7.725  69.475  1.00  0.00    -0.030 C  
BRANCH  19  20
HETATM   20  C   UNL     1      -6.387   8.124  70.895  1.00  0.00    -0.037 C  
BRANCH  20  21
HETATM   21  C   UNL     1      -7.520   9.144  70.888  1.00  0.00    -0.136 C  
BRANCH  21  22
HETATM   22  C   UNL     1      -7.424  10.067  69.680  1.00  0.00    -0.134 C  
HETATM   23  O   UNL     1      -6.928  11.337  70.083  1.00  0.00    -0.439 OA 
HETATM   24  H   UNL     1      -6.869  11.912  69.329  1.00  0.00     0.000 HD 
ENDBRANCH  21  22
ENDBRANCH  20  21
ENDBRANCH  19  20
ENDBRANCH  18  19
ENDBRANCH  17  18
ENDBRANCH  16  17
ENDBRANCH  15  16
ENDBRANCH  14  15
ENDBRANCH  13  14
ENDBRANCH  12  13
ENDBRANCH  11  12
ENDBRANCH  10  11
ENDBRANCH   9  10
ENDBRANCH   8   9
ENDBRANCH   7   8
ENDBRANCH   6   7
ENDBRANCH   5   6
ENDBRANCH   4   5
ENDBRANCH   3   4
ENDBRANCH   2   3
TORSDOF 20
ENDMDL
MODEL      415
REMARK 921   NORMALIZED FREE ENERGY PREDICTED BY IDOCK:   -2.29 KCAL/MOL
REMARK 922        TOTAL FREE ENERGY PREDICTED BY IDOCK:   -7.84 KCAL/MOL
REMARK 923 INTER-LIGAND FREE ENERGY PREDICTED BY IDOCK:   -5.62 KCAL/MOL
REMARK 924 INTRA-LIGAND FREE ENERGY PREDICTED BY IDOCK:   -2.23 KCAL/MOL
REMARK 927      BINDING AFFINITY PREDICTED BY RF-SCORE:    0.00 PKD
ROOT
HETATM    1  C   UNL     1      -7.916  20.021  66.747  1.00  0.00    -0.349 C  
HETATM    2  C   UNL     1      -9.325  19.797  66.228  1.00  0.00    -0.472 C  
ENDROOT
BRANCH   2   3
HETATM    3  C   UNL     1     -10.331  19.742  67.374  1.00  0.00    -0.582 C  
BRANCH   3   4
HETATM    4  C   UNL     1     -10.705  18.301  67.709  1.00  0.00    -0.358 C  
BRANCH   4   5
HETATM    5  C   UNL     1     -10.083  17.334  66.707  1.00  0.00    -0.302 C  
BRANCH   5   6
HETATM    6  C   UNL     1      -9.533  16.100  67.413  1.00  0.00    -0.227 C  
BRANCH   6   7
HETATM    7  C   UNL     1      -9.057  16.450  68.817  1.00  0.00    -0.244 C  
BRANCH   7   8
HETATM    8  C   UNL     1      -7.558  16.721  68.824  1.00  0.00    -0.240 C  
BRANCH   8   9
HETATM    9  C   UNL     1      -6.814  15.600  69.538  1.00  0.00    -0.189 C  
BRANCH   9  10
HETATM   10  C   UNL     1      -6.429  14.503  68.555  1.00  0.00    -0.094 C  
BRANCH  10  11
HETATM   11  C   UNL     1      -6.759  13.132  69.129  1.00  0.00    -0.089 C  
BRANCH  11  12
HETATM   12  C   UNL     1      -7.524  12.299  68.111  1.00  0.00    -0.112 C  
BRANCH  12  13
HETATM   13  C   UNL     1      -7.164  10.828  68.249  1.00  0.00    -0.084 C  
BRANCH  13  14
HETATM   14  C   UNL     1      -6.880  10.215  66.884  1.00  0.00    -0.084 C  
BRANCH  14  15
HETATM   15  C   UNL     1      -7.855  10.750  65.846  1.00  0.00    -0.131 C  
BRANCH  15  16
HETATM   16  C   UNL     1      -9.061   9.827  65.718  1.00  0.00    -0.221 C  
BRANCH  16  17
HETATM   17  C   UNL     1     -10.357  10.605  65.916  1.00  0.00    -0.291 C  
BRANCH  17  18
HETATM   18  C   UNL     1     -10.880  10.424  67.336  1.00  0.00    -0.344 C  
BRANCH  18  19
HETATM   19  C   UNL     1     -10.645   8.998  67.823  1.00  0.00    -0.278 C  
BRANCH  19  20
HETATM   20  C   UNL     1     -10.167   8.995  69.271  1.00  0.00    -0.210 C  
BRANCH  20  21
HETATM   21  C   UNL     1     -10.929   7.965  70.097  1.00  0.00    -0.235 C  
BRANCH  21  22
HETATM   22  C   UNL     1     -10.273   7.749  71.454  1.00  0.00    -0.182 C  
HETATM   23  O   UNL     1      -9.737   8.977  71.930  1.00  0.00    -0.299 OA 
HETATM   24  H   UNL     1      -9.327   8.842  72.777  1.00  0.00     0.000 HD 
ENDBRANCH  21  22
ENDBRANCH  20  21
ENDBRANCH  19  20
ENDBRANCH  18  19
ENDBRANCH  17  18
ENDBRANCH  16  17
ENDBRANCH  15  16
ENDBRANCH  14  15
ENDBRANCH  13  14
ENDBRANCH  12  13
ENDBRANCH  11  12
ENDBRANCH  10  11
ENDBRANCH   9  10
ENDBRANCH   8   9
ENDBRANCH   7   8
ENDBRANCH   6   7
ENDBRANCH   5   6
ENDBRANCH   4   5
ENDBRANCH   3   4
ENDBRANCH   2   3
TORSDOF 20
ENDMDL
MODEL      416
REMARK 921   NORMALIZED FREE ENERGY PREDICTED BY IDOCK:   -2.29 KCAL/MOL
REMARK 922        TOTAL FREE ENERGY PREDICTED BY IDOCK:   -7.84 KCAL/MOL
REMARK 923 INTER-LIGAND FREE ENERGY PREDICTED BY IDOCK:   -6.00 KCAL/MOL
REMARK 924 INTRA-LIGAND FREE ENERGY PREDICTED BY IDOCK:   -1.85 KCAL/MOL
REMARK 927      BINDING AFFINITY PREDICTED BY RF-SCORE:    0.00 PKD
ROOT
HETATM    1  C   UNL     1     -11.114   9.266  70.122  1.00  0.00    -0.260 C  
HETATM    2  C   UNL     1      -9.770   9.156  70.822  1.00  0.00    -0.337 C  
ENDROOT
BRANCH   2   3
HETATM    3  C   UNL     1      -8.626   9.124  69.813  1.00  0.00    -0.144 C  
BRANCH   3   4
HETATM    4  C   UNL     1      -8.478  10.467  69.105  1.00  0.00    -0.152 C  
BRANCH   4   5
HETATM    5  C   UNL     1      -8.331  10.271  67.600  1.00  0.00    -0.114 C  
BRANCH   5   6
HETATM    6  C   UNL     1      -9.429   9.359  67.061  1.00  0.00    -0.200 C  
BRANCH   6   7
HETATM    7  C   UNL     1     -10.297  10.100  66.052  1.00  0.00    -0.234 C  
BRANCH   7   8
HETATM    8  C   UNL     1      -9.795   9.859  64.634  1.00  0.00    -0.185 C  
BRANCH   8   9
HETATM    9  C   UNL     1     -10.400  10.872  63.671  1.00  0.00    -0.364 C  
BRANCH   9  10
HETATM   10  C   UNL     1     -10.527  12.234  64.338  1.00  0.00    -0.355 C  
BRANCH  10  11
HETATM   11  C   UNL     1     -11.984  12.673  64.382  1.00  0.00    -0.469 C  
BRANCH  11  12
HETATM   12  C   UNL     1     -12.101  14.073  64.968  1.00  0.00    -0.427 C  
BRANCH  12  13
HETATM   13  C   UNL     1     -12.233  14.008  66.482  1.00  0.00    -0.485 C  
BRANCH  13  14
HETATM   14  C   UNL     1     -11.218  14.928  67.148  1.00  0.00    -0.345 C  
BRANCH  14  15
HETATM   15  C   UNL     1      -9.820  14.334  67.060  1.00  0.00    -0.254 C  
BRANCH  15  16
HETATM   16  C   UNL     1      -9.314  13.946  68.443  1.00  0.00    -0.201 C  
BRANCH  16  17
HETATM   17  C   UNL     1      -7.898  14.464  68.663  1.00  0.00    -0.140 C  
BRANCH  17  18
HETATM   18  C   UNL     1      -7.919  15.755  69.473  1.00  0.00    -0.145 C  
BRANCH  18  19
HETATM   19  C   UNL     1      -7.718  16.966  68.569  1.00  0.00    -0.227 C  
BRANCH  19  20
HETATM   20  C   UNL     1      -6.778  16.629  67.416  1.00  0.00    -0.199 C  
BRANCH  20  21
HETATM   21  C   UNL     1      -6.279  17.895  66.730  1.00  0.00    -0.202 C  
BRANCH  21  22
HETATM   22  C   UNL     1      -7.152  18.258  65.536  1.00  0.00    -0.047 C  
HETATM   23  O   UNL     1      -8.496  17.871  65.787  1.00  0.00    -0.513 OA 
HETATM   24  H   UNL     1      -9.041  18.097  65.042  1.00  0.00     0.000 HD 
ENDBRANCH  21  22
ENDBRANCH  20  21
ENDBRANCH  19  20
ENDBRANCH  18  19
ENDBRANCH  17  18
ENDBRANCH  16  17
ENDBRANCH  15  16
ENDBRANCH  14  15
ENDBRANCH  13  14
ENDBRANCH  12  13
ENDBRANCH  11  12
ENDBRANCH  10  11
ENDBRANCH   9  10
ENDBRANCH   8   9
ENDBRANCH   7   8
ENDBRANCH   6   7
ENDBRANCH   5   6
ENDBRANCH   4   5
ENDBRANCH   3   4
ENDBRANCH   2   3
TORSDOF 20
ENDMDL
MODEL      417
REMARK 921   NORMALIZED FREE ENERGY PREDICTED BY IDOCK:   -2.28 KCAL/MOL
REMARK 922        TOTAL FREE ENERGY PREDICTED BY IDOCK:   -7.81 KCAL/MOL
REMARK 923 INTER-LIGAND FREE ENERGY PREDICTED BY IDOCK:   -5.77 KCAL/MOL
REMARK 924 INTRA-LIGAND FREE ENERGY PREDICTED BY IDOCK:   -2.05 KCAL/MOL
REMARK 927      BINDING AFFINITY PREDICTED BY RF-SCORE:    0.00 PKD
ROOT
HETATM    1  C   UNL     1      -8.666  13.098  68.222  1.00  0.00    -0.165 C  
HETATM    2  C   UNL     1      -7.589  12.684  67.235  1.00  0.00    -0.121 C  
ENDROOT
BRANCH   2   3
HETATM    3  C   UNL     1      -7.563  11.169  67.053  1.00  0.00    -0.135 C  
BRANCH   3   4
HETATM    4  C   UNL     1      -6.418  10.744  66.137  1.00  0.00    -0.129 C  
BRANCH   4   5
HETATM    5  C   UNL     1      -6.271   9.226  66.126  1.00  0.00    -0.064 C  
BRANCH   5   6
HETATM    6  C   UNL     1      -6.388   8.680  64.707  1.00  0.00    -0.065 C  
BRANCH   6   7
HETATM    7  C   UNL     1      -7.841   8.372  64.367  1.00  0.00    -0.141 C  
BRANCH   7   8
HETATM    8  C   UNL     1      -8.573   7.828  65.587  1.00  0.00    -0.147 C  
BRANCH   8   9
HETATM    9  C   UNL     1      -8.379   6.322  65.701  1.00  0.00    -0.147 C  
BRANCH   9  10
HETATM   10  C   UNL     1      -8.117   5.924  67.146  1.00  0.00    -0.102 C  
BRANCH  10  11
HETATM   11  C   UNL     1      -8.702   6.957  68.099  1.00  0.00    -0.126 C  
BRANCH  11  12
HETATM   12  C   UNL     1      -9.977   6.430  68.740  1.00  0.00    -0.165 C  
BRANCH  12  13
HETATM   13  C   UNL     1      -9.667   5.754  70.066  1.00  0.00    -0.218 C  
BRANCH  13  14
HETATM   14  C   UNL     1     -10.904   5.722  70.954  1.00  0.00    -0.326 C  
BRANCH  14  15
HETATM   15  C   UNL     1     -11.925   6.747  70.483  1.00  0.00    -0.385 C  
BRANCH  15  16
HETATM   16  C   UNL     1     -12.813   7.187  71.639  1.00  0.00    -0.420 C  
BRANCH  16  17
HETATM   17  C   UNL     1     -12.205   8.385  72.359  1.00  0.00    -0.430 C  
BRANCH  17  18
HETATM   18  C   UNL     1     -11.403   9.244  71.389  1.00  0.00    -0.434 C  
BRANCH  18  19
HETATM   19  C   UNL     1     -12.176  10.504  71.014  1.00  0.00    -0.505 C  
BRANCH  19  20
HETATM   20  C   UNL     1     -11.754  11.006  69.637  1.00  0.00    -0.401 C  
BRANCH  20  21
HETATM   21  C   UNL     1     -12.024  12.499  69.494  1.00  0.00    -0.329 C  
BRANCH  21  22
HETATM   22  C   UNL     1     -12.448  13.114  70.821  1.00  0.00    -0.308 C  
HETATM   23  O   UNL     1     -11.639  14.248  71.107  1.00  0.00    -0.506 OA 
HETATM   24  H   UNL     1     -11.903  14.631  71.934  1.00  0.00     0.000 HD 
ENDBRANCH  21  22
ENDBRANCH  20  21
ENDBRANCH  19  20
ENDBRANCH  18  19
ENDBRANCH  17  18
ENDBRANCH  16  17
ENDBRANCH  15  16
ENDBRANCH  14  15
ENDBRANCH  13  14
ENDBRANCH  12  13
ENDBRANCH  11  12
ENDBRANCH  10  11
ENDBRANCH   9  10
ENDBRANCH   8   9
ENDBRANCH   7   8
ENDBRANCH   6   7
ENDBRANCH   5   6
ENDBRANCH   4   5
ENDBRANCH   3   4
ENDBRANCH   2   3
TORSDOF 20
ENDMDL
MODEL      418
REMARK 921   NORMALIZED FREE ENERGY PREDICTED BY IDOCK:   -2.28 KCAL/MOL
REMARK 922        TOTAL FREE ENERGY PREDICTED BY IDOCK:   -7.81 KCAL/MOL
REMARK 923 INTER-LIGAND FREE ENERGY PREDICTED BY IDOCK:   -6.21 KCAL/MOL
REMARK 924 INTRA-LIGAND FREE ENERGY PREDICTED BY IDOCK:   -1.60 KCAL/MOL
REMARK 927      BINDING AFFINITY PREDICTED BY RF-SCORE:    0.00 PKD
ROOT
HETATM    1  C   UNL     1     -11.027   5.998  69.453  1.00  0.00    -0.455 C  
HETATM    2  C   UNL     1     -10.697   6.251  70.914  1.00  0.00    -0.314 C  
ENDROOT
BRANCH   2   3
HETATM    3  C   UNL     1     -10.054   7.621  71.104  1.00  0.00    -0.196 C  
BRANCH   3   4
HETATM    4  C   UNL     1      -8.827   7.781  70.212  1.00  0.00    -0.144 C  
BRANCH   4   5
HETATM    5  C   UNL     1      -8.816   9.155  69.548  1.00  0.00    -0.149 C  
BRANCH   5   6
HETATM    6  C   UNL     1     -10.075   9.939  69.904  1.00  0.00    -0.297 C  
BRANCH   6   7
HETATM    7  C   UNL     1     -11.064   9.924  68.744  1.00  0.00    -0.179 C  
BRANCH   7   8
HETATM    8  C   UNL     1     -10.360  10.260  67.436  1.00  0.00    -0.282 C  
BRANCH   8   9
HETATM    9  C   UNL     1     -11.151  11.299  66.652  1.00  0.00    -0.299 C  
BRANCH   9  10
HETATM   10  C   UNL     1     -10.387  12.614  66.584  1.00  0.00    -0.249 C  
BRANCH  10  11
HETATM   11  C   UNL     1     -10.525  13.380  67.892  1.00  0.00    -0.243 C  
BRANCH  11  12
HETATM   12  C   UNL     1     -11.717  14.325  67.833  1.00  0.00    -0.394 C  
BRANCH  12  13
HETATM   13  C   UNL     1     -11.877  15.064  69.152  1.00  0.00    -0.338 C  
BRANCH  13  14
HETATM   14  C   UNL     1     -10.516  15.392  69.751  1.00  0.00    -0.303 C  
BRANCH  14  15
HETATM   15  C   UNL     1      -9.971  16.684  69.161  1.00  0.00    -0.263 C  
BRANCH  15  16
HETATM   16  C   UNL     1      -8.569  16.470  68.604  1.00  0.00    -0.243 C  
BRANCH  16  17
HETATM   17  C   UNL     1      -7.651  17.620  69.000  1.00  0.00    -0.155 C  
BRANCH  17  18
HETATM   18  C   UNL     1      -6.584  17.846  67.936  1.00  0.00    -0.188 C  
BRANCH  18  19
HETATM   19  C   UNL     1      -7.175  17.706  66.537  1.00  0.00    -0.287 C  
BRANCH  19  20
HETATM   20  C   UNL     1      -7.140  19.040  65.800  1.00  0.00    -0.286 C  
BRANCH  20  21
HETATM   21  C   UNL     1      -5.912  19.852  66.196  1.00  0.00    -0.181 C  
BRANCH  21  22
HETATM   22  C   UNL     1      -5.744  21.072  65.300  1.00  0.00    -0.229 C  
HETATM   23  O   UNL     1      -6.785  21.106  64.333  1.00  0.00    -0.538 OA 
HETATM   24  H   UNL     1      -6.681  21.868  63.774  1.00  0.00     0.000 HD 
ENDBRANCH  21  22
ENDBRANCH  20  21
ENDBRANCH  19  20
ENDBRANCH  18  19
ENDBRANCH  17  18
ENDBRANCH  16  17
ENDBRANCH  15  16
ENDBRANCH  14  15
ENDBRANCH  13  14
ENDBRANCH  12  13
ENDBRANCH  11  12
ENDBRANCH  10  11
ENDBRANCH   9  10
ENDBRANCH   8   9
ENDBRANCH   7   8
ENDBRANCH   6   7
ENDBRANCH   5   6
ENDBRANCH   4   5
ENDBRANCH   3   4
ENDBRANCH   2   3
TORSDOF 20
ENDMDL
MODEL      419
REMARK 921   NORMALIZED FREE ENERGY PREDICTED BY IDOCK:   -2.26 KCAL/MOL
REMARK 922        TOTAL FREE ENERGY PREDICTED BY IDOCK:   -7.77 KCAL/MOL
REMARK 923 INTER-LIGAND FREE ENERGY PREDICTED BY IDOCK:   -5.00 KCAL/MOL
REMARK 924 INTRA-LIGAND FREE ENERGY PREDICTED BY IDOCK:   -2.77 KCAL/MOL
REMARK 927      BINDING AFFINITY PREDICTED BY RF-SCORE:    0.00 PKD
ROOT
HETATM    1  C   UNL     1     -10.655   5.647  66.471  1.00  0.00    -0.320 C  
HETATM    2  C   UNL     1     -10.516   5.895  67.963  1.00  0.00    -0.294 C  
ENDROOT
BRANCH   2   3
HETATM    3  C   UNL     1      -9.251   5.243  68.512  1.00  0.00    -0.138 C  
BRANCH   3   4
HETATM    4  C   UNL     1      -9.590   4.071  69.430  1.00  0.00    -0.257 C  
BRANCH   4   5
HETATM    5  C   UNL     1      -9.487   2.748  68.677  1.00  0.00    -0.191 C  
BRANCH   5   6
HETATM    6  C   UNL     1      -8.983   1.639  69.595  1.00  0.00    -0.135 C  
BRANCH   6   7
HETATM    7  C   UNL     1      -7.497   1.814  69.885  1.00  0.00    -0.036 C  
BRANCH   7   8
HETATM    8  C   UNL     1      -7.252   1.916  71.385  1.00  0.00    -0.032 C  
BRANCH   8   9
HETATM    9  C   UNL     1      -8.497   1.508  72.161  1.00  0.00    -0.051 C  
BRANCH   9  10
HETATM   10  C   UNL     1      -9.064   2.695  72.927  1.00  0.00    -0.108 C  
BRANCH  10  11
HETATM   11  C   UNL     1     -10.581   2.605  73.005  1.00  0.00    -0.247 C  
BRANCH  11  12
HETATM   12  C   UNL     1     -11.152   3.823  73.717  1.00  0.00    -0.285 C  
BRANCH  12  13
HETATM   13  C   UNL     1     -10.167   4.980  73.665  1.00  0.00    -0.233 C  
BRANCH  13  14
HETATM   14  C   UNL     1     -10.863   6.256  73.213  1.00  0.00    -0.269 C  
BRANCH  14  15
HETATM   15  C   UNL     1     -11.581   6.033  71.891  1.00  0.00    -0.312 C  
BRANCH  15  16
HETATM   16  C   UNL     1     -11.425   7.247  70.984  1.00  0.00    -0.316 C  
BRANCH  16  17
HETATM   17  C   UNL     1     -10.011   7.808  71.075  1.00  0.00    -0.191 C  
BRANCH  17  18
HETATM   18  C   UNL     1     -10.036   9.332  71.062  1.00  0.00    -0.373 C  
BRANCH  18  19
HETATM   19  C   UNL     1     -10.738   9.852  69.813  1.00  0.00    -0.298 C  
BRANCH  19  20
HETATM   20  C   UNL     1      -9.740  10.059  68.679  1.00  0.00    -0.165 C  
BRANCH  20  21
HETATM   21  C   UNL     1     -10.296   9.540  67.359  1.00  0.00    -0.319 C  
BRANCH  21  22
HETATM   22  C   UNL     1     -10.294  10.627  66.292  1.00  0.00    -0.234 C  
HETATM   23  O   UNL     1      -9.890  11.863  66.866  1.00  0.00    -0.198 OA 
HETATM   24  H   UNL     1      -9.889  12.541  66.200  1.00  0.00     0.000 HD 
ENDBRANCH  21  22
ENDBRANCH  20  21
ENDBRANCH  19  20
ENDBRANCH  18  19
ENDBRANCH  17  18
ENDBRANCH  16  17
ENDBRANCH  15  16
ENDBRANCH  14  15
ENDBRANCH  13  14
ENDBRANCH  12  13
ENDBRANCH  11  12
ENDBRANCH  10  11
ENDBRANCH   9  10
ENDBRANCH   8   9
ENDBRANCH   7   8
ENDBRANCH   6   7
ENDBRANCH   5   6
ENDBRANCH   4   5
ENDBRANCH   3   4
ENDBRANCH   2   3
TORSDOF 20
ENDMDL
MODEL      420
REMARK 921   NORMALIZED FREE ENERGY PREDICTED BY IDOCK:   -2.26 KCAL/MOL
REMARK 922        TOTAL FREE ENERGY PREDICTED BY IDOCK:   -7.77 KCAL/MOL
REMARK 923 INTER-LIGAND FREE ENERGY PREDICTED BY IDOCK:   -6.18 KCAL/MOL
REMARK 924 INTRA-LIGAND FREE ENERGY PREDICTED BY IDOCK:   -1.58 KCAL/MOL
REMARK 927      BINDING AFFINITY PREDICTED BY RF-SCORE:    0.00 PKD
ROOT
HETATM    1  C   UNL     1      -8.538   9.451  69.801  1.00  0.00    -0.182 C  
HETATM    2  C   UNL     1      -7.323   8.666  69.337  1.00  0.00    -0.072 C  
ENDROOT
BRANCH   2   3
HETATM    3  C   UNL     1      -7.048   8.904  67.855  1.00  0.00    -0.079 C  
BRANCH   3   4
HETATM    4  C   UNL     1      -6.944  10.395  67.548  1.00  0.00    -0.084 C  
BRANCH   4   5
HETATM    5  C   UNL     1      -7.718  10.740  66.279  1.00  0.00    -0.146 C  
BRANCH   5   6
HETATM    6  C   UNL     1      -8.737   9.654  65.953  1.00  0.00    -0.163 C  
BRANCH   6   7
HETATM    7  C   UNL     1     -10.109  10.264  65.693  1.00  0.00    -0.341 C  
BRANCH   7   8
HETATM    8  C   UNL     1     -10.278  10.593  64.215  1.00  0.00    -0.391 C  
BRANCH   8   9
HETATM    9  C   UNL     1     -10.980  11.933  64.041  1.00  0.00    -0.445 C  
BRANCH   9  10
HETATM   10  C   UNL     1     -10.707  12.839  65.234  1.00  0.00    -0.319 C  
BRANCH  10  11
HETATM   11  C   UNL     1     -11.996  13.130  65.990  1.00  0.00    -0.488 C  
BRANCH  11  12
HETATM   12  C   UNL     1     -11.877  14.436  66.762  1.00  0.00    -0.431 C  
BRANCH  12  13
HETATM   13  C   UNL     1     -11.385  14.175  68.177  1.00  0.00    -0.316 C  
BRANCH  13  14
HETATM   14  C   UNL     1     -10.196  15.068  68.504  1.00  0.00    -0.227 C  
BRANCH  14  15
HETATM   15  C   UNL     1     -10.667  16.451  68.926  1.00  0.00    -0.319 C  
BRANCH  15  16
HETATM   16  C   UNL     1     -10.782  17.370  67.717  1.00  0.00    -0.332 C  
BRANCH  16  17
HETATM   17  C   UNL     1      -9.811  18.539  67.835  1.00  0.00    -0.352 C  
BRANCH  17  18
HETATM   18  C   UNL     1      -8.786  18.502  66.708  1.00  0.00    -0.285 C  
BRANCH  18  19
HETATM   19  C   UNL     1      -7.832  17.326  66.881  1.00  0.00    -0.251 C  
BRANCH  19  20
HETATM   20  C   UNL     1      -6.456  17.808  67.327  1.00  0.00    -0.185 C  
BRANCH  20  21
HETATM   21  C   UNL     1      -6.209  17.474  68.793  1.00  0.00    -0.188 C  
BRANCH  21  22
HETATM   22  C   UNL     1      -5.847  18.721  69.591  1.00  0.00    -0.247 C  
HETATM   23  O   UNL     1      -6.860  19.705  69.430  1.00  0.00    -0.340 OA 
HETATM   24  H   UNL     1      -6.634  20.483  69.928  1.00  0.00     0.000 HD 
ENDBRANCH  21  22
ENDBRANCH  20  21
ENDBRANCH  19  20
ENDBRANCH  18  19
ENDBRANCH  17  18
ENDBRANCH  16  17
ENDBRANCH  15  16
ENDBRANCH  14  15
ENDBRANCH  13  14
ENDBRANCH  12  13
ENDBRANCH  11  12
ENDBRANCH  10  11
ENDBRANCH   9  10
ENDBRANCH   8   9
ENDBRANCH   7   8
ENDBRANCH   6   7
ENDBRANCH   5   6
ENDBRANCH   4   5
ENDBRANCH   3   4
ENDBRANCH   2   3
TORSDOF 20
ENDMDL
MODEL      421
REMARK 921   NORMALIZED FREE ENERGY PREDICTED BY IDOCK:   -2.25 KCAL/MOL
REMARK 922        TOTAL FREE ENERGY PREDICTED BY IDOCK:   -7.75 KCAL/MOL
REMARK 923 INTER-LIGAND FREE ENERGY PREDICTED BY IDOCK:   -5.70 KCAL/MOL
REMARK 924 INTRA-LIGAND FREE ENERGY PREDICTED BY IDOCK:   -2.05 KCAL/MOL
REMARK 927      BINDING AFFINITY PREDICTED BY RF-SCORE:    0.00 PKD
ROOT
HETATM    1  C   UNL     1      -7.034  14.922  69.608  1.00  0.00    -0.184 C  
HETATM    2  C   UNL     1      -8.209  15.794  69.202  1.00  0.00    -0.247 C  
ENDROOT
BRANCH   2   3
HETATM    3  C   UNL     1      -8.359  15.844  67.684  1.00  0.00    -0.165 C  
BRANCH   3   4
HETATM    4  C   UNL     1      -9.251  14.712  67.182  1.00  0.00    -0.231 C  
BRANCH   4   5
HETATM    5  C   UNL     1     -10.382  14.437  68.169  1.00  0.00    -0.231 C  
BRANCH   5   6
HETATM    6  C   UNL     1     -10.549  12.939  68.399  1.00  0.00    -0.267 C  
BRANCH   6   7
HETATM    7  C   UNL     1     -11.929  12.632  68.967  1.00  0.00    -0.282 C  
BRANCH   7   8
HETATM    8  C   UNL     1     -12.146  13.375  70.279  1.00  0.00    -0.419 C  
BRANCH   8   9
HETATM    9  C   UNL     1     -12.592  12.413  71.373  1.00  0.00    -0.299 C  
BRANCH   9  10
HETATM   10  C   UNL     1     -12.618  10.984  70.850  1.00  0.00    -0.488 C  
BRANCH  10  11
HETATM   11  C   UNL     1     -12.828  10.001  71.993  1.00  0.00    -0.484 C  
BRANCH  11  12
HETATM   12  C   UNL     1     -11.713   8.964  72.016  1.00  0.00    -0.438 C  
BRANCH  12  13
HETATM   13  C   UNL     1     -11.483   8.400  70.623  1.00  0.00    -0.235 C  
BRANCH  13  14
HETATM   14  C   UNL     1     -11.480   6.877  70.657  1.00  0.00    -0.383 C  
BRANCH  14  15
HETATM   15  C   UNL     1     -10.751   6.371  71.893  1.00  0.00    -0.262 C  
BRANCH  15  16
HETATM   16  C   UNL     1     -10.274   4.940  71.685  1.00  0.00    -0.267 C  
BRANCH  16  17
HETATM   17  C   UNL     1      -8.756   4.892  71.554  1.00  0.00    -0.141 C  
BRANCH  17  18
HETATM   18  C   UNL     1      -8.117   6.075  72.272  1.00  0.00    -0.110 C  
BRANCH  18  19
HETATM   19  C   UNL     1      -7.193   6.843  71.333  1.00  0.00    -0.080 C  
BRANCH  19  20
HETATM   20  C   UNL     1      -7.651   6.698  69.886  1.00  0.00    -0.100 C  
BRANCH  20  21
HETATM   21  C   UNL     1      -8.284   7.989  69.381  1.00  0.00    -0.122 C  
BRANCH  21  22
HETATM   22  C   UNL     1      -7.956   9.161  70.297  1.00  0.00    -0.133 C  
HETATM   23  O   UNL     1      -7.675  10.317  69.518  1.00  0.00    -0.135 OA 
HETATM   24  H   UNL     1      -7.470  11.047  70.090  1.00  0.00     0.000 HD 
ENDBRANCH  21  22
ENDBRANCH  20  21
ENDBRANCH  19  20
ENDBRANCH  18  19
ENDBRANCH  17  18
ENDBRANCH  16  17
ENDBRANCH  15  16
ENDBRANCH  14  15
ENDBRANCH  13  14
ENDBRANCH  12  13
ENDBRANCH  11  12
ENDBRANCH  10  11
ENDBRANCH   9  10
ENDBRANCH   8   9
ENDBRANCH   7   8
ENDBRANCH   6   7
ENDBRANCH   5   6
ENDBRANCH   4   5
ENDBRANCH   3   4
ENDBRANCH   2   3
TORSDOF 20
ENDMDL
MODEL      422
REMARK 921   NORMALIZED FREE ENERGY PREDICTED BY IDOCK:   -2.24 KCAL/MOL
REMARK 922        TOTAL FREE ENERGY PREDICTED BY IDOCK:   -7.73 KCAL/MOL
REMARK 923 INTER-LIGAND FREE ENERGY PREDICTED BY IDOCK:   -5.96 KCAL/MOL
REMARK 924 INTRA-LIGAND FREE ENERGY PREDICTED BY IDOCK:   -1.77 KCAL/MOL
REMARK 927      BINDING AFFINITY PREDICTED BY RF-SCORE:    0.00 PKD
ROOT
HETATM    1  C   UNL     1     -10.108   5.832  69.346  1.00  0.00    -0.277 C  
HETATM    2  C   UNL     1      -9.556   4.977  70.474  1.00  0.00    -0.252 C  
ENDROOT
BRANCH   2   3
HETATM    3  C   UNL     1      -9.064   5.842  71.630  1.00  0.00    -0.149 C  
BRANCH   3   4
HETATM    4  C   UNL     1      -8.662   7.232  71.144  1.00  0.00    -0.135 C  
BRANCH   4   5
HETATM    5  C   UNL     1      -9.325   8.313  71.993  1.00  0.00    -0.298 C  
BRANCH   5   6
HETATM    6  C   UNL     1     -10.177   7.692  73.095  1.00  0.00    -0.401 C  
BRANCH   6   7
HETATM    7  C   UNL     1     -11.643   8.068  72.918  1.00  0.00    -0.281 C  
BRANCH   7   8
HETATM    8  C   UNL     1     -11.902   8.564  71.502  1.00  0.00    -0.353 C  
BRANCH   8   9
HETATM    9  C   UNL     1     -13.180   9.391  71.449  1.00  0.00    -0.415 C  
BRANCH   9  10
HETATM   10  C   UNL     1     -12.932  10.714  70.737  1.00  0.00    -0.396 C  
BRANCH  10  11
HETATM   11  C   UNL     1     -12.251  11.704  71.672  1.00  0.00     0.256 C  
BRANCH  11  12
HETATM   12  C   UNL     1     -13.255  12.723  72.192  1.00  0.00    -0.546 C  
BRANCH  12  13
HETATM   13  C   UNL     1     -12.691  14.131  72.080  1.00  0.00    -0.392 C  
BRANCH  13  14
HETATM   14  C   UNL     1     -12.004  14.327  70.735  1.00  0.00    -0.390 C  
BRANCH  14  15
HETATM   15  C   UNL     1     -12.723  15.390  69.918  1.00  0.00    -0.112 C  
BRANCH  15  16
HETATM   16  C   UNL     1     -12.101  15.515  68.534  1.00  0.00    -0.048 C  
BRANCH  16  17
HETATM   17  C   UNL     1     -11.563  14.169  68.062  1.00  0.00    -0.368 C  
BRANCH  17  18
HETATM   18  C   UNL     1     -10.790  14.326  66.759  1.00  0.00    -0.298 C  
BRANCH  18  19
HETATM   19  C   UNL     1      -9.375  13.775  66.898  1.00  0.00    -0.267 C  
BRANCH  19  20
HETATM   20  C   UNL     1      -9.350  12.275  66.628  1.00  0.00    -0.228 C  
BRANCH  20  21
HETATM   21  C   UNL     1      -9.538  11.484  67.918  1.00  0.00    -0.178 C  
BRANCH  21  22
HETATM   22  C   UNL     1      -9.505   9.984  67.657  1.00  0.00    -0.144 C  
HETATM   23  O   UNL     1     -10.789   9.540  67.238  1.00  0.00    -0.288 OA 
HETATM   24  H   UNL     1     -10.769   8.605  67.075  1.00  0.00     0.000 HD 
ENDBRANCH  21  22
ENDBRANCH  20  21
ENDBRANCH  19  20
ENDBRANCH  18  19
ENDBRANCH  17  18
ENDBRANCH  16  17
ENDBRANCH  15  16
ENDBRANCH  14  15
ENDBRANCH  13  14
ENDBRANCH  12  13
ENDBRANCH  11  12
ENDBRANCH  10  11
ENDBRANCH   9  10
ENDBRANCH   8   9
ENDBRANCH   7   8
ENDBRANCH   6   7
ENDBRANCH   5   6
ENDBRANCH   4   5
ENDBRANCH   3   4
ENDBRANCH   2   3
TORSDOF 20
ENDMDL
MODEL      423
REMARK 921   NORMALIZED FREE ENERGY PREDICTED BY IDOCK:   -2.22 KCAL/MOL
REMARK 922        TOTAL FREE ENERGY PREDICTED BY IDOCK:   -7.68 KCAL/MOL
REMARK 923 INTER-LIGAND FREE ENERGY PREDICTED BY IDOCK:   -4.77 KCAL/MOL
REMARK 924 INTRA-LIGAND FREE ENERGY PREDICTED BY IDOCK:   -2.91 KCAL/MOL
REMARK 927      BINDING AFFINITY PREDICTED BY RF-SCORE:    0.00 PKD
ROOT
HETATM    1  C   UNL     1      -7.918   7.245  65.690  1.00  0.00    -0.123 C  
HETATM    2  C   UNL     1      -6.874   6.308  66.273  1.00  0.00    -0.061 C  
ENDROOT
BRANCH   2   3
HETATM    3  C   UNL     1      -5.834   5.924  65.225  1.00  0.00    -0.025 C  
BRANCH   3   4
HETATM    4  C   UNL     1      -5.598   4.417  65.210  1.00  0.00    -0.014 C  
BRANCH   4   5
HETATM    5  C   UNL     1      -6.689   3.707  64.414  1.00  0.00    -0.044 C  
BRANCH   5   6
HETATM    6  C   UNL     1      -7.074   4.516  63.180  1.00  0.00    -0.044 C  
BRANCH   6   7
HETATM    7  C   UNL     1      -8.584   4.506  62.981  1.00  0.00    -0.112 C  
BRANCH   7   8
HETATM    8  C   UNL     1      -9.243   3.503  63.918  1.00  0.00    -0.121 C  
BRANCH   8   9
HETATM    9  C   UNL     1     -10.286   4.188  64.791  1.00  0.00    -0.210 C  
BRANCH   9  10
HETATM   10  C   UNL     1      -9.880   4.125  66.257  1.00  0.00    -0.208 C  
BRANCH  10  11
HETATM   11  C   UNL     1     -10.519   5.266  67.037  1.00  0.00    -0.290 C  
BRANCH  11  12
HETATM   12  C   UNL     1     -10.230   5.122  68.525  1.00  0.00    -0.182 C  
BRANCH  12  13
HETATM   13  C   UNL     1     -11.049   6.123  69.325  1.00  0.00    -0.463 C  
BRANCH  13  14
HETATM   14  C   UNL     1     -10.657   7.549  68.959  1.00  0.00    -0.190 C  
BRANCH  14  15
HETATM   15  C   UNL     1      -9.472   8.008  69.795  1.00  0.00    -0.159 C  
BRANCH  15  16
HETATM   16  C   UNL     1      -9.604   9.484  70.147  1.00  0.00    -0.290 C  
BRANCH  16  17
HETATM   17  C   UNL     1     -10.964   9.767  70.775  1.00  0.00    -0.406 C  
BRANCH  17  18
HETATM   18  C   UNL     1     -11.712  10.830  69.979  1.00  0.00    -0.417 C  
BRANCH  18  19
HETATM   19  C   UNL     1     -10.813  11.440  68.909  1.00  0.00    -0.259 C  
BRANCH  19  20
HETATM   20  C   UNL     1     -11.456  11.319  67.531  1.00  0.00    -0.324 C  
BRANCH  20  21
HETATM   21  C   UNL     1     -10.578  10.506  66.587  1.00  0.00    -0.263 C  
BRANCH  21  22
HETATM   22  C   UNL     1      -9.132  10.983  66.629  1.00  0.00    -0.166 C  
HETATM   23  O   UNL     1      -8.751  11.474  65.351  1.00  0.00    -0.400 OA 
HETATM   24  H   UNL     1      -7.849  11.772  65.376  1.00  0.00     0.000 HD 
ENDBRANCH  21  22
ENDBRANCH  20  21
ENDBRANCH  19  20
ENDBRANCH  18  19
ENDBRANCH  17  18
ENDBRANCH  16  17
ENDBRANCH  15  16
ENDBRANCH  14  15
ENDBRANCH  13  14
ENDBRANCH  12  13
ENDBRANCH  11  12
ENDBRANCH  10  11
ENDBRANCH   9  10
ENDBRANCH   8   9
ENDBRANCH   7   8
ENDBRANCH   6   7
ENDBRANCH   5   6
ENDBRANCH   4   5
ENDBRANCH   3   4
ENDBRANCH   2   3
TORSDOF 20
ENDMDL
MODEL      424
REMARK 921   NORMALIZED FREE ENERGY PREDICTED BY IDOCK:   -2.18 KCAL/MOL
REMARK 922        TOTAL FREE ENERGY PREDICTED BY IDOCK:   -7.60 KCAL/MOL
REMARK 923 INTER-LIGAND FREE ENERGY PREDICTED BY IDOCK:   -5.30 KCAL/MOL
REMARK 924 INTRA-LIGAND FREE ENERGY PREDICTED BY IDOCK:   -2.29 KCAL/MOL
REMARK 927      BINDING AFFINITY PREDICTED BY RF-SCORE:    0.00 PKD
ROOT
HETATM    1  C   UNL     1     -10.423  15.966  69.824  1.00  0.00    -0.311 C  
HETATM    2  C   UNL     1     -11.632  15.051  69.724  1.00  0.00    -0.336 C  
ENDROOT
BRANCH   2   3
HETATM    3  C   UNL     1     -12.655  15.372  70.809  1.00  0.00    -0.497 C  
BRANCH   3   4
HETATM    4  C   UNL     1     -12.145  14.956  72.186  1.00  0.00    -0.424 C  
BRANCH   4   5
HETATM    5  C   UNL     1     -13.014  13.847  72.772  1.00  0.00    -0.414 C  
BRANCH   5   6
HETATM    6  C   UNL     1     -13.380  12.823  71.703  1.00  0.00    -0.345 C  
BRANCH   6   7
HETATM    7  C   UNL     1     -12.472  11.603  71.794  1.00  0.00    -0.044 C  
BRANCH   7   8
HETATM    8  C   UNL     1     -11.699  11.412  70.496  1.00  0.00    -0.296 C  
BRANCH   8   9
HETATM    9  C   UNL     1     -12.452  12.031  69.326  1.00  0.00     0.224 C  
BRANCH   9  10
HETATM   10  C   UNL     1     -11.946  11.469  68.006  1.00  0.00    -0.174 C  
BRANCH  10  11
HETATM   11  C   UNL     1     -10.667  12.176  67.579  1.00  0.00    -0.265 C  
BRANCH  11  12
HETATM   12  C   UNL     1      -9.845  11.284  66.660  1.00  0.00    -0.235 C  
BRANCH  12  13
HETATM   13  C   UNL     1      -8.464  11.041  67.250  1.00  0.00    -0.130 C  
BRANCH  13  14
HETATM   14  C   UNL     1      -8.499   9.880  68.235  1.00  0.00    -0.111 C  
BRANCH  14  15
HETATM   15  C   UNL     1      -8.907   8.595  67.531  1.00  0.00    -0.139 C  
BRANCH  15  16
HETATM   16  C   UNL     1      -7.868   7.505  67.763  1.00  0.00    -0.117 C  
BRANCH  16  17
HETATM   17  C   UNL     1      -8.306   6.575  68.888  1.00  0.00    -0.122 C  
BRANCH  17  18
HETATM   18  C   UNL     1      -7.521   6.865  70.161  1.00  0.00    -0.090 C  
BRANCH  18  19
HETATM   19  C   UNL     1      -8.433   6.822  71.382  1.00  0.00    -0.120 C  
BRANCH  19  20
HETATM   20  C   UNL     1      -9.052   8.191  71.643  1.00  0.00    -0.214 C  
BRANCH  20  21
HETATM   21  C   UNL     1     -10.545   8.183  71.336  1.00  0.00    -0.269 C  
BRANCH  21  22
HETATM   22  C   UNL     1     -11.372   8.297  72.610  1.00  0.00    -0.350 C  
HETATM   23  O   UNL     1     -11.548   7.009  73.186  1.00  0.00    -0.526 OA 
HETATM   24  H   UNL     1     -12.064   7.080  73.980  1.00  0.00     0.000 HD 
ENDBRANCH  21  22
ENDBRANCH  20  21
ENDBRANCH  19  20
ENDBRANCH  18  19
ENDBRANCH  17  18
ENDBRANCH  16  17
ENDBRANCH  15  16
ENDBRANCH  14  15
ENDBRANCH  13  14
ENDBRANCH  12  13
ENDBRANCH  11  12
ENDBRANCH  10  11
ENDBRANCH   9  10
ENDBRANCH   8   9
ENDBRANCH   7   8
ENDBRANCH   6   7
ENDBRANCH   5   6
ENDBRANCH   4   5
ENDBRANCH   3   4
ENDBRANCH   2   3
TORSDOF 20
ENDMDL
MODEL      425
REMARK 921   NORMALIZED FREE ENERGY PREDICTED BY IDOCK:   -2.18 KCAL/MOL
REMARK 922        TOTAL FREE ENERGY PREDICTED BY IDOCK:   -7.60 KCAL/MOL
REMARK 923 INTER-LIGAND FREE ENERGY PREDICTED BY IDOCK:   -5.90 KCAL/MOL
REMARK 924 INTRA-LIGAND FREE ENERGY PREDICTED BY IDOCK:   -1.70 KCAL/MOL
REMARK 927      BINDING AFFINITY PREDICTED BY RF-SCORE:    0.00 PKD
ROOT
HETATM    1  C   UNL     1      -6.073  19.512  64.884  1.00  0.00    -0.310 C  
HETATM    2  C   UNL     1      -5.659  19.885  66.297  1.00  0.00    -0.182 C  
ENDROOT
BRANCH   2   3
HETATM    3  C   UNL     1      -6.337  18.982  67.324  1.00  0.00    -0.189 C  
BRANCH   3   4
HETATM    4  C   UNL     1      -7.811  18.776  66.988  1.00  0.00    -0.249 C  
BRANCH   4   5
HETATM    5  C   UNL     1      -8.410  17.664  67.844  1.00  0.00    -0.235 C  
BRANCH   5   6
HETATM    6  C   UNL     1      -9.869  17.960  68.175  1.00  0.00    -0.334 C  
BRANCH   6   7
HETATM    7  C   UNL     1     -10.353  17.071  69.314  1.00  0.00    -0.276 C  
BRANCH   7   8
HETATM    8  C   UNL     1      -9.823  15.652  69.149  1.00  0.00    -0.247 C  
BRANCH   8   9
HETATM    9  C   UNL     1     -10.948  14.638  69.307  1.00  0.00    -0.278 C  
BRANCH   9  10
HETATM   10  C   UNL     1     -12.044  15.191  70.206  1.00  0.00    -0.385 C  
BRANCH  10  11
HETATM   11  C   UNL     1     -13.026  14.093  70.590  1.00  0.00    -0.290 C  
BRANCH  11  12
HETATM   12  C   UNL     1     -12.295  12.932  71.251  1.00  0.00    -0.179 C  
BRANCH  12  13
HETATM   13  C   UNL     1     -12.994  11.618  70.942  1.00  0.00    -0.145 C  
BRANCH  13  14
HETATM   14  C   UNL     1     -11.975  10.529  70.634  1.00  0.00    -0.455 C  
BRANCH  14  15
HETATM   15  C   UNL     1     -11.443  10.680  69.216  1.00  0.00    -0.351 C  
BRANCH  15  16
HETATM   16  C   UNL     1      -9.921  10.742  69.218  1.00  0.00    -0.182 C  
BRANCH  16  17
HETATM   17  C   UNL     1      -9.416  11.600  68.064  1.00  0.00    -0.185 C  
BRANCH  17  18
HETATM   18  C   UNL     1      -8.007  11.182  67.662  1.00  0.00    -0.116 C  
BRANCH  18  19
HETATM   19  C   UNL     1      -7.930  10.904  66.164  1.00  0.00    -0.155 C  
BRANCH  19  20
HETATM   20  C   UNL     1      -9.316  10.617  65.597  1.00  0.00    -0.239 C  
BRANCH  20  21
HETATM   21  C   UNL     1      -9.263  10.448  64.083  1.00  0.00    -0.298 C  
BRANCH  21  22
HETATM   22  C   UNL     1     -10.372  11.238  63.400  1.00  0.00    -0.391 C  
HETATM   23  O   UNL     1     -11.524  11.268  64.233  1.00  0.00    -0.228 OA 
HETATM   24  H   UNL     1     -12.216  11.761  63.807  1.00  0.00     0.000 HD 
ENDBRANCH  21  22
ENDBRANCH  20  21
ENDBRANCH  19  20
ENDBRANCH  18  19
ENDBRANCH  17  18
ENDBRANCH  16  17
ENDBRANCH  15  16
ENDBRANCH  14  15
ENDBRANCH  13  14
ENDBRANCH  12  13
ENDBRANCH  11  12
ENDBRANCH  10  11
ENDBRANCH   9  10
ENDBRANCH   8   9
ENDBRANCH   7   8
ENDBRANCH   6   7
ENDBRANCH   5   6
ENDBRANCH   4   5
ENDBRANCH   3   4
ENDBRANCH   2   3
TORSDOF 20
ENDMDL
MODEL      426
REMARK 921   NORMALIZED FREE ENERGY PREDICTED BY IDOCK:   -2.18 KCAL/MOL
REMARK 922        TOTAL FREE ENERGY PREDICTED BY IDOCK:   -7.60 KCAL/MOL
REMARK 923 INTER-LIGAND FREE ENERGY PREDICTED BY IDOCK:   -5.24 KCAL/MOL
REMARK 924 INTRA-LIGAND FREE ENERGY PREDICTED BY IDOCK:   -2.35 KCAL/MOL
REMARK 927      BINDING AFFINITY PREDICTED BY RF-SCORE:    0.00 PKD
ROOT
HETATM    1  C   UNL     1      -5.451  13.811  69.696  1.00  0.00    -0.089 C  
HETATM    2  C   UNL     1      -6.601  14.768  69.431  1.00  0.00    -0.142 C  
ENDROOT
BRANCH   2   3
HETATM    3  C   UNL     1      -6.708  15.100  67.946  1.00  0.00    -0.168 C  
BRANCH   3   4
HETATM    4  C   UNL     1      -7.887  14.375  67.303  1.00  0.00    -0.188 C  
BRANCH   4   5
HETATM    5  C   UNL     1      -8.930  14.003  68.353  1.00  0.00    -0.189 C  
BRANCH   5   6
HETATM    6  C   UNL     1      -9.227  12.507  68.317  1.00  0.00    -0.186 C  
BRANCH   6   7
HETATM    7  C   UNL     1     -10.707  12.259  68.052  1.00  0.00    -0.245 C  
BRANCH   7   8
HETATM    8  C   UNL     1     -11.567  13.116  68.971  1.00  0.00    -0.360 C  
BRANCH   8   9
HETATM    9  C   UNL     1     -11.951  12.341  70.224  1.00  0.00    -0.373 C  
BRANCH   9  10
HETATM   10  C   UNL     1     -12.382  10.925  69.866  1.00  0.00    -0.354 C  
BRANCH  10  11
HETATM   11  C   UNL     1     -11.993   9.953  70.971  1.00  0.00    -0.456 C  
BRANCH  11  12
HETATM   12  C   UNL     1     -10.506   9.635  70.903  1.00  0.00    -0.359 C  
BRANCH  12  13
HETATM   13  C   UNL     1     -10.239   8.227  71.411  1.00  0.00    -0.263 C  
BRANCH  13  14
HETATM   14  C   UNL     1      -8.811   7.803  71.090  1.00  0.00    -0.143 C  
BRANCH  14  15
HETATM   15  C   UNL     1      -8.333   8.468  69.808  1.00  0.00    -0.124 C  
BRANCH  15  16
HETATM   16  C   UNL     1      -7.503   7.497  68.979  1.00  0.00    -0.096 C  
BRANCH  16  17
HETATM   17  C   UNL     1      -7.805   7.662  67.494  1.00  0.00    -0.119 C  
BRANCH  17  18
HETATM   18  C   UNL     1      -8.880   8.722  67.280  1.00  0.00    -0.141 C  
BRANCH  18  19
HETATM   19  C   UNL     1      -8.434   9.743  66.239  1.00  0.00    -0.129 C  
BRANCH  19  20
HETATM   20  C   UNL     1      -7.794   9.049  65.041  1.00  0.00    -0.113 C  
BRANCH  20  21
HETATM   21  C   UNL     1      -8.636   9.237  63.785  1.00  0.00    -0.206 C  
BRANCH  21  22
HETATM   22  C   UNL     1      -9.538  10.459  63.903  1.00  0.00    -0.312 C  
HETATM   23  O   UNL     1      -8.943  11.562  63.232  1.00  0.00    -0.488 OA 
HETATM   24  H   UNL     1      -9.505  12.324  63.305  1.00  0.00     0.000 HD 
ENDBRANCH  21  22
ENDBRANCH  20  21
ENDBRANCH  19  20
ENDBRANCH  18  19
ENDBRANCH  17  18
ENDBRANCH  16  17
ENDBRANCH  15  16
ENDBRANCH  14  15
ENDBRANCH  13  14
ENDBRANCH  12  13
ENDBRANCH  11  12
ENDBRANCH  10  11
ENDBRANCH   9  10
ENDBRANCH   8   9
ENDBRANCH   7   8
ENDBRANCH   6   7
ENDBRANCH   5   6
ENDBRANCH   4   5
ENDBRANCH   3   4
ENDBRANCH   2   3
TORSDOF 20
ENDMDL
MODEL      427
REMARK 921   NORMALIZED FREE ENERGY PREDICTED BY IDOCK:   -2.18 KCAL/MOL
REMARK 922        TOTAL FREE ENERGY PREDICTED BY IDOCK:   -7.59 KCAL/MOL
REMARK 923 INTER-LIGAND FREE ENERGY PREDICTED BY IDOCK:   -4.79 KCAL/MOL
REMARK 924 INTRA-LIGAND FREE ENERGY PREDICTED BY IDOCK:   -2.80 KCAL/MOL
REMARK 927      BINDING AFFINITY PREDICTED BY RF-SCORE:    0.00 PKD
ROOT
HETATM    1  C   UNL     1      -5.305  11.634  70.227  1.00  0.00    -0.111 C  
HETATM    2  C   UNL     1      -6.147  10.412  70.549  1.00  0.00    -0.116 C  
ENDROOT
BRANCH   2   3
HETATM    3  C   UNL     1      -7.489  10.463  69.825  1.00  0.00    -0.155 C  
BRANCH   3   4
HETATM    4  C   UNL     1      -8.272   9.168  70.025  1.00  0.00    -0.146 C  
BRANCH   4   5
HETATM    5  C   UNL     1      -8.535   8.919  71.507  1.00  0.00    -0.182 C  
BRANCH   5   6
HETATM    6  C   UNL     1      -8.041   7.537  71.921  1.00  0.00    -0.103 C  
BRANCH   6   7
HETATM    7  C   UNL     1      -9.206   6.657  72.357  1.00  0.00    -0.140 C  
BRANCH   7   8
HETATM    8  C   UNL     1      -9.613   5.712  71.235  1.00  0.00    -0.198 C  
BRANCH   8   9
HETATM    9  C   UNL     1     -11.049   5.979  70.802  1.00  0.00    -0.355 C  
BRANCH   9  10
HETATM   10  C   UNL     1     -11.137   6.106  69.288  1.00  0.00    -0.463 C  
BRANCH  10  11
HETATM   11  C   UNL     1      -9.887   6.777  68.735  1.00  0.00    -0.143 C  
BRANCH  11  12
HETATM   12  C   UNL     1      -9.105   5.809  67.859  1.00  0.00    -0.109 C  
BRANCH  12  13
HETATM   13  C   UNL     1      -7.613   6.083  67.964  1.00  0.00    -0.093 C  
BRANCH  13  14
HETATM   14  C   UNL     1      -7.259   7.391  67.268  1.00  0.00    -0.093 C  
BRANCH  14  15
HETATM   15  C   UNL     1      -7.434   7.258  65.762  1.00  0.00    -0.084 C  
BRANCH  15  16
HETATM   16  C   UNL     1      -8.454   8.268  65.251  1.00  0.00    -0.179 C  
BRANCH  16  17
HETATM   17  C   UNL     1      -8.820   9.264  66.345  1.00  0.00    -0.169 C  
BRANCH  17  18
HETATM   18  C   UNL     1     -10.239   9.783  66.145  1.00  0.00    -0.278 C  
BRANCH  18  19
HETATM   19  C   UNL     1     -10.356  11.232  66.605  1.00  0.00    -0.279 C  
BRANCH  19  20
HETATM   20  C   UNL     1     -10.343  11.317  68.128  1.00  0.00    -0.205 C  
BRANCH  20  21
HETATM   21  C   UNL     1     -11.750  11.173  68.695  1.00  0.00    -0.389 C  
BRANCH  21  22
HETATM   22  C   UNL     1     -11.716  10.706  70.144  1.00  0.00    -0.332 C  
HETATM   23  O   UNL     1     -11.912   9.299  70.201  1.00  0.00    -0.468 OA 
HETATM   24  H   UNL     1     -11.891   9.007  71.105  1.00  0.00     0.000 HD 
ENDBRANCH  21  22
ENDBRANCH  20  21
ENDBRANCH  19  20
ENDBRANCH  18  19
ENDBRANCH  17  18
ENDBRANCH  16  17
ENDBRANCH  15  16
ENDBRANCH  14  15
ENDBRANCH  13  14
ENDBRANCH  12  13
ENDBRANCH  11  12
ENDBRANCH  10  11
ENDBRANCH   9  10
ENDBRANCH   8   9
ENDBRANCH   7   8
ENDBRANCH   6   7
ENDBRANCH   5   6
ENDBRANCH   4   5
ENDBRANCH   3   4
ENDBRANCH   2   3
TORSDOF 20
ENDMDL
MODEL      428
REMARK 921   NORMALIZED FREE ENERGY PREDICTED BY IDOCK:   -2.17 KCAL/MOL
REMARK 922        TOTAL FREE ENERGY PREDICTED BY IDOCK:   -7.58 KCAL/MOL
REMARK 923 INTER-LIGAND FREE ENERGY PREDICTED BY IDOCK:   -6.33 KCAL/MOL
REMARK 924 INTRA-LIGAND FREE ENERGY PREDICTED BY IDOCK:   -1.25 KCAL/MOL
REMARK 927      BINDING AFFINITY PREDICTED BY RF-SCORE:    0.00 PKD
ROOT
HETATM    1  C   UNL     1      -8.227   8.040  62.535  1.00  0.00    -0.145 C  
HETATM    2  C   UNL     1      -6.987   8.274  63.382  1.00  0.00    -0.085 C  
ENDROOT
BRANCH   2   3
HETATM    3  C   UNL     1      -7.273   8.013  64.858  1.00  0.00    -0.073 C  
BRANCH   3   4
HETATM    4  C   UNL     1      -6.230   8.684  65.747  1.00  0.00    -0.055 C  
BRANCH   4   5
HETATM    5  C   UNL     1      -6.896   9.622  66.748  1.00  0.00    -0.084 C  
BRANCH   5   6
HETATM    6  C   UNL     1      -8.407   9.648  66.545  1.00  0.00    -0.120 C  
BRANCH   6   7
HETATM    7  C   UNL     1      -8.832  10.926  65.832  1.00  0.00    -0.197 C  
BRANCH   7   8
HETATM    8  C   UNL     1     -10.291  10.841  65.403  1.00  0.00    -0.315 C  
BRANCH   8   9
HETATM    9  C   UNL     1     -10.458  11.329  63.969  1.00  0.00    -0.440 C  
BRANCH   9  10
HETATM   10  C   UNL     1     -11.472  12.462  63.905  1.00  0.00    -0.509 C  
BRANCH  10  11
HETATM   11  C   UNL     1     -11.223  13.466  65.022  1.00  0.00    -0.332 C  
BRANCH  11  12
HETATM   12  C   UNL     1     -10.630  14.750  64.461  1.00  0.00    -0.050 C  
BRANCH  12  13
HETATM   13  C   UNL     1      -9.977  15.563  65.568  1.00  0.00    -0.377 C  
BRANCH  13  14
HETATM   14  C   UNL     1     -10.676  16.907  65.730  1.00  0.00    -0.165 C  
BRANCH  14  15
HETATM   15  C   UNL     1     -10.845  17.247  67.203  1.00  0.00    -0.085 C  
BRANCH  15  16
HETATM   16  C   UNL     1     -10.387  16.086  68.076  1.00  0.00    -0.266 C  
BRANCH  16  17
HETATM   17  C   UNL     1     -11.522  15.607  68.974  1.00  0.00    -0.369 C  
BRANCH  17  18
HETATM   18  C   UNL     1     -11.085  15.598  70.434  1.00  0.00    -0.369 C  
BRANCH  18  19
HETATM   19  C   UNL     1     -12.225  16.041  71.344  1.00  0.00    -0.439 C  
BRANCH  19  20
HETATM   20  C   UNL     1     -13.137  14.865  71.678  1.00  0.00    -0.424 C  
BRANCH  20  21
HETATM   21  C   UNL     1     -12.538  13.552  71.187  1.00  0.00    -0.438 C  
BRANCH  21  22
HETATM   22  C   UNL     1     -13.150  12.360  71.911  1.00  0.00    -0.366 C  
HETATM   23  O   UNL     1     -14.223  12.797  72.735  1.00  0.00    -0.630 OA 
HETATM   24  H   UNL     1     -14.605  12.054  73.187  1.00  0.00     0.000 HD 
ENDBRANCH  21  22
ENDBRANCH  20  21
ENDBRANCH  19  20
ENDBRANCH  18  19
ENDBRANCH  17  18
ENDBRANCH  16  17
ENDBRANCH  15  16
ENDBRANCH  14  15
ENDBRANCH  13  14
ENDBRANCH  12  13
ENDBRANCH  11  12
ENDBRANCH  10  11
ENDBRANCH   9  10
ENDBRANCH   8   9
ENDBRANCH   7   8
ENDBRANCH   6   7
ENDBRANCH   5   6
ENDBRANCH   4   5
ENDBRANCH   3   4
ENDBRANCH   2   3
TORSDOF 20
ENDMDL
MODEL      429
REMARK 921   NORMALIZED FREE ENERGY PREDICTED BY IDOCK:   -2.17 KCAL/MOL
REMARK 922        TOTAL FREE ENERGY PREDICTED BY IDOCK:   -7.57 KCAL/MOL
REMARK 923 INTER-LIGAND FREE ENERGY PREDICTED BY IDOCK:   -5.20 KCAL/MOL
REMARK 924 INTRA-LIGAND FREE ENERGY PREDICTED BY IDOCK:   -2.36 KCAL/MOL
REMARK 927      BINDING AFFINITY PREDICTED BY RF-SCORE:    0.00 PKD
ROOT
HETATM    1  C   UNL     1     -11.207  15.887  64.674  1.00  0.00    -0.361 C  
HETATM    2  C   UNL     1     -12.492  15.185  64.270  1.00  0.00    -0.073 C  
ENDROOT
BRANCH   2   3
HETATM    3  C   UNL     1     -12.759  13.973  65.158  1.00  0.00    -0.419 C  
BRANCH   3   4
HETATM    4  C   UNL     1     -11.555  13.036  65.186  1.00  0.00    -0.357 C  
BRANCH   4   5
HETATM    5  C   UNL     1     -11.009  12.902  66.604  1.00  0.00    -0.302 C  
BRANCH   5   6
HETATM    6  C   UNL     1     -12.035  13.375  67.629  1.00  0.00    -0.362 C  
BRANCH   6   7
HETATM    7  C   UNL     1     -11.370  14.228  68.702  1.00  0.00    -0.302 C  
BRANCH   7   8
HETATM    8  C   UNL     1     -10.963  15.582  68.134  1.00  0.00    -0.312 C  
BRANCH   8   9
HETATM    9  C   UNL     1     -10.231  16.406  69.185  1.00  0.00    -0.280 C  
BRANCH   9  10
HETATM   10  C   UNL     1      -9.798  17.746  68.607  1.00  0.00    -0.359 C  
BRANCH  10  11
HETATM   11  C   UNL     1     -10.072  17.796  67.111  1.00  0.00    -0.338 C  
BRANCH  11  12
HETATM   12  C   UNL     1      -8.843  18.288  66.359  1.00  0.00    -0.256 C  
BRANCH  12  13
HETATM   13  C   UNL     1      -7.665  18.442  67.308  1.00  0.00    -0.228 C  
BRANCH  13  14
HETATM   14  C   UNL     1      -6.611  17.379  67.030  1.00  0.00    -0.212 C  
BRANCH  14  15
HETATM   15  C   UNL     1      -6.508  16.410  68.198  1.00  0.00    -0.135 C  
BRANCH  15  16
HETATM   16  C   UNL     1      -5.515  15.298  67.886  1.00  0.00    -0.132 C  
BRANCH  16  17
HETATM   17  C   UNL     1      -5.841  14.045  68.690  1.00  0.00    -0.085 C  
BRANCH  17  18
HETATM   18  C   UNL     1      -7.339  13.765  68.665  1.00  0.00    -0.117 C  
BRANCH  18  19
HETATM   19  C   UNL     1      -7.609  12.273  68.501  1.00  0.00    -0.118 C  
BRANCH  19  20
HETATM   20  C   UNL     1      -8.984  11.910  69.051  1.00  0.00     0.296 C  
BRANCH  20  21
HETATM   21  C   UNL     1      -9.084  10.415  69.330  1.00  0.00    -0.170 C  
BRANCH  21  22
HETATM   22  C   UNL     1     -10.333   9.817  68.695  1.00  0.00    -0.201 C  
HETATM   23  O   UNL     1     -11.348   9.667  69.678  1.00  0.00    -0.380 OA 
HETATM   24  H   UNL     1     -12.127   9.293  69.282  1.00  0.00     0.000 HD 
ENDBRANCH  21  22
ENDBRANCH  20  21
ENDBRANCH  19  20
ENDBRANCH  18  19
ENDBRANCH  17  18
ENDBRANCH  16  17
ENDBRANCH  15  16
ENDBRANCH  14  15
ENDBRANCH  13  14
ENDBRANCH  12  13
ENDBRANCH  11  12
ENDBRANCH  10  11
ENDBRANCH   9  10
ENDBRANCH   8   9
ENDBRANCH   7   8
ENDBRANCH   6   7
ENDBRANCH   5   6
ENDBRANCH   4   5
ENDBRANCH   3   4
ENDBRANCH   2   3
TORSDOF 20
ENDMDL
MODEL      430
REMARK 921   NORMALIZED FREE ENERGY PREDICTED BY IDOCK:   -2.17 KCAL/MOL
REMARK 922        TOTAL FREE ENERGY PREDICTED BY IDOCK:   -7.57 KCAL/MOL
REMARK 923 INTER-LIGAND FREE ENERGY PREDICTED BY IDOCK:   -5.31 KCAL/MOL
REMARK 924 INTRA-LIGAND FREE ENERGY PREDICTED BY IDOCK:   -2.26 KCAL/MOL
REMARK 927      BINDING AFFINITY PREDICTED BY RF-SCORE:    0.00 PKD
ROOT
HETATM    1  C   UNL     1     -10.674   9.334  68.795  1.00  0.00    -0.184 C  
HETATM    2  C   UNL     1     -10.254   8.868  70.178  1.00  0.00    -0.218 C  
ENDROOT
BRANCH   2   3
HETATM    3  C   UNL     1     -10.786   9.805  71.259  1.00  0.00    -0.276 C  
BRANCH   3   4
HETATM    4  C   UNL     1     -12.141   9.332  71.778  1.00  0.00    -0.457 C  
BRANCH   4   5
HETATM    5  C   UNL     1     -13.063  10.519  72.041  1.00  0.00    -0.511 C  
BRANCH   5   6
HETATM    6  C   UNL     1     -12.414  11.821  71.583  1.00  0.00    -0.122 C  
BRANCH   6   7
HETATM    7  C   UNL     1     -13.357  12.998  71.805  1.00  0.00    -0.468 C  
BRANCH   7   8
HETATM    8  C   UNL     1     -12.590  14.314  71.762  1.00  0.00    -0.418 C  
BRANCH   8   9
HETATM    9  C   UNL     1     -12.966  15.113  70.521  1.00  0.00    -0.366 C  
BRANCH   9  10
HETATM   10  C   UNL     1     -11.738  15.793  69.931  1.00  0.00    -0.365 C  
BRANCH  10  11
HETATM   11  C   UNL     1     -11.418  15.220  68.557  1.00  0.00    -0.355 C  
BRANCH  11  12
HETATM   12  C   UNL     1     -10.998  13.761  68.672  1.00  0.00    -0.287 C  
BRANCH  12  13
HETATM   13  C   UNL     1      -9.810  13.477  67.767  1.00  0.00    -0.233 C  
BRANCH  13  14
HETATM   14  C   UNL     1     -10.281  13.044  66.385  1.00  0.00    -0.283 C  
BRANCH  14  15
HETATM   15  C   UNL     1      -9.854  11.612  66.100  1.00  0.00    -0.250 C  
BRANCH  15  16
HETATM   16  C   UNL     1      -8.410  11.570  65.615  1.00  0.00     0.265 C  
BRANCH  16  17
HETATM   17  C   UNL     1      -7.890  10.137  65.599  1.00  0.00    -0.145 C  
BRANCH  17  18
HETATM   18  C   UNL     1      -7.515   9.686  67.005  1.00  0.00    -0.091 C  
BRANCH  18  19
HETATM   19  C   UNL     1      -6.059  10.020  67.312  1.00  0.00    -0.058 C  
BRANCH  19  20
HETATM   20  C   UNL     1      -5.939  10.730  68.656  1.00  0.00    -0.039 C  
BRANCH  20  21
HETATM   21  C   UNL     1      -6.396  12.180  68.550  1.00  0.00    -0.056 C  
BRANCH  21  22
HETATM   22  C   UNL     1      -6.185  12.924  69.862  1.00  0.00    -0.086 C  
HETATM   23  O   UNL     1      -5.745  12.016  70.864  1.00  0.00    -0.307 OA 
HETATM   24  H   UNL     1      -5.614  12.480  71.682  1.00  0.00     0.000 HD 
ENDBRANCH  21  22
ENDBRANCH  20  21
ENDBRANCH  19  20
ENDBRANCH  18  19
ENDBRANCH  17  18
ENDBRANCH  16  17
ENDBRANCH  15  16
ENDBRANCH  14  15
ENDBRANCH  13  14
ENDBRANCH  12  13
ENDBRANCH  11  12
ENDBRANCH  10  11
ENDBRANCH   9  10
ENDBRANCH   8   9
ENDBRANCH   7   8
ENDBRANCH   6   7
ENDBRANCH   5   6
ENDBRANCH   4   5
ENDBRANCH   3   4
ENDBRANCH   2   3
TORSDOF 20
ENDMDL
MODEL      431
REMARK 921   NORMALIZED FREE ENERGY PREDICTED BY IDOCK:   -2.16 KCAL/MOL
REMARK 922        TOTAL FREE ENERGY PREDICTED BY IDOCK:   -7.55 KCAL/MOL
REMARK 923 INTER-LIGAND FREE ENERGY PREDICTED BY IDOCK:   -6.11 KCAL/MOL
REMARK 924 INTRA-LIGAND FREE ENERGY PREDICTED BY IDOCK:   -1.44 KCAL/MOL
REMARK 927      BINDING AFFINITY PREDICTED BY RF-SCORE:    0.00 PKD
ROOT
HETATM    1  C   UNL     1     -12.180  11.766  63.556  1.00  0.00    -0.489 C  
HETATM    2  C   UNL     1     -11.987  13.271  63.478  1.00  0.00    -0.537 C  
ENDROOT
BRANCH   2   3
HETATM    3  C   UNL     1     -10.792  13.715  64.316  1.00  0.00    -0.297 C  
BRANCH   3   4
HETATM    4  C   UNL     1     -10.912  15.185  64.708  1.00  0.00    -0.394 C  
BRANCH   4   5
HETATM    5  C   UNL     1     -10.494  15.393  66.161  1.00  0.00    -0.325 C  
BRANCH   5   6
HETATM    6  C   UNL     1      -9.398  14.409  66.556  1.00  0.00    -0.300 C  
BRANCH   6   7
HETATM    7  C   UNL     1      -9.730  13.740  67.885  1.00  0.00    -0.229 C  
BRANCH   7   8
HETATM    8  C   UNL     1     -11.238  13.628  68.068  1.00  0.00    -0.295 C  
BRANCH   8   9
HETATM    9  C   UNL     1     -11.662  12.168  68.144  1.00  0.00    -0.402 C  
BRANCH   9  10
HETATM   10  C   UNL     1     -12.135  11.821  69.549  1.00  0.00    -0.314 C  
BRANCH  10  11
HETATM   11  C   UNL     1     -11.827  10.366  69.872  1.00  0.00    -0.314 C  
BRANCH  11  12
HETATM   12  C   UNL     1     -12.015  10.098  71.359  1.00  0.00    -0.447 C  
BRANCH  12  13
HETATM   13  C   UNL     1     -11.133   8.943  71.808  1.00  0.00    -0.433 C  
BRANCH  13  14
HETATM   14  C   UNL     1      -9.720   9.105  71.263  1.00  0.00    -0.351 C  
BRANCH  14  15
HETATM   15  C   UNL     1      -8.734   8.288  72.084  1.00  0.00    -0.259 C  
BRANCH  15  16
HETATM   16  C   UNL     1      -8.627   6.870  71.538  1.00  0.00    -0.122 C  
BRANCH  16  17
HETATM   17  C   UNL     1      -7.168   6.480  71.336  1.00  0.00    -0.079 C  
BRANCH  17  18
HETATM   18  C   UNL     1      -6.991   5.718  70.028  1.00  0.00    -0.065 C  
BRANCH  18  19
HETATM   19  C   UNL     1      -8.343   5.340  69.434  1.00  0.00    -0.095 C  
BRANCH  19  20
HETATM   20  C   UNL     1      -8.195   4.930  67.972  1.00  0.00    -0.096 C  
BRANCH  20  21
HETATM   21  C   UNL     1      -8.644   6.050  67.042  1.00  0.00    -0.107 C  
BRANCH  21  22
HETATM   22  C   UNL     1      -7.934   5.969  65.696  1.00  0.00    -0.116 C  
HETATM   23  O   UNL     1      -6.595   5.530  65.885  1.00  0.00    -0.042 OA 
HETATM   24  H   UNL     1      -6.152   5.480  65.046  1.00  0.00     0.000 HD 
ENDBRANCH  21  22
ENDBRANCH  20  21
ENDBRANCH  19  20
ENDBRANCH  18  19
ENDBRANCH  17  18
ENDBRANCH  16  17
ENDBRANCH  15  16
ENDBRANCH  14  15
ENDBRANCH  13  14
ENDBRANCH  12  13
ENDBRANCH  11  12
ENDBRANCH  10  11
ENDBRANCH   9  10
ENDBRANCH   8   9
ENDBRANCH   7   8
ENDBRANCH   6   7
ENDBRANCH   5   6
ENDBRANCH   4   5
ENDBRANCH   3   4
ENDBRANCH   2   3
TORSDOF 20
ENDMDL
MODEL      432
REMARK 921   NORMALIZED FREE ENERGY PREDICTED BY IDOCK:   -2.16 KCAL/MOL
REMARK 922        TOTAL FREE ENERGY PREDICTED BY IDOCK:   -7.55 KCAL/MOL
REMARK 923 INTER-LIGAND FREE ENERGY PREDICTED BY IDOCK:   -6.34 KCAL/MOL
REMARK 924 INTRA-LIGAND FREE ENERGY PREDICTED BY IDOCK:   -1.21 KCAL/MOL
REMARK 927      BINDING AFFINITY PREDICTED BY RF-SCORE:    0.00 PKD
ROOT
HETATM    1  C   UNL     1     -10.910   5.615  69.288  1.00  0.00    -0.309 C  
HETATM    2  C   UNL     1     -10.451   6.004  70.683  1.00  0.00    -0.305 C  
ENDROOT
BRANCH   2   3
HETATM    3  C   UNL     1     -10.144   7.496  70.765  1.00  0.00    -0.192 C  
BRANCH   3   4
HETATM    4  C   UNL     1      -8.863   7.836  70.008  1.00  0.00    -0.142 C  
BRANCH   4   5
HETATM    5  C   UNL     1      -9.016   9.152  69.251  1.00  0.00    -0.145 C  
BRANCH   5   6
HETATM    6  C   UNL     1     -10.228   9.108  68.326  1.00  0.00    -0.242 C  
BRANCH   6   7
HETATM    7  C   UNL     1      -9.900   8.353  67.044  1.00  0.00    -0.296 C  
BRANCH   7   8
HETATM    8  C   UNL     1      -8.574   8.829  66.467  1.00  0.00    -0.126 C  
BRANCH   8   9
HETATM    9  C   UNL     1      -8.784   9.483  65.108  1.00  0.00    -0.200 C  
BRANCH   9  10
HETATM   10  C   UNL     1      -8.629  10.993  65.211  1.00  0.00    -0.048 C  
BRANCH  10  11
HETATM   11  C   UNL     1      -9.928  11.633  65.682  1.00  0.00    -0.274 C  
BRANCH  11  12
HETATM   12  C   UNL     1     -10.719  12.168  64.496  1.00  0.00    -0.353 C  
BRANCH  12  13
HETATM   13  C   UNL     1     -12.094  12.640  64.943  1.00  0.00    -0.494 C  
BRANCH  13  14
HETATM   14  C   UNL     1     -12.049  13.130  66.384  1.00  0.00    -0.447 C  
BRANCH  14  15
HETATM   15  C   UNL     1     -11.438  14.521  66.456  1.00  0.00    -0.366 C  
BRANCH  15  16
HETATM   16  C   UNL     1     -10.548  14.653  67.685  1.00  0.00    -0.256 C  
BRANCH  16  17
HETATM   17  C   UNL     1     -10.847  15.948  68.431  1.00  0.00    -0.316 C  
BRANCH  17  18
HETATM   18  C   UNL     1      -9.560  16.709  68.724  1.00  0.00    -0.254 C  
BRANCH  18  19
HETATM   19  C   UNL     1      -8.454  16.295  67.759  1.00  0.00    -0.169 C  
BRANCH  19  20
HETATM   20  C   UNL     1      -8.702  16.876  66.371  1.00  0.00    -0.321 C  
BRANCH  20  21
HETATM   21  C   UNL     1      -9.468  18.191  66.458  1.00  0.00    -0.307 C  
BRANCH  21  22
HETATM   22  C   UNL     1      -8.533  19.385  66.325  1.00  0.00    -0.334 C  
HETATM   23  O   UNL     1      -9.030  20.474  67.092  1.00  0.00    -0.444 OA 
HETATM   24  H   UNL     1      -8.447  21.219  67.009  1.00  0.00     0.000 HD 
ENDBRANCH  21  22
ENDBRANCH  20  21
ENDBRANCH  19  20
ENDBRANCH  18  19
ENDBRANCH  17  18
ENDBRANCH  16  17
ENDBRANCH  15  16
ENDBRANCH  14  15
ENDBRANCH  13  14
ENDBRANCH  12  13
ENDBRANCH  11  12
ENDBRANCH  10  11
ENDBRANCH   9  10
ENDBRANCH   8   9
ENDBRANCH   7   8
ENDBRANCH   6   7
ENDBRANCH   5   6
ENDBRANCH   4   5
ENDBRANCH   3   4
ENDBRANCH   2   3
TORSDOF 20
ENDMDL
MODEL      433
REMARK 921   NORMALIZED FREE ENERGY PREDICTED BY IDOCK:   -2.16 KCAL/MOL
REMARK 922        TOTAL FREE ENERGY PREDICTED BY IDOCK:   -7.54 KCAL/MOL
REMARK 923 INTER-LIGAND FREE ENERGY PREDICTED BY IDOCK:   -6.42 KCAL/MOL
REMARK 924 INTRA-LIGAND FREE ENERGY PREDICTED BY IDOCK:   -1.12 KCAL/MOL
REMARK 927      BINDING AFFINITY PREDICTED BY RF-SCORE:    0.00 PKD
ROOT
HETATM    1  C   UNL     1     -10.724   5.941  69.194  1.00  0.00    -0.394 C  
HETATM    2  C   UNL     1     -10.587   5.755  67.692  1.00  0.00    -0.313 C  
ENDROOT
BRANCH   2   3
HETATM    3  C   UNL     1     -10.811   7.070  66.952  1.00  0.00    -0.350 C  
BRANCH   3   4
HETATM    4  C   UNL     1      -9.719   8.082  67.286  1.00  0.00    -0.232 C  
BRANCH   4   5
HETATM    5  C   UNL     1      -9.451   9.001  66.098  1.00  0.00    -0.318 C  
BRANCH   5   6
HETATM    6  C   UNL     1     -10.342  10.238  66.157  1.00  0.00    -0.253 C  
BRANCH   6   7
HETATM    7  C   UNL     1      -9.886  11.278  65.141  1.00  0.00    -0.298 C  
BRANCH   7   8
HETATM    8  C   UNL     1     -11.080  12.047  64.589  1.00  0.00    -0.375 C  
BRANCH   8   9
HETATM    9  C   UNL     1     -10.679  13.471  64.228  1.00  0.00    -0.324 C  
BRANCH   9  10
HETATM   10  C   UNL     1     -11.640  14.471  64.853  1.00  0.00    -0.401 C  
BRANCH  10  11
HETATM   11  C   UNL     1     -10.883  15.473  65.714  1.00  0.00    -0.337 C  
BRANCH  11  12
HETATM   12  C   UNL     1     -11.198  16.897  65.277  1.00  0.00     0.201 C  
BRANCH  12  13
HETATM   13  C   UNL     1     -10.196  17.871  65.877  1.00  0.00    -0.228 C  
BRANCH  13  14
HETATM   14  C   UNL     1     -10.879  19.182  66.245  1.00  0.00    -0.317 C  
BRANCH  14  15
HETATM   15  C   UNL     1     -10.848  19.396  67.751  1.00  0.00    -0.402 C  
BRANCH  15  16
HETATM   16  C   UNL     1     -10.100  18.262  68.438  1.00  0.00    -0.412 C  
BRANCH  16  17
HETATM   17  C   UNL     1      -8.971  18.809  69.304  1.00  0.00     0.103 C  
BRANCH  17  18
HETATM   18  C   UNL     1      -7.626  18.628  68.612  1.00  0.00    -0.341 C  
BRANCH  18  19
HETATM   19  C   UNL     1      -6.998  19.979  68.286  1.00  0.00    -0.330 C  
BRANCH  19  20
HETATM   20  C   UNL     1      -5.608  19.797  67.686  1.00  0.00    -0.197 C  
BRANCH  20  21
HETATM   21  C   UNL     1      -5.471  20.571  66.380  1.00  0.00    -0.199 C  
BRANCH  21  22
HETATM   22  C   UNL     1      -6.657  20.316  65.459  1.00  0.00    -0.265 C  
HETATM   23  O   UNL     1      -6.340  19.276  64.543  1.00  0.00    -0.438 OA 
HETATM   24  H   UNL     1      -7.080  19.118  63.969  1.00  0.00     0.000 HD 
ENDBRANCH  21  22
ENDBRANCH  20  21
ENDBRANCH  19  20
ENDBRANCH  18  19
ENDBRANCH  17  18
ENDBRANCH  16  17
ENDBRANCH  15  16
ENDBRANCH  14  15
ENDBRANCH  13  14
ENDBRANCH  12  13
ENDBRANCH  11  12
ENDBRANCH  10  11
ENDBRANCH   9  10
ENDBRANCH   8   9
ENDBRANCH   7   8
ENDBRANCH   6   7
ENDBRANCH   5   6
ENDBRANCH   4   5
ENDBRANCH   3   4
ENDBRANCH   2   3
TORSDOF 20
ENDMDL
MODEL      434
REMARK 921   NORMALIZED FREE ENERGY PREDICTED BY IDOCK:   -2.14 KCAL/MOL
REMARK 922        TOTAL FREE ENERGY PREDICTED BY IDOCK:   -7.51 KCAL/MOL
REMARK 923 INTER-LIGAND FREE ENERGY PREDICTED BY IDOCK:   -6.06 KCAL/MOL
REMARK 924 INTRA-LIGAND FREE ENERGY PREDICTED BY IDOCK:   -1.45 KCAL/MOL
REMARK 927      BINDING AFFINITY PREDICTED BY RF-SCORE:    0.00 PKD
ROOT
HETATM    1  C   UNL     1      -6.170  20.334  64.602  1.00  0.00    -0.338 C  
HETATM    2  C   UNL     1      -6.080  20.619  66.092  1.00  0.00    -0.260 C  
ENDROOT
BRANCH   2   3
HETATM    3  C   UNL     1      -6.911  19.621  66.893  1.00  0.00    -0.216 C  
BRANCH   3   4
HETATM    4  C   UNL     1      -8.352  19.578  66.391  1.00  0.00    -0.364 C  
BRANCH   4   5
HETATM    5  C   UNL     1      -9.015  18.255  66.766  1.00  0.00    -0.289 C  
BRANCH   5   6
HETATM    6  C   UNL     1     -10.386  18.493  67.390  1.00  0.00    -0.432 C  
BRANCH   6   7
HETATM    7  C   UNL     1     -10.789  17.315  68.268  1.00  0.00    -0.287 C  
BRANCH   7   8
HETATM    8  C   UNL     1     -10.706  16.011  67.486  1.00  0.00    -0.314 C  
BRANCH   8   9
HETATM    9  C   UNL     1     -11.532  14.926  68.165  1.00  0.00    -0.348 C  
BRANCH   9  10
HETATM   10  C   UNL     1     -12.138  15.446  69.460  1.00  0.00    -0.332 C  
BRANCH  10  11
HETATM   11  C   UNL     1     -12.746  14.304  70.262  1.00  0.00    -0.305 C  
BRANCH  11  12
HETATM   12  C   UNL     1     -11.732  13.184  70.448  1.00  0.00    -0.141 C  
BRANCH  12  13
HETATM   13  C   UNL     1     -12.382  11.982  71.114  1.00  0.00    -0.282 C  
BRANCH  13  14
HETATM   14  C   UNL     1     -12.202  10.734  70.260  1.00  0.00    -0.431 C  
BRANCH  14  15
HETATM   15  C   UNL     1     -12.035  11.109  68.795  1.00  0.00    -0.337 C  
BRANCH  15  16
HETATM   16  C   UNL     1     -10.812  10.423  68.202  1.00  0.00    -0.311 C  
BRANCH  16  17
HETATM   17  C   UNL     1     -10.047   9.662  69.278  1.00  0.00    -0.201 C  
BRANCH  17  18
HETATM   18  C   UNL     1      -8.544   9.843  69.099  1.00  0.00    -0.157 C  
BRANCH  18  19
HETATM   19  C   UNL     1      -7.819   8.507  69.220  1.00  0.00    -0.099 C  
BRANCH  19  20
HETATM   20  C   UNL     1      -8.067   7.879  70.587  1.00  0.00    -0.102 C  
BRANCH  20  21
HETATM   21  C   UNL     1      -8.762   6.530  70.451  1.00  0.00    -0.147 C  
BRANCH  21  22
HETATM   22  C   UNL     1     -10.111   6.529  71.157  1.00  0.00    -0.183 C  
HETATM   23  O   UNL     1     -10.112   7.501  72.194  1.00  0.00    -0.185 OA 
HETATM   24  H   UNL     1     -10.954   7.500  72.635  1.00  0.00     0.000 HD 
ENDBRANCH  21  22
ENDBRANCH  20  21
ENDBRANCH  19  20
ENDBRANCH  18  19
ENDBRANCH  17  18
ENDBRANCH  16  17
ENDBRANCH  15  16
ENDBRANCH  14  15
ENDBRANCH  13  14
ENDBRANCH  12  13
ENDBRANCH  11  12
ENDBRANCH  10  11
ENDBRANCH   9  10
ENDBRANCH   8   9
ENDBRANCH   7   8
ENDBRANCH   6   7
ENDBRANCH   5   6
ENDBRANCH   4   5
ENDBRANCH   3   4
ENDBRANCH   2   3
TORSDOF 20
ENDMDL
MODEL      435
REMARK 921   NORMALIZED FREE ENERGY PREDICTED BY IDOCK:   -2.14 KCAL/MOL
REMARK 922        TOTAL FREE ENERGY PREDICTED BY IDOCK:   -7.51 KCAL/MOL
REMARK 923 INTER-LIGAND FREE ENERGY PREDICTED BY IDOCK:   -5.08 KCAL/MOL
REMARK 924 INTRA-LIGAND FREE ENERGY PREDICTED BY IDOCK:   -2.42 KCAL/MOL
REMARK 927      BINDING AFFINITY PREDICTED BY RF-SCORE:    0.00 PKD
ROOT
HETATM    1  C   UNL     1      -7.437  16.172  68.841  1.00  0.00    -0.197 C  
HETATM    2  C   UNL     1      -8.728  16.973  68.807  1.00  0.00    -0.244 C  
ENDROOT
BRANCH   2   3
HETATM    3  C   UNL     1      -8.620  18.147  67.839  1.00  0.00    -0.259 C  
BRANCH   3   4
HETATM    4  C   UNL     1      -9.257  17.811  66.493  1.00  0.00    -0.280 C  
BRANCH   4   5
HETATM    5  C   UNL     1     -10.495  16.940  66.685  1.00  0.00    -0.257 C  
BRANCH   5   6
HETATM    6  C   UNL     1     -10.368  15.637  65.902  1.00  0.00    -0.368 C  
BRANCH   6   7
HETATM    7  C   UNL     1     -11.448  14.649  66.325  1.00  0.00    -0.351 C  
BRANCH   7   8
HETATM    8  C   UNL     1     -11.596  14.631  67.840  1.00  0.00    -0.373 C  
BRANCH   8   9
HETATM    9  C   UNL     1     -11.507  13.207  68.372  1.00  0.00    -0.350 C  
BRANCH   9  10
HETATM   10  C   UNL     1     -11.238  12.229  67.237  1.00  0.00    -0.358 C  
BRANCH  10  11
HETATM   11  C   UNL     1     -11.367  10.793  67.727  1.00  0.00    -0.354 C  
BRANCH  11  12
HETATM   12  C   UNL     1     -10.133   9.987  67.348  1.00  0.00    -0.256 C  
BRANCH  12  13
HETATM   13  C   UNL     1      -9.672  10.347  65.944  1.00  0.00    -0.272 C  
BRANCH  13  14
HETATM   14  C   UNL     1      -9.345   9.090  65.149  1.00  0.00    -0.099 C  
BRANCH  14  15
HETATM   15  C   UNL     1      -8.799   8.006  66.066  1.00  0.00    -0.196 C  
BRANCH  15  16
HETATM   16  C   UNL     1      -7.296   7.849  65.875  1.00  0.00    -0.076 C  
BRANCH  16  17
HETATM   17  C   UNL     1      -6.574   7.899  67.217  1.00  0.00    -0.060 C  
BRANCH  17  18
HETATM   18  C   UNL     1      -7.449   7.314  68.319  1.00  0.00    -0.102 C  
BRANCH  18  19
HETATM   19  C   UNL     1      -7.279   8.094  69.618  1.00  0.00    -0.065 C  
BRANCH  19  20
HETATM   20  C   UNL     1      -6.500   9.383  69.376  1.00  0.00    -0.044 C  
BRANCH  20  21
HETATM   21  C   UNL     1      -7.347  10.605  69.710  1.00  0.00    -0.115 C  
BRANCH  21  22
HETATM   22  C   UNL     1      -7.097  11.737  68.722  1.00  0.00    -0.111 C  
HETATM   23  O   UNL     1      -8.253  12.561  68.633  1.00  0.00    -0.297 OA 
HETATM   24  H   UNL     1      -8.097  13.267  68.017  1.00  0.00     0.000 HD 
ENDBRANCH  21  22
ENDBRANCH  20  21
ENDBRANCH  19  20
ENDBRANCH  18  19
ENDBRANCH  17  18
ENDBRANCH  16  17
ENDBRANCH  15  16
ENDBRANCH  14  15
ENDBRANCH  13  14
ENDBRANCH  12  13
ENDBRANCH  11  12
ENDBRANCH  10  11
ENDBRANCH   9  10
ENDBRANCH   8   9
ENDBRANCH   7   8
ENDBRANCH   6   7
ENDBRANCH   5   6
ENDBRANCH   4   5
ENDBRANCH   3   4
ENDBRANCH   2   3
TORSDOF 20
ENDMDL
MODEL      436
REMARK 921   NORMALIZED FREE ENERGY PREDICTED BY IDOCK:   -2.12 KCAL/MOL
REMARK 922        TOTAL FREE ENERGY PREDICTED BY IDOCK:   -7.47 KCAL/MOL
REMARK 923 INTER-LIGAND FREE ENERGY PREDICTED BY IDOCK:   -5.01 KCAL/MOL
REMARK 924 INTRA-LIGAND FREE ENERGY PREDICTED BY IDOCK:   -2.46 KCAL/MOL
REMARK 927      BINDING AFFINITY PREDICTED BY RF-SCORE:    0.00 PKD
ROOT
HETATM    1  C   UNL     1     -13.967   9.427  71.373  1.00  0.00    -0.172 C  
HETATM    2  C   UNL     1     -12.634   9.264  72.084  1.00  0.00    -0.443 C  
ENDROOT
BRANCH   2   3
HETATM    3  C   UNL     1     -12.260   7.791  72.219  1.00  0.00    -0.298 C  
BRANCH   3   4
HETATM    4  C   UNL     1     -10.790   7.564  71.877  1.00  0.00    -0.264 C  
BRANCH   4   5
HETATM    5  C   UNL     1     -10.156   8.843  71.340  1.00  0.00    -0.379 C  
BRANCH   5   6
HETATM    6  C   UNL     1      -8.636   8.720  71.299  1.00  0.00    -0.258 C  
BRANCH   6   7
HETATM    7  C   UNL     1      -8.203   7.776  70.184  1.00  0.00    -0.123 C  
BRANCH   7   8
HETATM    8  C   UNL     1      -6.878   7.110  70.531  1.00  0.00    -0.053 C  
BRANCH   8   9
HETATM    9  C   UNL     1      -7.019   5.593  70.512  1.00  0.00    -0.057 C  
BRANCH   9  10
HETATM   10  C   UNL     1      -8.324   5.169  71.171  1.00  0.00    -0.121 C  
BRANCH  10  11
HETATM   11  C   UNL     1      -9.367   4.824  70.117  1.00  0.00    -0.222 C  
BRANCH  11  12
HETATM   12  C   UNL     1      -8.919   3.623  69.297  1.00  0.00    -0.176 C  
BRANCH  12  13
HETATM   13  C   UNL     1      -9.175   3.863  67.817  1.00  0.00    -0.206 C  
BRANCH  13  14
HETATM   14  C   UNL     1      -8.568   5.188  67.376  1.00  0.00    -0.104 C  
BRANCH  14  15
HETATM   15  C   UNL     1      -9.411   5.823  66.281  1.00  0.00    -0.166 C  
BRANCH  15  16
HETATM   16  C   UNL     1     -10.739   6.314  66.844  1.00  0.00    -0.411 C  
BRANCH  16  17
HETATM   17  C   UNL     1     -10.522   7.504  67.772  1.00  0.00    -0.288 C  
BRANCH  17  18
HETATM   18  C   UNL     1     -10.610   8.813  66.998  1.00  0.00    -0.283 C  
BRANCH  18  19
HETATM   19  C   UNL     1      -9.447   8.945  66.021  1.00  0.00    -0.320 C  
BRANCH  19  20
HETATM   20  C   UNL     1      -8.185   9.404  66.743  1.00  0.00    -0.112 C  
BRANCH  20  21
HETATM   21  C   UNL     1      -8.400  10.756  67.413  1.00  0.00    -0.119 C  
BRANCH  21  22
HETATM   22  C   UNL     1      -7.334  11.026  68.467  1.00  0.00    -0.101 C  
HETATM   23  O   UNL     1      -7.691  12.172  69.229  1.00  0.00    -0.333 OA 
HETATM   24  H   UNL     1      -7.026  12.340  69.886  1.00  0.00     0.000 HD 
ENDBRANCH  21  22
ENDBRANCH  20  21
ENDBRANCH  19  20
ENDBRANCH  18  19
ENDBRANCH  17  18
ENDBRANCH  16  17
ENDBRANCH  15  16
ENDBRANCH  14  15
ENDBRANCH  13  14
ENDBRANCH  12  13
ENDBRANCH  11  12
ENDBRANCH  10  11
ENDBRANCH   9  10
ENDBRANCH   8   9
ENDBRANCH   7   8
ENDBRANCH   6   7
ENDBRANCH   5   6
ENDBRANCH   4   5
ENDBRANCH   3   4
ENDBRANCH   2   3
TORSDOF 20
ENDMDL
MODEL      437
REMARK 921   NORMALIZED FREE ENERGY PREDICTED BY IDOCK:   -2.10 KCAL/MOL
REMARK 922        TOTAL FREE ENERGY PREDICTED BY IDOCK:   -7.43 KCAL/MOL
REMARK 923 INTER-LIGAND FREE ENERGY PREDICTED BY IDOCK:   -5.41 KCAL/MOL
REMARK 924 INTRA-LIGAND FREE ENERGY PREDICTED BY IDOCK:   -2.02 KCAL/MOL
REMARK 927      BINDING AFFINITY PREDICTED BY RF-SCORE:    0.00 PKD
ROOT
HETATM    1  C   UNL     1      -6.903   7.187  67.238  1.00  0.00    -0.073 C  
HETATM    2  C   UNL     1      -6.054   6.205  68.026  1.00  0.00    -0.024 C  
ENDROOT
BRANCH   2   3
HETATM    3  C   UNL     1      -5.647   5.015  67.163  1.00  0.00    -0.013 C  
BRANCH   3   4
HETATM    4  C   UNL     1      -6.044   3.696  67.821  1.00  0.00    -0.032 C  
BRANCH   4   5
HETATM    5  C   UNL     1      -7.124   2.990  67.006  1.00  0.00    -0.057 C  
BRANCH   5   6
HETATM    6  C   UNL     1      -7.216   3.577  65.602  1.00  0.00    -0.071 C  
BRANCH   6   7
HETATM    7  C   UNL     1      -8.654   3.955  65.270  1.00  0.00    -0.114 C  
BRANCH   7   8
HETATM    8  C   UNL     1      -9.545   3.805  66.496  1.00  0.00    -0.189 C  
BRANCH   8   9
HETATM    9  C   UNL     1     -10.418   5.039  66.679  1.00  0.00    -0.301 C  
BRANCH   9  10
HETATM   10  C   UNL     1     -10.378   5.513  68.125  1.00  0.00    -0.236 C  
BRANCH  10  11
HETATM   11  C   UNL     1     -10.610   7.015  68.202  1.00  0.00    -0.250 C  
BRANCH  11  12
HETATM   12  C   UNL     1     -10.513   7.497  69.643  1.00  0.00    -0.235 C  
BRANCH  12  13
HETATM   13  C   UNL     1      -9.582   8.696  69.741  1.00  0.00    -0.171 C  
BRANCH  13  14
HETATM   14  C   UNL     1     -10.320   9.901  70.308  1.00  0.00    -0.339 C  
BRANCH  14  15
HETATM   15  C   UNL     1     -11.543  10.225  69.464  1.00  0.00    -0.234 C  
BRANCH  15  16
HETATM   16  C   UNL     1     -11.127  10.673  68.069  1.00  0.00    -0.361 C  
BRANCH  16  17
HETATM   17  C   UNL     1     -11.130  12.194  67.969  1.00  0.00    -0.292 C  
BRANCH  17  18
HETATM   18  C   UNL     1     -12.019  12.655  66.819  1.00  0.00    -0.362 C  
BRANCH  18  19
HETATM   19  C   UNL     1     -11.496  12.132  65.486  1.00  0.00    -0.394 C  
BRANCH  19  20
HETATM   20  C   UNL     1     -11.656  13.183  64.393  1.00  0.00    -0.422 C  
BRANCH  20  21
HETATM   21  C   UNL     1     -12.076  14.524  64.983  1.00  0.00    -0.390 C  
BRANCH  21  22
HETATM   22  C   UNL     1     -10.961  15.555  64.860  1.00  0.00    -0.436 C  
HETATM   23  O   UNL     1      -9.705  14.937  65.103  1.00  0.00    -0.415 OA 
HETATM   24  H   UNL     1      -9.009  15.580  65.026  1.00  0.00     0.000 HD 
ENDBRANCH  21  22
ENDBRANCH  20  21
ENDBRANCH  19  20
ENDBRANCH  18  19
ENDBRANCH  17  18
ENDBRANCH  16  17
ENDBRANCH  15  16
ENDBRANCH  14  15
ENDBRANCH  13  14
ENDBRANCH  12  13
ENDBRANCH  11  12
ENDBRANCH  10  11
ENDBRANCH   9  10
ENDBRANCH   8   9
ENDBRANCH   7   8
ENDBRANCH   6   7
ENDBRANCH   5   6
ENDBRANCH   4   5
ENDBRANCH   3   4
ENDBRANCH   2   3
TORSDOF 20
ENDMDL
MODEL      438
REMARK 921   NORMALIZED FREE ENERGY PREDICTED BY IDOCK:   -2.09 KCAL/MOL
REMARK 922        TOTAL FREE ENERGY PREDICTED BY IDOCK:   -7.41 KCAL/MOL
REMARK 923 INTER-LIGAND FREE ENERGY PREDICTED BY IDOCK:   -6.15 KCAL/MOL
REMARK 924 INTRA-LIGAND FREE ENERGY PREDICTED BY IDOCK:   -1.26 KCAL/MOL
REMARK 927      BINDING AFFINITY PREDICTED BY RF-SCORE:    0.00 PKD
ROOT
HETATM    1  C   UNL     1     -10.469  20.111  66.346  1.00  0.00    -0.443 C  
HETATM    2  C   UNL     1      -9.734  18.824  66.012  1.00  0.00    -0.161 C  
ENDROOT
BRANCH   2   3
HETATM    3  C   UNL     1     -10.687  17.632  66.008  1.00  0.00    -0.117 C  
BRANCH   3   4
HETATM    4  C   UNL     1     -10.490  16.765  67.248  1.00  0.00    -0.310 C  
BRANCH   4   5
HETATM    5  C   UNL     1      -9.020  16.731  67.655  1.00  0.00    -0.210 C  
BRANCH   5   6
HETATM    6  C   UNL     1      -8.391  15.386  67.305  1.00  0.00    -0.224 C  
BRANCH   6   7
HETATM    7  C   UNL     1      -9.226  14.657  66.260  1.00  0.00    -0.257 C  
BRANCH   7   8
HETATM    8  C   UNL     1      -9.418  13.197  66.649  1.00  0.00    -0.260 C  
BRANCH   8   9
HETATM    9  C   UNL     1      -9.473  13.049  68.164  1.00  0.00    -0.218 C  
BRANCH   9  10
HETATM   10  C   UNL     1     -10.904  13.190  68.663  1.00  0.00    -0.287 C  
BRANCH  10  11
HETATM   11  C   UNL     1     -11.780  12.084  68.092  1.00  0.00    -0.398 C  
BRANCH  11  12
HETATM   12  C   UNL     1     -11.949  10.960  69.105  1.00  0.00    -0.359 C  
BRANCH  12  13
HETATM   13  C   UNL     1     -12.277  11.526  70.478  1.00  0.00    -0.469 C  
BRANCH  13  14
HETATM   14  C   UNL     1     -12.597  10.405  71.457  1.00  0.00    -0.544 C  
BRANCH  14  15
HETATM   15  C   UNL     1     -11.494   9.357  71.449  1.00  0.00    -0.449 C  
BRANCH  15  16
HETATM   16  C   UNL     1     -12.088   7.954  71.475  1.00  0.00    -0.336 C  
BRANCH  16  17
HETATM   17  C   UNL     1     -11.573   7.175  72.679  1.00  0.00    -0.228 C  
BRANCH  17  18
HETATM   18  C   UNL     1     -10.198   6.585  72.390  1.00  0.00    -0.204 C  
BRANCH  18  19
HETATM   19  C   UNL     1      -9.590   5.982  73.652  1.00  0.00    -0.149 C  
BRANCH  19  20
HETATM   20  C   UNL     1      -8.651   4.833  73.303  1.00  0.00    -0.102 C  
BRANCH  20  21
HETATM   21  C   UNL     1      -9.414   3.519  73.186  1.00  0.00    -0.135 C  
BRANCH  21  22
HETATM   22  C   UNL     1      -9.649   3.144  71.729  1.00  0.00    -0.157 C  
HETATM   23  O   UNL     1      -9.803   1.735  71.614  1.00  0.00    -0.135 OA 
HETATM   24  H   UNL     1      -9.949   1.501  70.705  1.00  0.00     0.000 HD 
ENDBRANCH  21  22
ENDBRANCH  20  21
ENDBRANCH  19  20
ENDBRANCH  18  19
ENDBRANCH  17  18
ENDBRANCH  16  17
ENDBRANCH  15  16
ENDBRANCH  14  15
ENDBRANCH  13  14
ENDBRANCH  12  13
ENDBRANCH  11  12
ENDBRANCH  10  11
ENDBRANCH   9  10
ENDBRANCH   8   9
ENDBRANCH   7   8
ENDBRANCH   6   7
ENDBRANCH   5   6
ENDBRANCH   4   5
ENDBRANCH   3   4
ENDBRANCH   2   3
TORSDOF 20
ENDMDL
MODEL      439
REMARK 921   NORMALIZED FREE ENERGY PREDICTED BY IDOCK:   -2.09 KCAL/MOL
REMARK 922        TOTAL FREE ENERGY PREDICTED BY IDOCK:   -7.41 KCAL/MOL
REMARK 923 INTER-LIGAND FREE ENERGY PREDICTED BY IDOCK:   -5.11 KCAL/MOL
REMARK 924 INTRA-LIGAND FREE ENERGY PREDICTED BY IDOCK:   -2.30 KCAL/MOL
REMARK 927      BINDING AFFINITY PREDICTED BY RF-SCORE:    0.00 PKD
ROOT
HETATM    1  C   UNL     1     -11.771  15.201  71.054  1.00  0.00    -0.385 C  
HETATM    2  C   UNL     1     -12.111  13.996  70.194  1.00  0.00    -0.419 C  
ENDROOT
BRANCH   2   3
HETATM    3  C   UNL     1     -13.214  13.158  70.833  1.00  0.00     0.074 C  
BRANCH   3   4
HETATM    4  C   UNL     1     -12.634  12.134  71.804  1.00  0.00    -0.133 C  
BRANCH   4   5
HETATM    5  C   UNL     1     -13.073  10.722  71.427  1.00  0.00    -0.469 C  
BRANCH   5   6
HETATM    6  C   UNL     1     -12.328  10.235  70.188  1.00  0.00    -0.213 C  
BRANCH   6   7
HETATM    7  C   UNL     1     -10.826  10.200  70.443  1.00  0.00    -0.365 C  
BRANCH   7   8
HETATM    8  C   UNL     1     -10.121  11.290  69.646  1.00  0.00     0.359 C  
BRANCH   8   9
HETATM    9  C   UNL     1     -10.861  11.565  68.343  1.00  0.00    -0.250 C  
BRANCH   9  10
HETATM   10  C   UNL     1      -9.977  11.237  67.147  1.00  0.00    -0.219 C  
BRANCH  10  11
HETATM   11  C   UNL     1     -10.822  11.045  65.896  1.00  0.00    -0.183 C  
BRANCH  11  12
HETATM   12  C   UNL     1     -10.330  11.950  64.776  1.00  0.00    -0.323 C  
BRANCH  12  13
HETATM   13  C   UNL     1     -11.358  13.028  64.472  1.00  0.00    -0.377 C  
BRANCH  13  14
HETATM   14  C   UNL     1     -11.232  14.183  65.457  1.00  0.00    -0.317 C  
BRANCH  14  15
HETATM   15  C   UNL     1     -10.152  15.154  65.005  1.00  0.00    -0.269 C  
BRANCH  15  16
HETATM   16  C   UNL     1     -10.672  16.585  65.036  1.00  0.00    -0.228 C  
BRANCH  16  17
HETATM   17  C   UNL     1     -10.042  17.363  66.185  1.00  0.00    -0.309 C  
BRANCH  17  18
HETATM   18  C   UNL     1     -10.706  16.998  67.508  1.00  0.00    -0.266 C  
BRANCH  18  19
HETATM   19  C   UNL     1      -9.664  16.816  68.606  1.00  0.00    -0.259 C  
BRANCH  19  20
HETATM   20  C   UNL     1      -9.275  15.348  68.744  1.00  0.00    -0.206 C  
BRANCH  20  21
HETATM   21  C   UNL     1      -7.815  15.131  68.362  1.00  0.00    -0.127 C  
BRANCH  21  22
HETATM   22  C   UNL     1      -7.328  13.756  68.799  1.00  0.00    -0.103 C  
HETATM   23  O   UNL     1      -7.035  12.964  67.655  1.00  0.00    -0.122 OA 
HETATM   24  H   UNL     1      -6.731  12.106  67.928  1.00  0.00     0.000 HD 
ENDBRANCH  21  22
ENDBRANCH  20  21
ENDBRANCH  19  20
ENDBRANCH  18  19
ENDBRANCH  17  18
ENDBRANCH  16  17
ENDBRANCH  15  16
ENDBRANCH  14  15
ENDBRANCH  13  14
ENDBRANCH  12  13
ENDBRANCH  11  12
ENDBRANCH  10  11
ENDBRANCH   9  10
ENDBRANCH   8   9
ENDBRANCH   7   8
ENDBRANCH   6   7
ENDBRANCH   5   6
ENDBRANCH   4   5
ENDBRANCH   3   4
ENDBRANCH   2   3
TORSDOF 20
ENDMDL
MODEL      440
REMARK 921   NORMALIZED FREE ENERGY PREDICTED BY IDOCK:   -2.08 KCAL/MOL
REMARK 922        TOTAL FREE ENERGY PREDICTED BY IDOCK:   -7.39 KCAL/MOL
REMARK 923 INTER-LIGAND FREE ENERGY PREDICTED BY IDOCK:   -4.35 KCAL/MOL
REMARK 924 INTRA-LIGAND FREE ENERGY PREDICTED BY IDOCK:   -3.04 KCAL/MOL
REMARK 927      BINDING AFFINITY PREDICTED BY RF-SCORE:    0.00 PKD
ROOT
HETATM    1  C   UNL     1      -6.392   8.376  73.460  1.00  0.00    -0.130 C  
HETATM    2  C   UNL     1      -7.124   7.071  73.194  1.00  0.00    -0.073 C  
ENDROOT
BRANCH   2   3
HETATM    3  C   UNL     1      -6.174   5.880  73.279  1.00  0.00    -0.058 C  
BRANCH   3   4
HETATM    4  C   UNL     1      -5.760   5.407  71.888  1.00  0.00    -0.017 C  
BRANCH   4   5
HETATM    5  C   UNL     1      -6.929   4.733  71.177  1.00  0.00    -0.047 C  
BRANCH   5   6
HETATM    6  C   UNL     1      -6.725   3.223  71.109  1.00  0.00    -0.031 C  
BRANCH   6   7
HETATM    7  C   UNL     1      -8.063   2.504  70.979  1.00  0.00    -0.058 C  
BRANCH   7   8
HETATM    8  C   UNL     1      -9.084   3.394  70.282  1.00  0.00    -0.201 C  
BRANCH   8   9
HETATM    9  C   UNL     1      -9.044   3.179  68.775  1.00  0.00    -0.209 C  
BRANCH   9  10
HETATM   10  C   UNL     1      -9.594   4.396  68.046  1.00  0.00    -0.204 C  
BRANCH  10  11
HETATM   11  C   UNL     1      -9.738   5.572  69.002  1.00  0.00    -0.195 C  
BRANCH  11  12
HETATM   12  C   UNL     1     -11.159   6.116  68.967  1.00  0.00    -0.437 C  
BRANCH  12  13
HETATM   13  C   UNL     1     -11.648   6.418  70.375  1.00  0.00    -0.440 C  
BRANCH  13  14
HETATM   14  C   UNL     1     -10.471   6.594  71.325  1.00  0.00    -0.244 C  
BRANCH  14  15
HETATM   15  C   UNL     1     -10.534   7.953  72.007  1.00  0.00    -0.289 C  
BRANCH  15  16
HETATM   16  C   UNL     1      -9.569   8.929  71.347  1.00  0.00    -0.359 C  
BRANCH  16  17
HETATM   17  C   UNL     1     -10.287   9.766  70.294  1.00  0.00    -0.348 C  
BRANCH  17  18
HETATM   18  C   UNL     1      -9.654   9.562  68.923  1.00  0.00    -0.156 C  
BRANCH  18  19
HETATM   19  C   UNL     1     -10.698   9.112  67.906  1.00  0.00    -0.224 C  
BRANCH  19  20
HETATM   20  C   UNL     1     -10.028   8.608  66.632  1.00  0.00    -0.357 C  
BRANCH  20  21
HETATM   21  C   UNL     1      -8.516   8.522  66.807  1.00  0.00    -0.111 C  
BRANCH  21  22
HETATM   22  C   UNL     1      -7.915   7.453  65.904  1.00  0.00    -0.118 C  
HETATM   23  O   UNL     1      -6.498   7.559  65.909  1.00  0.00    -0.044 OA 
HETATM   24  H   UNL     1      -6.123   6.893  65.345  1.00  0.00     0.000 HD 
ENDBRANCH  21  22
ENDBRANCH  20  21
ENDBRANCH  19  20
ENDBRANCH  18  19
ENDBRANCH  17  18
ENDBRANCH  16  17
ENDBRANCH  15  16
ENDBRANCH  14  15
ENDBRANCH  13  14
ENDBRANCH  12  13
ENDBRANCH  11  12
ENDBRANCH  10  11
ENDBRANCH   9  10
ENDBRANCH   8   9
ENDBRANCH   7   8
ENDBRANCH   6   7
ENDBRANCH   5   6
ENDBRANCH   4   5
ENDBRANCH   3   4
ENDBRANCH   2   3
TORSDOF 20
ENDMDL
MODEL      441
REMARK 921   NORMALIZED FREE ENERGY PREDICTED BY IDOCK:   -2.08 KCAL/MOL
REMARK 922        TOTAL FREE ENERGY PREDICTED BY IDOCK:   -7.38 KCAL/MOL
REMARK 923 INTER-LIGAND FREE ENERGY PREDICTED BY IDOCK:   -5.66 KCAL/MOL
REMARK 924 INTRA-LIGAND FREE ENERGY PREDICTED BY IDOCK:   -1.72 KCAL/MOL
REMARK 927      BINDING AFFINITY PREDICTED BY RF-SCORE:    0.00 PKD
ROOT
HETATM    1  C   UNL     1      -6.031  19.888  64.069  1.00  0.00    -0.291 C  
HETATM    2  C   UNL     1      -5.820  19.986  65.570  1.00  0.00    -0.207 C  
ENDROOT
BRANCH   2   3
HETATM    3  C   UNL     1      -6.651  18.943  66.312  1.00  0.00    -0.234 C  
BRANCH   3   4
HETATM    4  C   UNL     1      -8.080  18.898  65.779  1.00  0.00     0.139 C  
BRANCH   4   5
HETATM    5  C   UNL     1      -8.883  17.805  66.478  1.00  0.00    -0.283 C  
BRANCH   5   6
HETATM    6  C   UNL     1     -10.226  18.342  66.961  1.00  0.00    -0.392 C  
BRANCH   6   7
HETATM    7  C   UNL     1     -10.710  17.564  68.178  1.00  0.00    -0.330 C  
BRANCH   7   8
HETATM    8  C   UNL     1     -10.800  16.076  67.863  1.00  0.00    -0.333 C  
BRANCH   8   9
HETATM    9  C   UNL     1     -11.818  15.396  68.769  1.00  0.00    -0.339 C  
BRANCH   9  10
HETATM   10  C   UNL     1     -11.862  16.077  70.129  1.00  0.00    -0.253 C  
BRANCH  10  11
HETATM   11  C   UNL     1     -12.771  15.312  71.080  1.00  0.00    -0.476 C  
BRANCH  11  12
HETATM   12  C   UNL     1     -12.117  14.006  71.509  1.00  0.00    -0.179 C  
BRANCH  12  13
HETATM   13  C   UNL     1     -13.166  12.921  71.698  1.00  0.00    -0.416 C  
BRANCH  13  14
HETATM   14  C   UNL     1     -12.630  11.572  71.236  1.00  0.00    -0.452 C  
BRANCH  14  15
HETATM   15  C   UNL     1     -12.374  11.584  69.736  1.00  0.00    -0.220 C  
BRANCH  15  16
HETATM   16  C   UNL     1     -10.983  11.047  69.426  1.00  0.00    -0.301 C  
BRANCH  16  17
HETATM   17  C   UNL     1     -10.461  11.629  68.118  1.00  0.00    -0.217 C  
BRANCH  17  18
HETATM   18  C   UNL     1      -9.726  10.565  67.312  1.00  0.00    -0.197 C  
BRANCH  18  19
HETATM   19  C   UNL     1      -8.353  11.066  66.877  1.00  0.00    -0.138 C  
BRANCH  19  20
HETATM   20  C   UNL     1      -8.251  12.578  67.049  1.00  0.00    -0.125 C  
BRANCH  20  21
HETATM   21  C   UNL     1      -6.890  12.974  67.607  1.00  0.00    -0.155 C  
BRANCH  21  22
HETATM   22  C   UNL     1      -6.732  14.488  67.657  1.00  0.00    -0.173 C  
HETATM   23  O   UNL     1      -5.703  14.834  68.575  1.00  0.00    -0.088 OA 
HETATM   24  H   UNL     1      -5.605  15.779  68.607  1.00  0.00     0.000 HD 
ENDBRANCH  21  22
ENDBRANCH  20  21
ENDBRANCH  19  20
ENDBRANCH  18  19
ENDBRANCH  17  18
ENDBRANCH  16  17
ENDBRANCH  15  16
ENDBRANCH  14  15
ENDBRANCH  13  14
ENDBRANCH  12  13
ENDBRANCH  11  12
ENDBRANCH  10  11
ENDBRANCH   9  10
ENDBRANCH   8   9
ENDBRANCH   7   8
ENDBRANCH   6   7
ENDBRANCH   5   6
ENDBRANCH   4   5
ENDBRANCH   3   4
ENDBRANCH   2   3
TORSDOF 20
ENDMDL
MODEL      442
REMARK 921   NORMALIZED FREE ENERGY PREDICTED BY IDOCK:   -2.07 KCAL/MOL
REMARK 922        TOTAL FREE ENERGY PREDICTED BY IDOCK:   -7.37 KCAL/MOL
REMARK 923 INTER-LIGAND FREE ENERGY PREDICTED BY IDOCK:   -5.17 KCAL/MOL
REMARK 924 INTRA-LIGAND FREE ENERGY PREDICTED BY IDOCK:   -2.19 KCAL/MOL
REMARK 927      BINDING AFFINITY PREDICTED BY RF-SCORE:    0.00 PKD
ROOT
HETATM    1  C   UNL     1     -11.071  15.993  64.775  1.00  0.00    -0.378 C  
HETATM    2  C   UNL     1     -12.108  15.077  64.148  1.00  0.00    -0.244 C  
ENDROOT
BRANCH   2   3
HETATM    3  C   UNL     1     -12.088  13.697  64.800  1.00  0.00    -0.435 C  
BRANCH   3   4
HETATM    4  C   UNL     1     -10.664  13.159  64.905  1.00  0.00    -0.362 C  
BRANCH   4   5
HETATM    5  C   UNL     1     -10.332  12.790  66.348  1.00  0.00    -0.271 C  
BRANCH   5   6
HETATM    6  C   UNL     1     -11.596  12.430  67.121  1.00  0.00    -0.435 C  
BRANCH   6   7
HETATM    7  C   UNL     1     -11.673  13.218  68.423  1.00  0.00    -0.389 C  
BRANCH   7   8
HETATM    8  C   UNL     1     -11.155  14.636  68.223  1.00  0.00    -0.283 C  
BRANCH   8   9
HETATM    9  C   UNL     1     -11.063  15.366  69.556  1.00  0.00    -0.284 C  
BRANCH   9  10
HETATM   10  C   UNL     1     -10.542  16.782  69.355  1.00  0.00    -0.318 C  
BRANCH  10  11
HETATM   11  C   UNL     1     -10.260  17.044  67.882  1.00  0.00    -0.317 C  
BRANCH  11  12
HETATM   12  C   UNL     1      -8.826  17.515  67.690  1.00  0.00    -0.228 C  
BRANCH  12  13
HETATM   13  C   UNL     1      -7.997  17.219  68.930  1.00  0.00    -0.196 C  
BRANCH  13  14
HETATM   14  C   UNL     1      -7.002  16.099  68.656  1.00  0.00    -0.141 C  
BRANCH  14  15
HETATM   15  C   UNL     1      -7.562  14.763  69.120  1.00  0.00    -0.151 C  
BRANCH  15  16
HETATM   16  C   UNL     1      -6.675  13.618  68.648  1.00  0.00    -0.100 C  
BRANCH  16  17
HETATM   17  C   UNL     1      -7.522  12.455  68.143  1.00  0.00    -0.118 C  
BRANCH  17  18
HETATM   18  C   UNL     1      -6.802  11.130  68.364  1.00  0.00    -0.066 C  
BRANCH  18  19
HETATM   19  C   UNL     1      -7.748  10.091  68.956  1.00  0.00    -0.094 C  
BRANCH  19  20
HETATM   20  C   UNL     1      -7.155   8.691  68.836  1.00  0.00    -0.066 C  
BRANCH  20  21
HETATM   21  C   UNL     1      -8.223   7.625  69.049  1.00  0.00    -0.127 C  
BRANCH  21  22
HETATM   22  C   UNL     1      -7.816   6.645  70.142  1.00  0.00    -0.107 C  
HETATM   23  O   UNL     1      -7.302   5.456  69.556  1.00  0.00    -0.062 OA 
HETATM   24  H   UNL     1      -7.049   4.845  70.237  1.00  0.00     0.000 HD 
ENDBRANCH  21  22
ENDBRANCH  20  21
ENDBRANCH  19  20
ENDBRANCH  18  19
ENDBRANCH  17  18
ENDBRANCH  16  17
ENDBRANCH  15  16
ENDBRANCH  14  15
ENDBRANCH  13  14
ENDBRANCH  12  13
ENDBRANCH  11  12
ENDBRANCH  10  11
ENDBRANCH   9  10
ENDBRANCH   8   9
ENDBRANCH   7   8
ENDBRANCH   6   7
ENDBRANCH   5   6
ENDBRANCH   4   5
ENDBRANCH   3   4
ENDBRANCH   2   3
TORSDOF 20
ENDMDL
MODEL      443
REMARK 921   NORMALIZED FREE ENERGY PREDICTED BY IDOCK:   -2.07 KCAL/MOL
REMARK 922        TOTAL FREE ENERGY PREDICTED BY IDOCK:   -7.35 KCAL/MOL
REMARK 923 INTER-LIGAND FREE ENERGY PREDICTED BY IDOCK:   -5.04 KCAL/MOL
REMARK 924 INTRA-LIGAND FREE ENERGY PREDICTED BY IDOCK:   -2.31 KCAL/MOL
REMARK 927      BINDING AFFINITY PREDICTED BY RF-SCORE:    0.00 PKD
ROOT
HETATM    1  C   UNL     1     -13.108  11.107  70.151  1.00  0.00     0.217 C  
HETATM    2  C   UNL     1     -13.610  10.320  71.350  1.00  0.00    -0.176 C  
ENDROOT
BRANCH   2   3
HETATM    3  C   UNL     1     -12.468   9.581  72.039  1.00  0.00    -0.427 C  
BRANCH   3   4
HETATM    4  C   UNL     1     -11.266   9.434  71.110  1.00  0.00    -0.427 C  
BRANCH   4   5
HETATM    5  C   UNL     1     -10.703   8.018  71.174  1.00  0.00    -0.250 C  
BRANCH   5   6
HETATM    6  C   UNL     1      -9.386   7.922  70.411  1.00  0.00    -0.159 C  
BRANCH   6   7
HETATM    7  C   UNL     1      -9.413   8.815  69.177  1.00  0.00    -0.157 C  
BRANCH   7   8
HETATM    8  C   UNL     1      -9.900   8.036  67.962  1.00  0.00    -0.198 C  
BRANCH   8   9
HETATM    9  C   UNL     1      -9.242   6.664  67.906  1.00  0.00    -0.111 C  
BRANCH   9  10
HETATM   10  C   UNL     1      -9.558   5.973  66.587  1.00  0.00    -0.179 C  
BRANCH  10  11
HETATM   11  C   UNL     1      -8.281   5.713  65.801  1.00  0.00    -0.122 C  
BRANCH  11  12
HETATM   12  C   UNL     1      -7.937   6.912  64.930  1.00  0.00    -0.124 C  
BRANCH  12  13
HETATM   13  C   UNL     1      -6.567   7.460  65.295  1.00  0.00    -0.044 C  
BRANCH  13  14
HETATM   14  C   UNL     1      -6.701   8.733  66.121  1.00  0.00    -0.073 C  
BRANCH  14  15
HETATM   15  C   UNL     1      -6.804   9.950  65.213  1.00  0.00    -0.114 C  
BRANCH  15  16
HETATM   16  C   UNL     1      -7.985  10.823  65.619  1.00  0.00    -0.095 C  
BRANCH  16  17
HETATM   17  C   UNL     1      -9.228  10.454  64.817  1.00  0.00    -0.273 C  
BRANCH  17  18
HETATM   18  C   UNL     1     -10.430  11.265  65.286  1.00  0.00    -0.341 C  
BRANCH  18  19
HETATM   19  C   UNL     1     -11.251  11.752  64.097  1.00  0.00    -0.437 C  
BRANCH  19  20
HETATM   20  C   UNL     1     -11.231  13.275  64.015  1.00  0.00    -0.374 C  
BRANCH  20  21
HETATM   21  C   UNL     1     -11.749  13.899  65.305  1.00  0.00    -0.347 C  
BRANCH  21  22
HETATM   22  C   UNL     1     -10.897  15.090  65.724  1.00  0.00    -0.350 C  
HETATM   23  O   UNL     1      -9.527  14.711  65.764  1.00  0.00    -0.479 OA 
HETATM   24  H   UNL     1      -8.996  15.454  66.026  1.00  0.00     0.000 HD 
ENDBRANCH  21  22
ENDBRANCH  20  21
ENDBRANCH  19  20
ENDBRANCH  18  19
ENDBRANCH  17  18
ENDBRANCH  16  17
ENDBRANCH  15  16
ENDBRANCH  14  15
ENDBRANCH  13  14
ENDBRANCH  12  13
ENDBRANCH  11  12
ENDBRANCH  10  11
ENDBRANCH   9  10
ENDBRANCH   8   9
ENDBRANCH   7   8
ENDBRANCH   6   7
ENDBRANCH   5   6
ENDBRANCH   4   5
ENDBRANCH   3   4
ENDBRANCH   2   3
TORSDOF 20
ENDMDL
MODEL      444
REMARK 921   NORMALIZED FREE ENERGY PREDICTED BY IDOCK:   -2.06 KCAL/MOL
REMARK 922        TOTAL FREE ENERGY PREDICTED BY IDOCK:   -7.35 KCAL/MOL
REMARK 923 INTER-LIGAND FREE ENERGY PREDICTED BY IDOCK:   -6.01 KCAL/MOL
REMARK 924 INTRA-LIGAND FREE ENERGY PREDICTED BY IDOCK:   -1.34 KCAL/MOL
REMARK 927      BINDING AFFINITY PREDICTED BY RF-SCORE:    0.00 PKD
ROOT
HETATM    1  C   UNL     1      -7.667   3.693  64.623  1.00  0.00    -0.081 C  
HETATM    2  C   UNL     1      -8.194   5.045  64.175  1.00  0.00    -0.129 C  
ENDROOT
BRANCH   2   3
HETATM    3  C   UNL     1      -7.875   6.128  65.202  1.00  0.00    -0.108 C  
BRANCH   3   4
HETATM    4  C   UNL     1      -8.556   5.838  66.536  1.00  0.00    -0.121 C  
BRANCH   4   5
HETATM    5  C   UNL     1      -8.431   7.032  67.477  1.00  0.00    -0.122 C  
BRANCH   5   6
HETATM    6  C   UNL     1      -9.258   8.210  66.972  1.00  0.00    -0.187 C  
BRANCH   6   7
HETATM    7  C   UNL     1      -9.246   9.349  67.984  1.00  0.00    -0.137 C  
BRANCH   7   8
HETATM    8  C   UNL     1      -9.928   8.924  69.278  1.00  0.00    -0.192 C  
BRANCH   8   9
HETATM    9  C   UNL     1     -10.608  10.114  69.942  1.00  0.00    -0.331 C  
BRANCH   9  10
HETATM   10  C   UNL     1     -10.380  11.381  69.131  1.00  0.00    -0.122 C  
BRANCH  10  11
HETATM   11  C   UNL     1     -11.701  12.092  68.868  1.00  0.00    -0.381 C  
BRANCH  11  12
HETATM   12  C   UNL     1     -11.727  12.666  67.459  1.00  0.00    -0.429 C  
BRANCH  12  13
HETATM   13  C   UNL     1     -10.770  13.843  67.345  1.00  0.00    -0.275 C  
BRANCH  13  14
HETATM   14  C   UNL     1     -11.229  14.993  68.231  1.00  0.00    -0.309 C  
BRANCH  14  15
HETATM   15  C   UNL     1     -10.391  16.236  67.971  1.00  0.00    -0.279 C  
BRANCH  15  16
HETATM   16  C   UNL     1     -10.442  16.617  66.497  1.00  0.00    -0.262 C  
BRANCH  16  17
HETATM   17  C   UNL     1     -10.310  18.126  66.327  1.00  0.00    -0.407 C  
BRANCH  17  18
HETATM   18  C   UNL     1     -10.573  18.841  67.647  1.00  0.00    -0.481 C  
BRANCH  18  19
HETATM   19  C   UNL     1      -9.494  19.882  67.924  1.00  0.00    -0.469 C  
BRANCH  19  20
HETATM   20  C   UNL     1      -8.329  19.723  66.953  1.00  0.00    -0.348 C  
BRANCH  20  21
HETATM   21  C   UNL     1      -7.101  20.481  67.444  1.00  0.00    -0.369 C  
BRANCH  21  22
HETATM   22  C   UNL     1      -6.412  19.739  68.582  1.00  0.00    -0.285 C  
HETATM   23  O   UNL     1      -5.550  18.740  68.052  1.00  0.00    -0.184 OA 
HETATM   24  H   UNL     1      -5.120  18.277  68.761  1.00  0.00     0.000 HD 
ENDBRANCH  21  22
ENDBRANCH  20  21
ENDBRANCH  19  20
ENDBRANCH  18  19
ENDBRANCH  17  18
ENDBRANCH  16  17
ENDBRANCH  15  16
ENDBRANCH  14  15
ENDBRANCH  13  14
ENDBRANCH  12  13
ENDBRANCH  11  12
ENDBRANCH  10  11
ENDBRANCH   9  10
ENDBRANCH   8   9
ENDBRANCH   7   8
ENDBRANCH   6   7
ENDBRANCH   5   6
ENDBRANCH   4   5
ENDBRANCH   3   4
ENDBRANCH   2   3
TORSDOF 20
ENDMDL
MODEL      445
REMARK 921   NORMALIZED FREE ENERGY PREDICTED BY IDOCK:   -2.06 KCAL/MOL
REMARK 922        TOTAL FREE ENERGY PREDICTED BY IDOCK:   -7.34 KCAL/MOL
REMARK 923 INTER-LIGAND FREE ENERGY PREDICTED BY IDOCK:   -5.89 KCAL/MOL
REMARK 924 INTRA-LIGAND FREE ENERGY PREDICTED BY IDOCK:   -1.44 KCAL/MOL
REMARK 927      BINDING AFFINITY PREDICTED BY RF-SCORE:    0.00 PKD
ROOT
HETATM    1  C   UNL     1      -6.757  20.571  64.746  1.00  0.00    -0.241 C  
HETATM    2  C   UNL     1      -5.854  19.902  65.768  1.00  0.00    -0.197 C  
ENDROOT
BRANCH   2   3
HETATM    3  C   UNL     1      -6.652  18.982  66.688  1.00  0.00    -0.205 C  
BRANCH   3   4
HETATM    4  C   UNL     1      -7.994  19.606  67.061  1.00  0.00    -0.311 C  
BRANCH   4   5
HETATM    5  C   UNL     1      -9.104  18.561  67.027  1.00  0.00    -0.281 C  
BRANCH   5   6
HETATM    6  C   UNL     1      -9.604  18.253  68.435  1.00  0.00    -0.350 C  
BRANCH   6   7
HETATM    7  C   UNL     1     -10.211  16.857  68.497  1.00  0.00    -0.310 C  
BRANCH   7   8
HETATM    8  C   UNL     1     -10.621  16.388  67.107  1.00  0.00    -0.276 C  
BRANCH   8   9
HETATM    9  C   UNL     1     -11.336  15.046  67.183  1.00  0.00    -0.323 C  
BRANCH   9  10
HETATM   10  C   UNL     1     -11.609  14.667  68.632  1.00  0.00    -0.343 C  
BRANCH  10  11
HETATM   11  C   UNL     1     -11.972  13.192  68.739  1.00  0.00    -0.316 C  
BRANCH  11  12
HETATM   12  C   UNL     1     -10.849  12.325  68.187  1.00  0.00    -0.258 C  
BRANCH  12  13
HETATM   13  C   UNL     1     -11.396  10.995  67.695  1.00  0.00    -0.355 C  
BRANCH  13  14
HETATM   14  C   UNL     1     -10.737   9.838  68.435  1.00  0.00    -0.262 C  
BRANCH  14  15
HETATM   15  C   UNL     1      -9.247   9.789  68.132  1.00  0.00    -0.132 C  
BRANCH  15  16
HETATM   16  C   UNL     1      -8.435   9.970  69.408  1.00  0.00    -0.176 C  
BRANCH  16  17
HETATM   17  C   UNL     1      -9.172   9.377  70.603  1.00  0.00    -0.303 C  
BRANCH  17  18
HETATM   18  C   UNL     1      -8.656   7.977  70.913  1.00  0.00    -0.136 C  
BRANCH  18  19
HETATM   19  C   UNL     1      -9.797   6.966  70.910  1.00  0.00    -0.193 C  
BRANCH  19  20
HETATM   20  C   UNL     1     -10.823   7.308  71.985  1.00  0.00    -0.264 C  
BRANCH  20  21
HETATM   21  C   UNL     1     -11.254   6.059  72.746  1.00  0.00    -0.299 C  
BRANCH  21  22
HETATM   22  C   UNL     1     -10.199   4.965  72.657  1.00  0.00    -0.188 C  
HETATM   23  O   UNL     1     -10.771   3.714  73.013  1.00  0.00    -0.174 OA 
HETATM   24  H   UNL     1     -10.113   3.031  72.957  1.00  0.00     0.000 HD 
ENDBRANCH  21  22
ENDBRANCH  20  21
ENDBRANCH  19  20
ENDBRANCH  18  19
ENDBRANCH  17  18
ENDBRANCH  16  17
ENDBRANCH  15  16
ENDBRANCH  14  15
ENDBRANCH  13  14
ENDBRANCH  12  13
ENDBRANCH  11  12
ENDBRANCH  10  11
ENDBRANCH   9  10
ENDBRANCH   8   9
ENDBRANCH   7   8
ENDBRANCH   6   7
ENDBRANCH   5   6
ENDBRANCH   4   5
ENDBRANCH   3   4
ENDBRANCH   2   3
TORSDOF 20
ENDMDL
MODEL      446
REMARK 921   NORMALIZED FREE ENERGY PREDICTED BY IDOCK:   -2.05 KCAL/MOL
REMARK 922        TOTAL FREE ENERGY PREDICTED BY IDOCK:   -7.32 KCAL/MOL
REMARK 923 INTER-LIGAND FREE ENERGY PREDICTED BY IDOCK:   -5.72 KCAL/MOL
REMARK 924 INTRA-LIGAND FREE ENERGY PREDICTED BY IDOCK:   -1.60 KCAL/MOL
REMARK 927      BINDING AFFINITY PREDICTED BY RF-SCORE:    0.00 PKD
ROOT
HETATM    1  C   UNL     1     -10.184  16.937  67.017  1.00  0.00    -0.297 C  
HETATM    2  C   UNL     1     -11.081  16.776  68.233  1.00  0.00    -0.259 C  
ENDROOT
BRANCH   2   3
HETATM    3  C   UNL     1     -10.514  15.741  69.200  1.00  0.00    -0.240 C  
BRANCH   3   4
HETATM    4  C   UNL     1     -10.122  14.461  68.469  1.00  0.00    -0.244 C  
BRANCH   4   5
HETATM    5  C   UNL     1     -11.338  13.561  68.266  1.00  0.00    -0.328 C  
BRANCH   5   6
HETATM    6  C   UNL     1     -11.797  13.588  66.812  1.00  0.00    -0.450 C  
BRANCH   6   7
HETATM    7  C   UNL     1     -10.601  13.575  65.869  1.00  0.00    -0.284 C  
BRANCH   7   8
HETATM    8  C   UNL     1     -10.918  12.777  64.611  1.00  0.00    -0.355 C  
BRANCH   8   9
HETATM    9  C   UNL     1      -9.788  11.807  64.291  1.00  0.00    -0.231 C  
BRANCH   9  10
HETATM   10  C   UNL     1     -10.065  10.442  64.905  1.00  0.00    -0.382 C  
BRANCH  10  11
HETATM   11  C   UNL     1      -9.388  10.320  66.263  1.00  0.00    -0.206 C  
BRANCH  11  12
HETATM   12  C   UNL     1      -8.009   9.691  66.116  1.00  0.00    -0.108 C  
BRANCH  12  13
HETATM   13  C   UNL     1      -8.073   8.472  65.210  1.00  0.00    -0.138 C  
BRANCH  13  14
HETATM   14  C   UNL     1      -8.892   7.364  65.860  1.00  0.00    -0.149 C  
BRANCH  14  15
HETATM   15  C   UNL     1      -7.977   6.294  66.436  1.00  0.00    -0.109 C  
BRANCH  15  16
HETATM   16  C   UNL     1      -7.603   6.627  67.875  1.00  0.00    -0.107 C  
BRANCH  16  17
HETATM   17  C   UNL     1      -8.833   6.586  68.774  1.00  0.00    -0.125 C  
BRANCH  17  18
HETATM   18  C   UNL     1      -8.998   5.204  69.395  1.00  0.00    -0.127 C  
BRANCH  18  19
HETATM   19  C   UNL     1     -10.272   5.133  70.231  1.00  0.00    -0.342 C  
BRANCH  19  20
HETATM   20  C   UNL     1     -10.613   6.502  70.811  1.00  0.00    -0.278 C  
BRANCH  20  21
HETATM   21  C   UNL     1     -12.112   6.767  70.738  1.00  0.00    -0.402 C  
BRANCH  21  22
HETATM   22  C   UNL     1     -12.611   7.467  71.995  1.00  0.00    -0.237 C  
HETATM   23  O   UNL     1     -12.970   8.808  71.689  1.00  0.00    -0.325 OA 
HETATM   24  H   UNL     1     -13.281   9.245  72.474  1.00  0.00     0.000 HD 
ENDBRANCH  21  22
ENDBRANCH  20  21
ENDBRANCH  19  20
ENDBRANCH  18  19
ENDBRANCH  17  18
ENDBRANCH  16  17
ENDBRANCH  15  16
ENDBRANCH  14  15
ENDBRANCH  13  14
ENDBRANCH  12  13
ENDBRANCH  11  12
ENDBRANCH  10  11
ENDBRANCH   9  10
ENDBRANCH   8   9
ENDBRANCH   7   8
ENDBRANCH   6   7
ENDBRANCH   5   6
ENDBRANCH   4   5
ENDBRANCH   3   4
ENDBRANCH   2   3
TORSDOF 20
ENDMDL
MODEL      447
REMARK 921   NORMALIZED FREE ENERGY PREDICTED BY IDOCK:   -2.05 KCAL/MOL
REMARK 922        TOTAL FREE ENERGY PREDICTED BY IDOCK:   -7.31 KCAL/MOL
REMARK 923 INTER-LIGAND FREE ENERGY PREDICTED BY IDOCK:   -4.80 KCAL/MOL
REMARK 924 INTRA-LIGAND FREE ENERGY PREDICTED BY IDOCK:   -2.50 KCAL/MOL
REMARK 927      BINDING AFFINITY PREDICTED BY RF-SCORE:    0.00 PKD
ROOT
HETATM    1  C   UNL     1      -6.445   8.369  73.445  1.00  0.00    -0.124 C  
HETATM    2  C   UNL     1      -7.267   7.132  73.128  1.00  0.00    -0.075 C  
ENDROOT
BRANCH   2   3
HETATM    3  C   UNL     1      -6.404   5.874  73.162  1.00  0.00    -0.063 C  
BRANCH   3   4
HETATM    4  C   UNL     1      -5.986   5.455  71.756  1.00  0.00    -0.029 C  
BRANCH   4   5
HETATM    5  C   UNL     1      -7.187   4.940  70.967  1.00  0.00    -0.060 C  
BRANCH   5   6
HETATM    6  C   UNL     1      -6.985   3.485  70.559  1.00  0.00    -0.034 C  
BRANCH   6   7
HETATM    7  C   UNL     1      -8.323   2.820  70.259  1.00  0.00    -0.073 C  
BRANCH   7   8
HETATM    8  C   UNL     1      -9.298   3.824  69.658  1.00  0.00    -0.245 C  
BRANCH   8   9
HETATM    9  C   UNL     1      -9.209   3.814  68.138  1.00  0.00    -0.214 C  
BRANCH   9  10
HETATM   10  C   UNL     1      -9.695   5.137  67.565  1.00  0.00    -0.177 C  
BRANCH  10  11
HETATM   11  C   UNL     1      -9.830   6.179  68.667  1.00  0.00    -0.160 C  
BRANCH  11  12
HETATM   12  C   UNL     1     -11.264   6.681  68.753  1.00  0.00    -0.256 C  
BRANCH  12  13
HETATM   13  C   UNL     1     -11.727   6.723  70.201  1.00  0.00    -0.370 C  
BRANCH  13  14
HETATM   14  C   UNL     1     -10.565   7.063  71.126  1.00  0.00    -0.237 C  
BRANCH  14  15
HETATM   15  C   UNL     1     -11.016   8.022  72.217  1.00  0.00    -0.377 C  
BRANCH  15  16
HETATM   16  C   UNL     1     -10.751   9.465  71.806  1.00  0.00    -0.190 C  
BRANCH  16  17
HETATM   17  C   UNL     1     -12.052  10.165  71.432  1.00  0.00    -0.475 C  
BRANCH  17  18
HETATM   18  C   UNL     1     -11.830  11.127  70.271  1.00  0.00    -0.455 C  
BRANCH  18  19
HETATM   19  C   UNL     1     -11.202  10.407  69.082  1.00  0.00    -0.301 C  
BRANCH  19  20
HETATM   20  C   UNL     1      -9.881  11.061  68.691  1.00  0.00    -0.197 C  
BRANCH  20  21
HETATM   21  C   UNL     1      -9.972  11.689  67.305  1.00  0.00    -0.210 C  
BRANCH  21  22
HETATM   22  C   UNL     1      -9.024  12.874  67.172  1.00  0.00    -0.219 C  
HETATM   23  O   UNL     1      -8.960  13.289  65.814  1.00  0.00    -0.264 OA 
HETATM   24  H   UNL     1      -8.369  14.028  65.731  1.00  0.00     0.000 HD 
ENDBRANCH  21  22
ENDBRANCH  20  21
ENDBRANCH  19  20
ENDBRANCH  18  19
ENDBRANCH  17  18
ENDBRANCH  16  17
ENDBRANCH  15  16
ENDBRANCH  14  15
ENDBRANCH  13  14
ENDBRANCH  12  13
ENDBRANCH  11  12
ENDBRANCH  10  11
ENDBRANCH   9  10
ENDBRANCH   8   9
ENDBRANCH   7   8
ENDBRANCH   6   7
ENDBRANCH   5   6
ENDBRANCH   4   5
ENDBRANCH   3   4
ENDBRANCH   2   3
TORSDOF 20
ENDMDL
MODEL      448
REMARK 921   NORMALIZED FREE ENERGY PREDICTED BY IDOCK:   -2.04 KCAL/MOL
REMARK 922        TOTAL FREE ENERGY PREDICTED BY IDOCK:   -7.30 KCAL/MOL
REMARK 923 INTER-LIGAND FREE ENERGY PREDICTED BY IDOCK:   -6.25 KCAL/MOL
REMARK 924 INTRA-LIGAND FREE ENERGY PREDICTED BY IDOCK:   -1.05 KCAL/MOL
REMARK 927      BINDING AFFINITY PREDICTED BY RF-SCORE:    0.00 PKD
ROOT
HETATM    1  C   UNL     1     -11.103   6.141  68.978  1.00  0.00    -0.437 C  
HETATM    2  C   UNL     1     -10.942   6.079  67.469  1.00  0.00    -0.335 C  
ENDROOT
BRANCH   2   3
HETATM    3  C   UNL     1     -10.119   7.257  66.955  1.00  0.00    -0.317 C  
BRANCH   3   4
HETATM    4  C   UNL     1      -9.237   7.834  68.058  1.00  0.00    -0.140 C  
BRANCH   4   5
HETATM    5  C   UNL     1      -8.694   9.202  67.655  1.00  0.00    -0.120 C  
BRANCH   5   6
HETATM    6  C   UNL     1      -9.616   9.875  66.643  1.00  0.00    -0.235 C  
BRANCH   6   7
HETATM    7  C   UNL     1      -8.806  10.546  65.541  1.00  0.00    -0.200 C  
BRANCH   7   8
HETATM    8  C   UNL     1      -9.518  10.420  64.200  1.00  0.00    -0.353 C  
BRANCH   8   9
HETATM    9  C   UNL     1     -10.066  11.769  63.755  1.00  0.00    -0.421 C  
BRANCH   9  10
HETATM   10  C   UNL     1     -11.588  11.742  63.717  1.00  0.00    -0.508 C  
BRANCH  10  11
HETATM   11  C   UNL     1     -12.157  13.086  64.147  1.00  0.00    -0.497 C  
BRANCH  11  12
HETATM   12  C   UNL     1     -12.575  13.045  65.610  1.00  0.00    -0.349 C  
BRANCH  12  13
HETATM   13  C   UNL     1     -11.679  13.947  66.446  1.00  0.00    -0.403 C  
BRANCH  13  14
HETATM   14  C   UNL     1     -10.534  13.148  67.054  1.00  0.00    -0.248 C  
BRANCH  14  15
HETATM   15  C   UNL     1     -10.435  13.411  68.549  1.00  0.00    -0.260 C  
BRANCH  15  16
HETATM   16  C   UNL     1     -11.170  14.693  68.918  1.00  0.00    -0.285 C  
BRANCH  16  17
HETATM   17  C   UNL     1     -12.655  14.420  69.130  1.00  0.00     0.176 C  
BRANCH  17  18
HETATM   18  C   UNL     1     -12.866  13.029  69.716  1.00  0.00     0.601 C  
BRANCH  18  19
HETATM   19  C   UNL     1     -13.031  13.098  71.231  1.00  0.00    -0.339 C  
BRANCH  19  20
HETATM   20  C   UNL     1     -13.538  14.472  71.656  1.00  0.00    -0.469 C  
BRANCH  20  21
HETATM   21  C   UNL     1     -12.608  15.102  72.686  1.00  0.00    -0.466 C  
BRANCH  21  22
HETATM   22  C   UNL     1     -11.426  15.790  72.017  1.00  0.00    -0.365 C  
HETATM   23  O   UNL     1     -11.605  17.200  72.055  1.00  0.00    -0.281 OA 
HETATM   24  H   UNL     1     -10.867  17.629  71.637  1.00  0.00     0.000 HD 
ENDBRANCH  21  22
ENDBRANCH  20  21
ENDBRANCH  19  20
ENDBRANCH  18  19
ENDBRANCH  17  18
ENDBRANCH  16  17
ENDBRANCH  15  16
ENDBRANCH  14  15
ENDBRANCH  13  14
ENDBRANCH  12  13
ENDBRANCH  11  12
ENDBRANCH  10  11
ENDBRANCH   9  10
ENDBRANCH   8   9
ENDBRANCH   7   8
ENDBRANCH   6   7
ENDBRANCH   5   6
ENDBRANCH   4   5
ENDBRANCH   3   4
ENDBRANCH   2   3
TORSDOF 20
ENDMDL
MODEL      449
REMARK 921   NORMALIZED FREE ENERGY PREDICTED BY IDOCK:   -2.04 KCAL/MOL
REMARK 922        TOTAL FREE ENERGY PREDICTED BY IDOCK:   -7.30 KCAL/MOL
REMARK 923 INTER-LIGAND FREE ENERGY PREDICTED BY IDOCK:   -4.48 KCAL/MOL
REMARK 924 INTRA-LIGAND FREE ENERGY PREDICTED BY IDOCK:   -2.82 KCAL/MOL
REMARK 927      BINDING AFFINITY PREDICTED BY RF-SCORE:    0.00 PKD
ROOT
HETATM    1  C   UNL     1     -12.325   9.573  71.901  1.00  0.00    -0.450 C  
HETATM    2  C   UNL     1     -11.503   8.330  72.196  1.00  0.00    -0.427 C  
ENDROOT
BRANCH   2   3
HETATM    3  C   UNL     1     -12.229   7.069  71.737  1.00  0.00    -0.387 C  
BRANCH   3   4
HETATM    4  C   UNL     1     -11.724   5.840  72.486  1.00  0.00    -0.280 C  
BRANCH   4   5
HETATM    5  C   UNL     1     -10.212   5.701  72.340  1.00  0.00    -0.232 C  
BRANCH   5   6
HETATM    6  C   UNL     1      -9.837   5.328  70.910  1.00  0.00    -0.257 C  
BRANCH   6   7
HETATM    7  C   UNL     1      -8.587   6.078  70.468  1.00  0.00    -0.137 C  
BRANCH   7   8
HETATM    8  C   UNL     1      -8.732   6.565  69.032  1.00  0.00    -0.128 C  
BRANCH   8   9
HETATM    9  C   UNL     1     -10.182   6.922  68.731  1.00  0.00    -0.179 C  
BRANCH   9  10
HETATM   10  C   UNL     1     -10.411   8.417  68.906  1.00  0.00    -0.231 C  
BRANCH  10  11
HETATM   11  C   UNL     1      -9.790   9.191  67.751  1.00  0.00    -0.214 C  
BRANCH  11  12
HETATM   12  C   UNL     1      -8.767  10.192  68.268  1.00  0.00    -0.120 C  
BRANCH  12  13
HETATM   13  C   UNL     1      -8.666  10.115  69.784  1.00  0.00    -0.148 C  
BRANCH  13  14
HETATM   14  C   UNL     1      -7.220   9.910  70.215  1.00  0.00    -0.160 C  
BRANCH  14  15
HETATM   15  C   UNL     1      -6.277  10.124  69.040  1.00  0.00    -0.043 C  
BRANCH  15  16
HETATM   16  C   UNL     1      -5.146  11.068  69.426  1.00  0.00    -0.041 C  
BRANCH  16  17
HETATM   17  C   UNL     1      -5.646  12.506  69.498  1.00  0.00    -0.089 C  
BRANCH  17  18
HETATM   18  C   UNL     1      -6.313  12.910  68.189  1.00  0.00    -0.096 C  
BRANCH  18  19
HETATM   19  C   UNL     1      -7.137  14.180  68.369  1.00  0.00    -0.104 C  
BRANCH  19  20
HETATM   20  C   UNL     1      -7.770  14.604  67.048  1.00  0.00     0.006 C  
BRANCH  20  21
HETATM   21  C   UNL     1      -9.284  14.716  67.179  1.00  0.00    -0.231 C  
BRANCH  21  22
HETATM   22  C   UNL     1      -9.816  13.782  68.258  1.00  0.00    -0.232 C  
HETATM   23  O   UNL     1     -10.502  14.534  69.251  1.00  0.00    -0.294 OA 
HETATM   24  H   UNL     1     -10.833  13.951  69.924  1.00  0.00     0.000 HD 
ENDBRANCH  21  22
ENDBRANCH  20  21
ENDBRANCH  19  20
ENDBRANCH  18  19
ENDBRANCH  17  18
ENDBRANCH  16  17
ENDBRANCH  15  16
ENDBRANCH  14  15
ENDBRANCH  13  14
ENDBRANCH  12  13
ENDBRANCH  11  12
ENDBRANCH  10  11
ENDBRANCH   9  10
ENDBRANCH   8   9
ENDBRANCH   7   8
ENDBRANCH   6   7
ENDBRANCH   5   6
ENDBRANCH   4   5
ENDBRANCH   3   4
ENDBRANCH   2   3
TORSDOF 20
ENDMDL
MODEL      450
REMARK 921   NORMALIZED FREE ENERGY PREDICTED BY IDOCK:   -2.04 KCAL/MOL
REMARK 922        TOTAL FREE ENERGY PREDICTED BY IDOCK:   -7.29 KCAL/MOL
REMARK 923 INTER-LIGAND FREE ENERGY PREDICTED BY IDOCK:   -4.48 KCAL/MOL
REMARK 924 INTRA-LIGAND FREE ENERGY PREDICTED BY IDOCK:   -2.81 KCAL/MOL
REMARK 927      BINDING AFFINITY PREDICTED BY RF-SCORE:    0.00 PKD
ROOT
HETATM    1  C   UNL     1      -5.570  13.987  69.012  1.00  0.00    -0.084 C  
HETATM    2  C   UNL     1      -6.825  13.538  68.282  1.00  0.00    -0.108 C  
ENDROOT
BRANCH   2   3
HETATM    3  C   UNL     1      -6.502  12.474  67.237  1.00  0.00    -0.124 C  
BRANCH   3   4
HETATM    4  C   UNL     1      -6.988  11.099  67.684  1.00  0.00    -0.084 C  
BRANCH   4   5
HETATM    5  C   UNL     1      -8.310  11.212  68.437  1.00  0.00    -0.149 C  
BRANCH   5   6
HETATM    6  C   UNL     1      -8.299  10.340  69.688  1.00  0.00    -0.139 C  
BRANCH   6   7
HETATM    7  C   UNL     1      -9.713   9.907  70.056  1.00  0.00    -0.274 C  
BRANCH   7   8
HETATM    8  C   UNL     1     -10.299   9.014  68.971  1.00  0.00    -0.233 C  
BRANCH   8   9
HETATM    9  C   UNL     1     -10.741   7.679  69.555  1.00  0.00    -0.211 C  
BRANCH   9  10
HETATM   10  C   UNL     1      -9.574   6.984  70.243  1.00  0.00    -0.168 C  
BRANCH  10  11
HETATM   11  C   UNL     1      -8.970   5.926  69.331  1.00  0.00    -0.122 C  
BRANCH  11  12
HETATM   12  C   UNL     1      -7.698   6.449  68.678  1.00  0.00    -0.101 C  
BRANCH  12  13
HETATM   13  C   UNL     1      -7.908   6.648  67.185  1.00  0.00    -0.105 C  
BRANCH  13  14
HETATM   14  C   UNL     1      -6.743   7.417  66.578  1.00  0.00    -0.061 C  
BRANCH  14  15
HETATM   15  C   UNL     1      -7.252   8.551  65.700  1.00  0.00    -0.079 C  
BRANCH  15  16
HETATM   16  C   UNL     1      -8.638   8.229  65.159  1.00  0.00    -0.132 C  
BRANCH  16  17
HETATM   17  C   UNL     1      -9.635   9.314  65.552  1.00  0.00    -0.291 C  
BRANCH  17  18
HETATM   18  C   UNL     1      -9.300  10.628  64.856  1.00  0.00    -0.271 C  
BRANCH  18  19
HETATM   19  C   UNL     1     -10.251  11.734  65.299  1.00  0.00    -0.307 C  
BRANCH  19  20
HETATM   20  C   UNL     1     -10.703  12.568  64.105  1.00  0.00    -0.423 C  
BRANCH  20  21
HETATM   21  C   UNL     1     -10.883  14.030  64.496  1.00  0.00    -0.362 C  
BRANCH  21  22
HETATM   22  C   UNL     1     -10.295  14.311  65.873  1.00  0.00    -0.314 C  
HETATM   23  O   UNL     1     -11.242  15.013  66.667  1.00  0.00    -0.335 OA 
HETATM   24  H   UNL     1     -10.874  15.188  67.525  1.00  0.00     0.000 HD 
ENDBRANCH  21  22
ENDBRANCH  20  21
ENDBRANCH  19  20
ENDBRANCH  18  19
ENDBRANCH  17  18
ENDBRANCH  16  17
ENDBRANCH  15  16
ENDBRANCH  14  15
ENDBRANCH  13  14
ENDBRANCH  12  13
ENDBRANCH  11  12
ENDBRANCH  10  11
ENDBRANCH   9  10
ENDBRANCH   8   9
ENDBRANCH   7   8
ENDBRANCH   6   7
ENDBRANCH   5   6
ENDBRANCH   4   5
ENDBRANCH   3   4
ENDBRANCH   2   3
TORSDOF 20
ENDMDL
MODEL      451
REMARK 921   NORMALIZED FREE ENERGY PREDICTED BY IDOCK:   -2.02 KCAL/MOL
REMARK 922        TOTAL FREE ENERGY PREDICTED BY IDOCK:   -7.26 KCAL/MOL
REMARK 923 INTER-LIGAND FREE ENERGY PREDICTED BY IDOCK:   -5.02 KCAL/MOL
REMARK 924 INTRA-LIGAND FREE ENERGY PREDICTED BY IDOCK:   -2.24 KCAL/MOL
REMARK 927      BINDING AFFINITY PREDICTED BY RF-SCORE:    0.00 PKD
ROOT
HETATM    1  C   UNL     1     -12.276  10.885  70.673  1.00  0.00    -0.472 C  
HETATM    2  C   UNL     1     -12.993  10.101  71.759  1.00  0.00    -0.567 C  
ENDROOT
BRANCH   2   3
HETATM    3  C   UNL     1     -12.349   8.734  71.966  1.00  0.00    -0.444 C  
BRANCH   3   4
HETATM    4  C   UNL     1     -11.640   8.262  70.700  1.00  0.00    -0.199 C  
BRANCH   4   5
HETATM    5  C   UNL     1     -11.897   6.777  70.458  1.00  0.00    -0.418 C  
BRANCH   5   6
HETATM    6  C   UNL     1     -10.711   6.129  69.752  1.00  0.00    -0.376 C  
BRANCH   6   7
HETATM    7  C   UNL     1      -9.934   7.162  68.945  1.00  0.00    -0.163 C  
BRANCH   7   8
HETATM    8  C   UNL     1     -10.052   6.878  67.454  1.00  0.00    -0.237 C  
BRANCH   8   9
HETATM    9  C   UNL     1     -10.219   5.385  67.204  1.00  0.00    -0.266 C  
BRANCH   9  10
HETATM   10  C   UNL     1     -10.571   5.122  65.747  1.00  0.00    -0.079 C  
BRANCH  10  11
HETATM   11  C   UNL     1      -9.589   4.137  65.129  1.00  0.00    -0.185 C  
BRANCH  11  12
HETATM   12  C   UNL     1      -8.196   4.747  65.057  1.00  0.00    -0.126 C  
BRANCH  12  13
HETATM   13  C   UNL     1      -7.256   4.044  66.023  1.00  0.00    -0.068 C  
BRANCH  13  14
HETATM   14  C   UNL     1      -6.647   5.041  66.999  1.00  0.00    -0.050 C  
BRANCH  14  15
HETATM   15  C   UNL     1      -5.273   5.485  66.521  1.00  0.00    -0.005 C  
BRANCH  15  16
HETATM   16  C   UNL     1      -5.185   7.005  66.480  1.00  0.00    -0.022 C  
BRANCH  16  17
HETATM   17  C   UNL     1      -5.702   7.538  65.148  1.00  0.00    -0.037 C  
BRANCH  17  18
HETATM   18  C   UNL     1      -6.345   8.908  65.331  1.00  0.00    -0.063 C  
BRANCH  18  19
HETATM   19  C   UNL     1      -7.487   8.841  66.339  1.00  0.00    -0.087 C  
BRANCH  19  20
HETATM   20  C   UNL     1      -8.400  10.055  66.202  1.00  0.00    -0.121 C  
BRANCH  20  21
HETATM   21  C   UNL     1      -9.563   9.760  65.263  1.00  0.00    -0.368 C  
BRANCH  21  22
HETATM   22  C   UNL     1      -9.686  10.826  64.183  1.00  0.00    -0.309 C  
HETATM   23  O   UNL     1      -8.392  11.203  63.730  1.00  0.00    -0.359 OA 
HETATM   24  H   UNL     1      -8.469  11.869  63.056  1.00  0.00     0.000 HD 
ENDBRANCH  21  22
ENDBRANCH  20  21
ENDBRANCH  19  20
ENDBRANCH  18  19
ENDBRANCH  17  18
ENDBRANCH  16  17
ENDBRANCH  15  16
ENDBRANCH  14  15
ENDBRANCH  13  14
ENDBRANCH  12  13
ENDBRANCH  11  12
ENDBRANCH  10  11
ENDBRANCH   9  10
ENDBRANCH   8   9
ENDBRANCH   7   8
ENDBRANCH   6   7
ENDBRANCH   5   6
ENDBRANCH   4   5
ENDBRANCH   3   4
ENDBRANCH   2   3
TORSDOF 20
ENDMDL
MODEL      452
REMARK 921   NORMALIZED FREE ENERGY PREDICTED BY IDOCK:   -2.02 KCAL/MOL
REMARK 922        TOTAL FREE ENERGY PREDICTED BY IDOCK:   -7.25 KCAL/MOL
REMARK 923 INTER-LIGAND FREE ENERGY PREDICTED BY IDOCK:   -5.58 KCAL/MOL
REMARK 924 INTRA-LIGAND FREE ENERGY PREDICTED BY IDOCK:   -1.67 KCAL/MOL
REMARK 927      BINDING AFFINITY PREDICTED BY RF-SCORE:    0.00 PKD
ROOT
HETATM    1  C   UNL     1      -6.141  20.458  64.548  1.00  0.00    -0.334 C  
HETATM    2  C   UNL     1      -5.987  20.978  65.967  1.00  0.00    -0.301 C  
ENDROOT
BRANCH   2   3
HETATM    3  C   UNL     1      -6.843  20.176  66.942  1.00  0.00    -0.262 C  
BRANCH   3   4
HETATM    4  C   UNL     1      -8.301  20.140  66.493  1.00  0.00    -0.314 C  
BRANCH   4   5
HETATM    5  C   UNL     1      -8.939  18.797  66.836  1.00  0.00    -0.302 C  
BRANCH   5   6
HETATM    6  C   UNL     1     -10.255  18.996  67.581  1.00  0.00    -0.478 C  
BRANCH   6   7
HETATM    7  C   UNL     1     -10.659  17.719  68.308  1.00  0.00    -0.325 C  
BRANCH   7   8
HETATM    8  C   UNL     1     -10.530  16.513  67.386  1.00  0.00    -0.310 C  
BRANCH   8   9
HETATM    9  C   UNL     1     -11.358  15.347  67.909  1.00  0.00    -0.328 C  
BRANCH   9  10
HETATM   10  C   UNL     1     -11.985  15.696  69.252  1.00  0.00    -0.338 C  
BRANCH  10  11
HETATM   11  C   UNL     1     -12.659  14.474  69.860  1.00  0.00    -0.226 C  
BRANCH  11  12
HETATM   12  C   UNL     1     -11.664  13.331  70.003  1.00  0.00    -0.295 C  
BRANCH  12  13
HETATM   13  C   UNL     1     -12.377  11.991  69.919  1.00  0.00    -0.143 C  
BRANCH  13  14
HETATM   14  C   UNL     1     -11.636  11.048  68.980  1.00  0.00    -0.392 C  
BRANCH  14  15
HETATM   15  C   UNL     1     -11.534  11.653  67.587  1.00  0.00    -0.373 C  
BRANCH  15  16
HETATM   16  C   UNL     1     -10.095  11.611  67.090  1.00  0.00    -0.227 C  
BRANCH  16  17
HETATM   17  C   UNL     1      -9.215  10.823  68.052  1.00  0.00    -0.150 C  
BRANCH  17  18
HETATM   18  C   UNL     1      -7.957  11.611  68.399  1.00  0.00    -0.140 C  
BRANCH  18  19
HETATM   19  C   UNL     1      -6.708  10.867  67.940  1.00  0.00    -0.064 C  
BRANCH  19  20
HETATM   20  C   UNL     1      -6.423   9.677  68.851  1.00  0.00    -0.046 C  
BRANCH  20  21
HETATM   21  C   UNL     1      -6.304   8.389  68.046  1.00  0.00    -0.056 C  
BRANCH  21  22
HETATM   22  C   UNL     1      -7.394   7.395  68.428  1.00  0.00    -0.103 C  
HETATM   23  O   UNL     1      -6.915   6.067  68.259  1.00  0.00    -0.071 OA 
HETATM   24  H   UNL     1      -7.595   5.448  68.497  1.00  0.00     0.000 HD 
ENDBRANCH  21  22
ENDBRANCH  20  21
ENDBRANCH  19  20
ENDBRANCH  18  19
ENDBRANCH  17  18
ENDBRANCH  16  17
ENDBRANCH  15  16
ENDBRANCH  14  15
ENDBRANCH  13  14
ENDBRANCH  12  13
ENDBRANCH  11  12
ENDBRANCH  10  11
ENDBRANCH   9  10
ENDBRANCH   8   9
ENDBRANCH   7   8
ENDBRANCH   6   7
ENDBRANCH   5   6
ENDBRANCH   4   5
ENDBRANCH   3   4
ENDBRANCH   2   3
TORSDOF 20
ENDMDL
MODEL      453
REMARK 921   NORMALIZED FREE ENERGY PREDICTED BY IDOCK:   -2.01 KCAL/MOL
REMARK 922        TOTAL FREE ENERGY PREDICTED BY IDOCK:   -7.23 KCAL/MOL
REMARK 923 INTER-LIGAND FREE ENERGY PREDICTED BY IDOCK:   -5.35 KCAL/MOL
REMARK 924 INTRA-LIGAND FREE ENERGY PREDICTED BY IDOCK:   -1.88 KCAL/MOL
REMARK 927      BINDING AFFINITY PREDICTED BY RF-SCORE:    0.00 PKD
ROOT
HETATM    1  C   UNL     1     -11.012   6.664  68.489  1.00  0.00    -0.314 C  
HETATM    2  C   UNL     1     -10.866   6.674  70.001  1.00  0.00    -0.331 C  
ENDROOT
BRANCH   2   3
HETATM    3  C   UNL     1     -11.251   8.031  70.582  1.00  0.00    -0.266 C  
BRANCH   3   4
HETATM    4  C   UNL     1     -10.013   8.846  70.945  1.00  0.00    -0.304 C  
BRANCH   4   5
HETATM    5  C   UNL     1      -9.716   9.886  69.869  1.00  0.00    -0.274 C  
BRANCH   5   6
HETATM    6  C   UNL     1      -8.758   9.327  68.823  1.00  0.00    -0.132 C  
BRANCH   6   7
HETATM    7  C   UNL     1      -8.539  10.334  67.701  1.00  0.00    -0.118 C  
BRANCH   7   8
HETATM    8  C   UNL     1      -7.059  10.437  67.354  1.00  0.00    -0.087 C  
BRANCH   8   9
HETATM    9  C   UNL     1      -6.374  11.476  68.231  1.00  0.00    -0.046 C  
BRANCH   9  10
HETATM   10  C   UNL     1      -7.341  12.595  68.591  1.00  0.00    -0.101 C  
BRANCH  10  11
HETATM   11  C   UNL     1      -7.233  13.737  67.591  1.00  0.00    -0.183 C  
BRANCH  11  12
HETATM   12  C   UNL     1      -8.615  14.257  67.223  1.00  0.00    -0.229 C  
BRANCH  12  13
HETATM   13  C   UNL     1      -9.543  14.199  68.426  1.00  0.00    -0.225 C  
BRANCH  13  14
HETATM   14  C   UNL     1      -9.492  15.506  69.206  1.00  0.00    -0.263 C  
BRANCH  14  15
HETATM   15  C   UNL     1      -8.827  16.596  68.379  1.00  0.00    -0.226 C  
BRANCH  15  16
HETATM   16  C   UNL     1      -7.604  17.145  69.101  1.00  0.00    -0.126 C  
BRANCH  16  17
HETATM   17  C   UNL     1      -6.415  17.239  68.151  1.00  0.00    -0.162 C  
BRANCH  17  18
HETATM   18  C   UNL     1      -6.205  18.677  67.694  1.00  0.00    -0.191 C  
BRANCH  18  19
HETATM   19  C   UNL     1      -6.620  18.849  66.237  1.00  0.00    -0.234 C  
BRANCH  19  20
HETATM   20  C   UNL     1      -7.653  19.963  66.098  1.00  0.00    -0.338 C  
BRANCH  20  21
HETATM   21  C   UNL     1      -9.069  19.399  66.101  1.00  0.00    -0.314 C  
BRANCH  21  22
HETATM   22  C   UNL     1      -9.891  19.975  67.246  1.00  0.00    -0.427 C  
HETATM   23  O   UNL     1     -10.974  19.104  67.546  1.00  0.00    -0.456 OA 
HETATM   24  H   UNL     1     -11.487  19.464  68.261  1.00  0.00     0.000 HD 
ENDBRANCH  21  22
ENDBRANCH  20  21
ENDBRANCH  19  20
ENDBRANCH  18  19
ENDBRANCH  17  18
ENDBRANCH  16  17
ENDBRANCH  15  16
ENDBRANCH  14  15
ENDBRANCH  13  14
ENDBRANCH  12  13
ENDBRANCH  11  12
ENDBRANCH  10  11
ENDBRANCH   9  10
ENDBRANCH   8   9
ENDBRANCH   7   8
ENDBRANCH   6   7
ENDBRANCH   5   6
ENDBRANCH   4   5
ENDBRANCH   3   4
ENDBRANCH   2   3
TORSDOF 20
ENDMDL
MODEL      454
REMARK 921   NORMALIZED FREE ENERGY PREDICTED BY IDOCK:   -2.00 KCAL/MOL
REMARK 922        TOTAL FREE ENERGY PREDICTED BY IDOCK:   -7.21 KCAL/MOL
REMARK 923 INTER-LIGAND FREE ENERGY PREDICTED BY IDOCK:   -4.01 KCAL/MOL
REMARK 924 INTRA-LIGAND FREE ENERGY PREDICTED BY IDOCK:   -3.20 KCAL/MOL
REMARK 927      BINDING AFFINITY PREDICTED BY RF-SCORE:    0.00 PKD
ROOT
HETATM    1  C   UNL     1     -11.146   5.700  70.761  1.00  0.00    -0.196 C  
HETATM    2  C   UNL     1     -10.094   4.671  71.137  1.00  0.00    -0.243 C  
ENDROOT
BRANCH   2   3
HETATM    3  C   UNL     1      -8.714   5.088  70.637  1.00  0.00    -0.140 C  
BRANCH   3   4
HETATM    4  C   UNL     1      -8.744   6.495  70.047  1.00  0.00    -0.140 C  
BRANCH   4   5
HETATM    5  C   UNL     1      -7.378   6.876  69.486  1.00  0.00    -0.091 C  
BRANCH   5   6
HETATM    6  C   UNL     1      -6.584   5.632  69.099  1.00  0.00    -0.054 C  
BRANCH   6   7
HETATM    7  C   UNL     1      -6.573   5.450  67.587  1.00  0.00    -0.053 C  
BRANCH   7   8
HETATM    8  C   UNL     1      -6.388   6.790  66.886  1.00  0.00    -0.042 C  
BRANCH   8   9
HETATM    9  C   UNL     1      -6.518   6.629  65.377  1.00  0.00    -0.046 C  
BRANCH   9  10
HETATM   10  C   UNL     1      -6.796   5.177  65.016  1.00  0.00    -0.049 C  
BRANCH  10  11
HETATM   11  C   UNL     1      -7.420   5.081  63.631  1.00  0.00    -0.056 C  
BRANCH  11  12
HETATM   12  C   UNL     1      -8.933   4.956  63.734  1.00  0.00    -0.023 C  
BRANCH  12  13
HETATM   13  C   UNL     1      -9.314   4.028  64.877  1.00  0.00    -0.163 C  
BRANCH  13  14
HETATM   14  C   UNL     1     -10.511   4.581  65.640  1.00  0.00    -0.261 C  
BRANCH  14  15
HETATM   15  C   UNL     1     -10.049   5.440  66.807  1.00  0.00    -0.246 C  
BRANCH  15  16
HETATM   16  C   UNL     1     -11.105   6.479  67.159  1.00  0.00    -0.434 C  
BRANCH  16  17
HETATM   17  C   UNL     1     -10.458   7.830  67.441  1.00  0.00    -0.362 C  
BRANCH  17  18
HETATM   18  C   UNL     1      -9.648   8.300  66.238  1.00  0.00    -0.266 C  
BRANCH  18  19
HETATM   19  C   UNL     1      -9.764   9.810  66.062  1.00  0.00    -0.319 C  
BRANCH  19  20
HETATM   20  C   UNL     1      -8.831  10.538  67.024  1.00  0.00    -0.142 C  
BRANCH  20  21
HETATM   21  C   UNL     1      -9.213  12.008  67.148  1.00  0.00    -0.190 C  
BRANCH  21  22
HETATM   22  C   UNL     1     -10.193  12.231  68.293  1.00  0.00    -0.220 C  
HETATM   23  O   UNL     1     -11.430  11.596  67.997  1.00  0.00    -0.274 OA 
HETATM   24  H   UNL     1     -12.041  11.735  68.711  1.00  0.00     0.000 HD 
ENDBRANCH  21  22
ENDBRANCH  20  21
ENDBRANCH  19  20
ENDBRANCH  18  19
ENDBRANCH  17  18
ENDBRANCH  16  17
ENDBRANCH  15  16
ENDBRANCH  14  15
ENDBRANCH  13  14
ENDBRANCH  12  13
ENDBRANCH  11  12
ENDBRANCH  10  11
ENDBRANCH   9  10
ENDBRANCH   8   9
ENDBRANCH   7   8
ENDBRANCH   6   7
ENDBRANCH   5   6
ENDBRANCH   4   5
ENDBRANCH   3   4
ENDBRANCH   2   3
TORSDOF 20
ENDMDL
MODEL      455
REMARK 921   NORMALIZED FREE ENERGY PREDICTED BY IDOCK:   -1.97 KCAL/MOL
REMARK 922        TOTAL FREE ENERGY PREDICTED BY IDOCK:   -7.14 KCAL/MOL
REMARK 923 INTER-LIGAND FREE ENERGY PREDICTED BY IDOCK:   -4.70 KCAL/MOL
REMARK 924 INTRA-LIGAND FREE ENERGY PREDICTED BY IDOCK:   -2.44 KCAL/MOL
REMARK 927      BINDING AFFINITY PREDICTED BY RF-SCORE:    0.00 PKD
ROOT
HETATM    1  C   UNL     1      -9.151   6.272  70.414  1.00  0.00    -0.157 C  
HETATM    2  C   UNL     1      -7.783   5.678  70.706  1.00  0.00    -0.092 C  
ENDROOT
BRANCH   2   3
HETATM    3  C   UNL     1      -6.748   6.155  69.692  1.00  0.00    -0.052 C  
BRANCH   3   4
HETATM    4  C   UNL     1      -7.420   6.779  68.472  1.00  0.00    -0.092 C  
BRANCH   4   5
HETATM    5  C   UNL     1      -6.389   7.457  67.575  1.00  0.00    -0.052 C  
BRANCH   5   6
HETATM    6  C   UNL     1      -5.249   6.501  67.239  1.00  0.00    -0.008 C  
BRANCH   6   7
HETATM    7  C   UNL     1      -5.654   5.553  66.117  1.00  0.00    -0.013 C  
BRANCH   7   8
HETATM    8  C   UNL     1      -6.282   6.325  64.964  1.00  0.00    -0.030 C  
BRANCH   8   9
HETATM    9  C   UNL     1      -7.631   5.726  64.588  1.00  0.00    -0.083 C  
BRANCH   9  10
HETATM   10  C   UNL     1      -8.068   4.702  65.626  1.00  0.00    -0.107 C  
BRANCH  10  11
HETATM   11  C   UNL     1      -9.313   3.963  65.155  1.00  0.00    -0.158 C  
BRANCH  11  12
HETATM   12  C   UNL     1     -10.570   4.696  65.600  1.00  0.00    -0.241 C  
BRANCH  12  13
HETATM   13  C   UNL     1     -10.387   5.267  66.997  1.00  0.00    -0.286 C  
BRANCH  13  14
HETATM   14  C   UNL     1     -11.034   6.641  67.104  1.00  0.00    -0.478 C  
BRANCH  14  15
HETATM   15  C   UNL     1     -10.038   7.730  66.734  1.00  0.00    -0.341 C  
BRANCH  15  16
HETATM   16  C   UNL     1     -10.631   9.109  66.995  1.00  0.00    -0.266 C  
BRANCH  16  17
HETATM   17  C   UNL     1      -9.866  10.178  66.223  1.00  0.00    -0.288 C  
BRANCH  17  18
HETATM   18  C   UNL     1      -9.485  11.334  67.141  1.00  0.00    -0.183 C  
BRANCH  18  19
HETATM   19  C   UNL     1      -9.978  12.661  66.575  1.00  0.00    -0.256 C  
BRANCH  19  20
HETATM   20  C   UNL     1     -11.414  12.933  67.010  1.00  0.00    -0.390 C  
BRANCH  20  21
HETATM   21  C   UNL     1     -11.533  12.939  68.529  1.00  0.00    -0.345 C  
BRANCH  21  22
HETATM   22  C   UNL     1     -11.829  14.338  69.055  1.00  0.00    -0.335 C  
HETATM   23  O   UNL     1     -11.268  14.492  70.352  1.00  0.00    -0.442 OA 
HETATM   24  H   UNL     1     -11.452  15.365  70.680  1.00  0.00     0.000 HD 
ENDBRANCH  21  22
ENDBRANCH  20  21
ENDBRANCH  19  20
ENDBRANCH  18  19
ENDBRANCH  17  18
ENDBRANCH  16  17
ENDBRANCH  15  16
ENDBRANCH  14  15
ENDBRANCH  13  14
ENDBRANCH  12  13
ENDBRANCH  11  12
ENDBRANCH  10  11
ENDBRANCH   9  10
ENDBRANCH   8   9
ENDBRANCH   7   8
ENDBRANCH   6   7
ENDBRANCH   5   6
ENDBRANCH   4   5
ENDBRANCH   3   4
ENDBRANCH   2   3
TORSDOF 20
ENDMDL
MODEL      456
REMARK 921   NORMALIZED FREE ENERGY PREDICTED BY IDOCK:   -1.97 KCAL/MOL
REMARK 922        TOTAL FREE ENERGY PREDICTED BY IDOCK:   -7.13 KCAL/MOL
REMARK 923 INTER-LIGAND FREE ENERGY PREDICTED BY IDOCK:   -3.64 KCAL/MOL
REMARK 924 INTRA-LIGAND FREE ENERGY PREDICTED BY IDOCK:   -3.49 KCAL/MOL
REMARK 927      BINDING AFFINITY PREDICTED BY RF-SCORE:    0.00 PKD
ROOT
HETATM    1  C   UNL     1      -9.200   6.234  70.443  1.00  0.00    -0.160 C  
HETATM    2  C   UNL     1      -7.867   5.604  70.809  1.00  0.00    -0.093 C  
ENDROOT
BRANCH   2   3
HETATM    3  C   UNL     1      -6.781   5.998  69.812  1.00  0.00    -0.052 C  
BRANCH   3   4
HETATM    4  C   UNL     1      -7.387   6.605  68.550  1.00  0.00    -0.087 C  
BRANCH   4   5
HETATM    5  C   UNL     1      -6.298   7.182  67.651  1.00  0.00    -0.047 C  
BRANCH   5   6
HETATM    6  C   UNL     1      -5.251   6.124  67.319  1.00  0.00    -0.005 C  
BRANCH   6   7
HETATM    7  C   UNL     1      -5.730   5.233  66.179  1.00  0.00    -0.018 C  
BRANCH   7   8
HETATM    8  C   UNL     1      -6.366   6.069  65.076  1.00  0.00    -0.037 C  
BRANCH   8   9
HETATM    9  C   UNL     1      -7.691   5.459  64.637  1.00  0.00    -0.090 C  
BRANCH   9  10
HETATM   10  C   UNL     1      -8.143   4.394  65.627  1.00  0.00    -0.105 C  
BRANCH  10  11
HETATM   11  C   UNL     1      -9.423   3.727  65.144  1.00  0.00    -0.167 C  
BRANCH  11  12
HETATM   12  C   UNL     1     -10.642   4.511  65.609  1.00  0.00    -0.231 C  
BRANCH  12  13
HETATM   13  C   UNL     1     -10.419   5.061  67.009  1.00  0.00    -0.208 C  
BRANCH  13  14
HETATM   14  C   UNL     1     -11.033   6.448  67.145  1.00  0.00    -0.476 C  
BRANCH  14  15
HETATM   15  C   UNL     1     -10.070   7.510  66.637  1.00  0.00    -0.263 C  
BRANCH  15  16
HETATM   16  C   UNL     1     -10.524   8.897  67.073  1.00  0.00    -0.326 C  
BRANCH  16  17
HETATM   17  C   UNL     1      -9.970   9.964  66.135  1.00  0.00    -0.331 C  
BRANCH  17  18
HETATM   18  C   UNL     1      -8.460   9.816  65.986  1.00  0.00    -0.131 C  
BRANCH  18  19
HETATM   19  C   UNL     1      -7.737  11.038  66.541  1.00  0.00    -0.154 C  
BRANCH  19  20
HETATM   20  C   UNL     1      -7.067  10.711  67.871  1.00  0.00    -0.086 C  
BRANCH  20  21
HETATM   21  C   UNL     1      -7.980  11.054  69.042  1.00  0.00    -0.114 C  
BRANCH  21  22
HETATM   22  C   UNL     1      -8.284   9.822  69.885  1.00  0.00    -0.183 C  
HETATM   23  O   UNL     1      -7.272   9.650  70.868  1.00  0.00    -0.274 OA 
HETATM   24  H   UNL     1      -7.461   8.882  71.394  1.00  0.00     0.000 HD 
ENDBRANCH  21  22
ENDBRANCH  20  21
ENDBRANCH  19  20
ENDBRANCH  18  19
ENDBRANCH  17  18
ENDBRANCH  16  17
ENDBRANCH  15  16
ENDBRANCH  14  15
ENDBRANCH  13  14
ENDBRANCH  12  13
ENDBRANCH  11  12
ENDBRANCH  10  11
ENDBRANCH   9  10
ENDBRANCH   8   9
ENDBRANCH   7   8
ENDBRANCH   6   7
ENDBRANCH   5   6
ENDBRANCH   4   5
ENDBRANCH   3   4
ENDBRANCH   2   3
TORSDOF 20
ENDMDL
MODEL      457
REMARK 921   NORMALIZED FREE ENERGY PREDICTED BY IDOCK:   -1.96 KCAL/MOL
REMARK 922        TOTAL FREE ENERGY PREDICTED BY IDOCK:   -7.12 KCAL/MOL
REMARK 923 INTER-LIGAND FREE ENERGY PREDICTED BY IDOCK:   -5.17 KCAL/MOL
REMARK 924 INTRA-LIGAND FREE ENERGY PREDICTED BY IDOCK:   -1.94 KCAL/MOL
REMARK 927      BINDING AFFINITY PREDICTED BY RF-SCORE:    0.00 PKD
ROOT
HETATM    1  C   UNL     1      -6.234   8.580  73.443  1.00  0.00    -0.117 C  
HETATM    2  C   UNL     1      -7.047   7.297  73.492  1.00  0.00    -0.079 C  
ENDROOT
BRANCH   2   3
HETATM    3  C   UNL     1      -6.199   6.129  73.987  1.00  0.00    -0.065 C  
BRANCH   3   4
HETATM    4  C   UNL     1      -5.977   5.103  72.879  1.00  0.00    -0.026 C  
BRANCH   4   5
HETATM    5  C   UNL     1      -7.308   4.550  72.379  1.00  0.00    -0.081 C  
BRANCH   5   6
HETATM    6  C   UNL     1      -7.827   3.460  73.310  1.00  0.00    -0.069 C  
BRANCH   6   7
HETATM    7  C   UNL     1      -9.349   3.487  73.375  1.00  0.00    -0.116 C  
BRANCH   7   8
HETATM    8  C   UNL     1      -9.922   4.261  72.195  1.00  0.00    -0.246 C  
BRANCH   8   9
HETATM    9  C   UNL     1      -9.708   3.494  70.896  1.00  0.00    -0.213 C  
BRANCH   9  10
HETATM   10  C   UNL     1     -10.018   4.378  69.696  1.00  0.00    -0.209 C  
BRANCH  10  11
HETATM   11  C   UNL     1     -10.026   5.845  70.102  1.00  0.00    -0.247 C  
BRANCH  11  12
HETATM   12  C   UNL     1     -11.400   6.456  69.866  1.00  0.00    -0.500 C  
BRANCH  12  13
HETATM   13  C   UNL     1     -11.710   7.496  70.930  1.00  0.00    -0.307 C  
BRANCH  13  14
HETATM   14  C   UNL     1     -10.439   7.912  71.660  1.00  0.00    -0.255 C  
BRANCH  14  15
HETATM   15  C   UNL     1     -10.163   9.393  71.449  1.00  0.00    -0.297 C  
BRANCH  15  16
HETATM   16  C   UNL     1      -9.156   9.596  70.325  1.00  0.00    -0.272 C  
BRANCH  16  17
HETATM   17  C   UNL     1      -9.870   9.888  69.010  1.00  0.00    -0.193 C  
BRANCH  17  18
HETATM   18  C   UNL     1     -10.992  10.898  69.220  1.00  0.00    -0.295 C  
BRANCH  18  19
HETATM   19  C   UNL     1     -11.134  11.811  68.006  1.00  0.00    -0.297 C  
BRANCH  19  20
HETATM   20  C   UNL     1     -11.915  13.070  68.367  1.00  0.00    -0.309 C  
BRANCH  20  21
HETATM   21  C   UNL     1     -12.109  13.180  69.874  1.00  0.00    -0.357 C  
BRANCH  21  22
HETATM   22  C   UNL     1     -12.112  14.635  70.326  1.00  0.00    -0.319 C  
HETATM   23  O   UNL     1     -12.970  14.788  71.449  1.00  0.00    -0.304 OA 
HETATM   24  H   UNL     1     -12.972  15.695  71.731  1.00  0.00     0.000 HD 
ENDBRANCH  21  22
ENDBRANCH  20  21
ENDBRANCH  19  20
ENDBRANCH  18  19
ENDBRANCH  17  18
ENDBRANCH  16  17
ENDBRANCH  15  16
ENDBRANCH  14  15
ENDBRANCH  13  14
ENDBRANCH  12  13
ENDBRANCH  11  12
ENDBRANCH  10  11
ENDBRANCH   9  10
ENDBRANCH   8   9
ENDBRANCH   7   8
ENDBRANCH   6   7
ENDBRANCH   5   6
ENDBRANCH   4   5
ENDBRANCH   3   4
ENDBRANCH   2   3
TORSDOF 20
ENDMDL
MODEL      458
REMARK 921   NORMALIZED FREE ENERGY PREDICTED BY IDOCK:   -1.96 KCAL/MOL
REMARK 922        TOTAL FREE ENERGY PREDICTED BY IDOCK:   -7.12 KCAL/MOL
REMARK 923 INTER-LIGAND FREE ENERGY PREDICTED BY IDOCK:   -5.07 KCAL/MOL
REMARK 924 INTRA-LIGAND FREE ENERGY PREDICTED BY IDOCK:   -2.04 KCAL/MOL
REMARK 927      BINDING AFFINITY PREDICTED BY RF-SCORE:    0.00 PKD
ROOT
HETATM    1  C   UNL     1     -10.828  13.133  64.081  1.00  0.00    -0.407 C  
HETATM    2  C   UNL     1     -11.997  12.741  64.969  1.00  0.00    -0.456 C  
ENDROOT
BRANCH   2   3
HETATM    3  C   UNL     1     -12.445  13.913  65.837  1.00  0.00    -0.519 C  
BRANCH   3   4
HETATM    4  C   UNL     1     -12.157  13.647  67.312  1.00  0.00    -0.385 C  
BRANCH   4   5
HETATM    5  C   UNL     1     -11.780  12.186  67.534  1.00  0.00    -0.385 C  
BRANCH   5   6
HETATM    6  C   UNL     1     -10.856  12.040  68.739  1.00  0.00    -0.267 C  
BRANCH   6   7
HETATM    7  C   UNL     1      -9.435  11.721  68.292  1.00  0.00    -0.193 C  
BRANCH   7   8
HETATM    8  C   UNL     1      -9.109  10.255  68.546  1.00  0.00    -0.138 C  
BRANCH   8   9
HETATM    9  C   UNL     1      -7.757   9.894  67.945  1.00  0.00    -0.090 C  
BRANCH   9  10
HETATM   10  C   UNL     1      -7.935   8.984  66.738  1.00  0.00    -0.107 C  
BRANCH  10  11
HETATM   11  C   UNL     1      -8.036   7.530  67.176  1.00  0.00    -0.117 C  
BRANCH  11  12
HETATM   12  C   UNL     1      -6.741   7.081  67.838  1.00  0.00    -0.065 C  
BRANCH  12  13
HETATM   13  C   UNL     1      -6.301   5.733  67.287  1.00  0.00    -0.042 C  
BRANCH  13  14
HETATM   14  C   UNL     1      -5.941   4.783  68.421  1.00  0.00    -0.026 C  
BRANCH  14  15
HETATM   15  C   UNL     1      -7.132   3.910  68.785  1.00  0.00    -0.051 C  
BRANCH  15  16
HETATM   16  C   UNL     1      -7.883   3.478  67.532  1.00  0.00    -0.078 C  
BRANCH  16  17
HETATM   17  C   UNL     1      -9.388   3.592  67.740  1.00  0.00    -0.242 C  
BRANCH  17  18
HETATM   18  C   UNL     1      -9.705   3.944  69.188  1.00  0.00    -0.143 C  
BRANCH  18  19
HETATM   19  C   UNL     1     -10.518   5.232  69.268  1.00  0.00    -0.255 C  
BRANCH  19  20
HETATM   20  C   UNL     1     -10.626   5.714  70.711  1.00  0.00    -0.335 C  
BRANCH  20  21
HETATM   21  C   UNL     1     -10.190   7.169  70.836  1.00  0.00    -0.207 C  
BRANCH  21  22
HETATM   22  C   UNL     1     -11.143   7.957  71.725  1.00  0.00    -0.253 C  
HETATM   23  O   UNL     1     -11.136   9.326  71.344  1.00  0.00    -0.313 OA 
HETATM   24  H   UNL     1     -11.730   9.818  71.899  1.00  0.00     0.000 HD 
ENDBRANCH  21  22
ENDBRANCH  20  21
ENDBRANCH  19  20
ENDBRANCH  18  19
ENDBRANCH  17  18
ENDBRANCH  16  17
ENDBRANCH  15  16
ENDBRANCH  14  15
ENDBRANCH  13  14
ENDBRANCH  12  13
ENDBRANCH  11  12
ENDBRANCH  10  11
ENDBRANCH   9  10
ENDBRANCH   8   9
ENDBRANCH   7   8
ENDBRANCH   6   7
ENDBRANCH   5   6
ENDBRANCH   4   5
ENDBRANCH   3   4
ENDBRANCH   2   3
TORSDOF 20
ENDMDL
MODEL      459
REMARK 921   NORMALIZED FREE ENERGY PREDICTED BY IDOCK:   -1.93 KCAL/MOL
REMARK 922        TOTAL FREE ENERGY PREDICTED BY IDOCK:   -7.06 KCAL/MOL
REMARK 923 INTER-LIGAND FREE ENERGY PREDICTED BY IDOCK:   -5.35 KCAL/MOL
REMARK 924 INTRA-LIGAND FREE ENERGY PREDICTED BY IDOCK:   -1.71 KCAL/MOL
REMARK 927      BINDING AFFINITY PREDICTED BY RF-SCORE:    0.00 PKD
ROOT
HETATM    1  C   UNL     1      -5.837  14.691  72.115  1.00  0.00     0.242 C  
HETATM    2  C   UNL     1      -5.125  14.860  70.784  1.00  0.00    -0.127 C  
ENDROOT
BRANCH   2   3
HETATM    3  C   UNL     1      -5.538  16.161  70.102  1.00  0.00    -0.170 C  
BRANCH   3   4
HETATM    4  C   UNL     1      -6.983  16.094  69.616  1.00  0.00    -0.112 C  
BRANCH   4   5
HETATM    5  C   UNL     1      -7.103  16.648  68.200  1.00  0.00    -0.157 C  
BRANCH   5   6
HETATM    6  C   UNL     1      -7.764  15.633  67.274  1.00  0.00    -0.239 C  
BRANCH   6   7
HETATM    7  C   UNL     1      -8.785  14.796  68.034  1.00  0.00    -0.168 C  
BRANCH   7   8
HETATM    8  C   UNL     1     -10.193  15.332  67.807  1.00  0.00    -0.237 C  
BRANCH   8   9
HETATM    9  C   UNL     1     -11.167  14.189  67.552  1.00  0.00    -0.323 C  
BRANCH   9  10
HETATM   10  C   UNL     1     -10.571  13.186  66.575  1.00  0.00    -0.290 C  
BRANCH  10  11
HETATM   11  C   UNL     1     -11.386  11.900  66.566  1.00  0.00    -0.403 C  
BRANCH  11  12
HETATM   12  C   UNL     1     -10.470  10.689  66.670  1.00  0.00    -0.296 C  
BRANCH  12  13
HETATM   13  C   UNL     1     -10.951   9.751  67.766  1.00  0.00    -0.242 C  
BRANCH  13  14
HETATM   14  C   UNL     1     -10.282  10.090  69.092  1.00  0.00    -0.224 C  
BRANCH  14  15
HETATM   15  C   UNL     1     -11.328  10.375  70.159  1.00  0.00    -0.397 C  
BRANCH  15  16
HETATM   16  C   UNL     1     -11.156   9.433  71.343  1.00  0.00    -0.450 C  
BRANCH  16  17
HETATM   17  C   UNL     1     -12.302   8.430  71.404  1.00  0.00    -0.328 C  
BRANCH  17  18
HETATM   18  C   UNL     1     -11.767   7.003  71.445  1.00  0.00    -0.344 C  
BRANCH  18  19
HETATM   19  C   UNL     1     -11.611   6.441  70.037  1.00  0.00    -0.446 C  
BRANCH  19  20
HETATM   20  C   UNL     1     -10.138   6.350  69.652  1.00  0.00    -0.209 C  
BRANCH  20  21
HETATM   21  C   UNL     1      -9.632   4.917  69.761  1.00  0.00    -0.243 C  
BRANCH  21  22
HETATM   22  C   UNL     1      -8.296   4.746  69.049  1.00  0.00    -0.081 C  
HETATM   23  O   UNL     1      -8.507   4.660  67.646  1.00  0.00    -0.103 OA 
HETATM   24  H   UNL     1      -7.674   4.554  67.202  1.00  0.00     0.000 HD 
ENDBRANCH  21  22
ENDBRANCH  20  21
ENDBRANCH  19  20
ENDBRANCH  18  19
ENDBRANCH  17  18
ENDBRANCH  16  17
ENDBRANCH  15  16
ENDBRANCH  14  15
ENDBRANCH  13  14
ENDBRANCH  12  13
ENDBRANCH  11  12
ENDBRANCH  10  11
ENDBRANCH   9  10
ENDBRANCH   8   9
ENDBRANCH   7   8
ENDBRANCH   6   7
ENDBRANCH   5   6
ENDBRANCH   4   5
ENDBRANCH   3   4
ENDBRANCH   2   3
TORSDOF 20
ENDMDL
MODEL      460
REMARK 921   NORMALIZED FREE ENERGY PREDICTED BY IDOCK:   -1.92 KCAL/MOL
REMARK 922        TOTAL FREE ENERGY PREDICTED BY IDOCK:   -7.04 KCAL/MOL
REMARK 923 INTER-LIGAND FREE ENERGY PREDICTED BY IDOCK:   -4.04 KCAL/MOL
REMARK 924 INTRA-LIGAND FREE ENERGY PREDICTED BY IDOCK:   -3.00 KCAL/MOL
REMARK 927      BINDING AFFINITY PREDICTED BY RF-SCORE:    0.00 PKD
ROOT
HETATM    1  C   UNL     1     -10.063   3.740  64.463  1.00  0.00    -0.212 C  
HETATM    2  C   UNL     1      -9.554   4.450  65.706  1.00  0.00    -0.188 C  
ENDROOT
BRANCH   2   3
HETATM    3  C   UNL     1     -10.712   4.957  66.562  1.00  0.00    -0.120 C  
BRANCH   3   4
HETATM    4  C   UNL     1     -10.478   6.398  67.006  1.00  0.00    -0.349 C  
BRANCH   4   5
HETATM    5  C   UNL     1      -9.214   6.963  66.364  1.00  0.00    -0.186 C  
BRANCH   5   6
HETATM    6  C   UNL     1      -8.119   7.162  67.407  1.00  0.00    -0.112 C  
BRANCH   6   7
HETATM    7  C   UNL     1      -6.802   6.565  66.925  1.00  0.00    -0.066 C  
BRANCH   7   8
HETATM    8  C   UNL     1      -6.479   5.290  67.693  1.00  0.00    -0.048 C  
BRANCH   8   9
HETATM    9  C   UNL     1      -7.396   5.144  68.900  1.00  0.00    -0.065 C  
BRANCH   9  10
HETATM   10  C   UNL     1      -7.927   3.721  68.998  1.00  0.00    -0.062 C  
BRANCH  10  11
HETATM   11  C   UNL     1      -9.309   3.709  69.636  1.00  0.00    -0.243 C  
BRANCH  11  12
HETATM   12  C   UNL     1      -9.353   2.723  70.794  1.00  0.00    -0.221 C  
BRANCH  12  13
HETATM   13  C   UNL     1      -9.267   3.457  72.123  1.00  0.00    -0.166 C  
BRANCH  13  14
HETATM   14  C   UNL     1     -10.638   3.531  72.784  1.00  0.00    -0.176 C  
BRANCH  14  15
HETATM   15  C   UNL     1     -10.894   4.929  73.327  1.00  0.00    -0.355 C  
BRANCH  15  16
HETATM   16  C   UNL     1     -11.969   5.633  72.510  1.00  0.00    -0.130 C  
BRANCH  16  17
HETATM   17  C   UNL     1     -11.542   7.057  72.173  1.00  0.00    -0.320 C  
BRANCH  17  18
HETATM   18  C   UNL     1     -10.449   7.053  71.111  1.00  0.00    -0.229 C  
BRANCH  18  19
HETATM   19  C   UNL     1      -9.526   8.255  71.278  1.00  0.00    -0.219 C  
BRANCH  19  20
HETATM   20  C   UNL     1      -9.155   8.451  72.744  1.00  0.00    -0.299 C  
BRANCH  20  21
HETATM   21  C   UNL     1      -7.850   7.738  73.078  1.00  0.00    -0.156 C  
BRANCH  21  22
HETATM   22  C   UNL     1      -7.000   7.530  71.831  1.00  0.00    -0.062 C  
HETATM   23  O   UNL     1      -6.615   6.165  71.734  1.00  0.00    -0.052 OA 
HETATM   24  H   UNL     1      -6.084   6.035  70.957  1.00  0.00     0.000 HD 
ENDBRANCH  21  22
ENDBRANCH  20  21
ENDBRANCH  19  20
ENDBRANCH  18  19
ENDBRANCH  17  18
ENDBRANCH  16  17
ENDBRANCH  15  16
ENDBRANCH  14  15
ENDBRANCH  13  14
ENDBRANCH  12  13
ENDBRANCH  11  12
ENDBRANCH  10  11
ENDBRANCH   9  10
ENDBRANCH   8   9
ENDBRANCH   7   8
ENDBRANCH   6   7
ENDBRANCH   5   6
ENDBRANCH   4   5
ENDBRANCH   3   4
ENDBRANCH   2   3
TORSDOF 20
ENDMDL
MODEL      461
REMARK 921   NORMALIZED FREE ENERGY PREDICTED BY IDOCK:   -1.92 KCAL/MOL
REMARK 922        TOTAL FREE ENERGY PREDICTED BY IDOCK:   -7.03 KCAL/MOL
REMARK 923 INTER-LIGAND FREE ENERGY PREDICTED BY IDOCK:   -4.43 KCAL/MOL
REMARK 924 INTRA-LIGAND FREE ENERGY PREDICTED BY IDOCK:   -2.60 KCAL/MOL
REMARK 927      BINDING AFFINITY PREDICTED BY RF-SCORE:    0.00 PKD
ROOT
HETATM    1  C   UNL     1     -12.596   9.355  71.587  1.00  0.00    -0.460 C  
HETATM    2  C   UNL     1     -11.793   8.528  72.575  1.00  0.00    -0.398 C  
ENDROOT
BRANCH   2   3
HETATM    3  C   UNL     1     -11.752   7.061  72.158  1.00  0.00    -0.321 C  
BRANCH   3   4
HETATM    4  C   UNL     1     -10.935   6.231  73.144  1.00  0.00    -0.251 C  
BRANCH   4   5
HETATM    5  C   UNL     1      -9.995   7.121  73.951  1.00  0.00    -0.360 C  
BRANCH   5   6
HETATM    6  C   UNL     1      -8.848   6.307  74.541  1.00  0.00    -0.155 C  
BRANCH   6   7
HETATM    7  C   UNL     1      -8.019   5.666  73.434  1.00  0.00    -0.110 C  
BRANCH   7   8
HETATM    8  C   UNL     1      -7.223   4.486  73.976  1.00  0.00    -0.073 C  
BRANCH   8   9
HETATM    9  C   UNL     1      -7.524   3.224  73.179  1.00  0.00    -0.055 C  
BRANCH   9  10
HETATM   10  C   UNL     1      -8.992   2.845  73.311  1.00  0.00    -0.089 C  
BRANCH  10  11
HETATM   11  C   UNL     1      -9.684   2.909  71.957  1.00  0.00    -0.230 C  
BRANCH  11  12
HETATM   12  C   UNL     1      -9.106   1.864  71.013  1.00  0.00    -0.148 C  
BRANCH  12  13
HETATM   13  C   UNL     1      -9.016   2.415  69.599  1.00  0.00    -0.161 C  
BRANCH  13  14
HETATM   14  C   UNL     1      -8.181   3.689  69.573  1.00  0.00    -0.069 C  
BRANCH  14  15
HETATM   15  C   UNL     1      -8.859   4.755  68.726  1.00  0.00    -0.122 C  
BRANCH  15  16
HETATM   16  C   UNL     1      -9.889   5.518  69.549  1.00  0.00    -0.253 C  
BRANCH  16  17
HETATM   17  C   UNL     1      -9.284   6.797  70.114  1.00  0.00    -0.155 C  
BRANCH  17  18
HETATM   18  C   UNL     1      -9.737   8.008  69.307  1.00  0.00    -0.167 C  
BRANCH  18  19
HETATM   19  C   UNL     1      -8.821   9.201  69.559  1.00  0.00    -0.149 C  
BRANCH  19  20
HETATM   20  C   UNL     1      -8.721  10.078  68.315  1.00  0.00    -0.119 C  
BRANCH  20  21
HETATM   21  C   UNL     1      -7.992   9.351  67.192  1.00  0.00    -0.102 C  
BRANCH  21  22
HETATM   22  C   UNL     1      -8.342   9.943  65.833  1.00  0.00    -0.123 C  
HETATM   23  O   UNL     1      -9.383   9.184  65.231  1.00  0.00    -0.358 OA 
HETATM   24  H   UNL     1      -9.601   9.553  64.383  1.00  0.00     0.000 HD 
ENDBRANCH  21  22
ENDBRANCH  20  21
ENDBRANCH  19  20
ENDBRANCH  18  19
ENDBRANCH  17  18
ENDBRANCH  16  17
ENDBRANCH  15  16
ENDBRANCH  14  15
ENDBRANCH  13  14
ENDBRANCH  12  13
ENDBRANCH  11  12
ENDBRANCH  10  11
ENDBRANCH   9  10
ENDBRANCH   8   9
ENDBRANCH   7   8
ENDBRANCH   6   7
ENDBRANCH   5   6
ENDBRANCH   4   5
ENDBRANCH   3   4
ENDBRANCH   2   3
TORSDOF 20
ENDMDL
MODEL      462
REMARK 921   NORMALIZED FREE ENERGY PREDICTED BY IDOCK:   -1.91 KCAL/MOL
REMARK 922        TOTAL FREE ENERGY PREDICTED BY IDOCK:   -7.02 KCAL/MOL
REMARK 923 INTER-LIGAND FREE ENERGY PREDICTED BY IDOCK:   -5.08 KCAL/MOL
REMARK 924 INTRA-LIGAND FREE ENERGY PREDICTED BY IDOCK:   -1.94 KCAL/MOL
REMARK 927      BINDING AFFINITY PREDICTED BY RF-SCORE:    0.00 PKD
ROOT
HETATM    1  C   UNL     1     -11.081   8.033  72.424  1.00  0.00    -0.416 C  
HETATM    2  C   UNL     1     -10.964   7.729  70.941  1.00  0.00    -0.260 C  
ENDROOT
BRANCH   2   3
HETATM    3  C   UNL     1     -11.595   8.836  70.101  1.00  0.00     0.058 C  
BRANCH   3   4
HETATM    4  C   UNL     1     -11.581  10.168  70.846  1.00  0.00    -0.459 C  
BRANCH   4   5
HETATM    5  C   UNL     1     -12.252  11.258  70.017  1.00  0.00    -0.389 C  
BRANCH   5   6
HETATM    6  C   UNL     1     -11.490  12.574  70.132  1.00  0.00    -0.007 C  
BRANCH   6   7
HETATM    7  C   UNL     1     -12.369  13.744  69.707  1.00  0.00    -0.311 C  
BRANCH   7   8
HETATM    8  C   UNL     1     -11.514  14.914  69.237  1.00  0.00    -0.324 C  
BRANCH   8   9
HETATM    9  C   UNL     1     -10.682  14.517  68.025  1.00  0.00    -0.243 C  
BRANCH   9  10
HETATM   10  C   UNL     1     -11.521  14.581  66.756  1.00  0.00    -0.376 C  
BRANCH  10  11
HETATM   11  C   UNL     1     -10.786  13.924  65.596  1.00  0.00    -0.292 C  
BRANCH  11  12
HETATM   12  C   UNL     1     -10.909  12.409  65.676  1.00  0.00    -0.312 C  
BRANCH  12  13
HETATM   13  C   UNL     1      -9.597  11.791  66.132  1.00  0.00    -0.250 C  
BRANCH  13  14
HETATM   14  C   UNL     1      -9.768  11.106  67.482  1.00  0.00    -0.193 C  
BRANCH  14  15
HETATM   15  C   UNL     1      -9.046   9.767  67.496  1.00  0.00    -0.142 C  
BRANCH  15  16
HETATM   16  C   UNL     1      -8.683   9.339  66.081  1.00  0.00    -0.169 C  
BRANCH  16  17
HETATM   17  C   UNL     1      -9.126   7.904  65.822  1.00  0.00    -0.084 C  
BRANCH  17  18
HETATM   18  C   UNL     1      -8.633   6.981  66.930  1.00  0.00    -0.120 C  
BRANCH  18  19
HETATM   19  C   UNL     1      -9.403   5.665  66.923  1.00  0.00    -0.129 C  
BRANCH  19  20
HETATM   20  C   UNL     1      -8.883   4.741  65.827  1.00  0.00    -0.131 C  
BRANCH  20  21
HETATM   21  C   UNL     1     -10.031   4.031  65.119  1.00  0.00    -0.203 C  
BRANCH  21  22
HETATM   22  C   UNL     1      -9.790   3.951  63.618  1.00  0.00    -0.165 C  
HETATM   23  O   UNL     1     -11.001   3.617  62.953  1.00  0.00    -0.161 OA 
HETATM   24  H   UNL     1     -10.851   3.567  62.016  1.00  0.00     0.000 HD 
ENDBRANCH  21  22
ENDBRANCH  20  21
ENDBRANCH  19  20
ENDBRANCH  18  19
ENDBRANCH  17  18
ENDBRANCH  16  17
ENDBRANCH  15  16
ENDBRANCH  14  15
ENDBRANCH  13  14
ENDBRANCH  12  13
ENDBRANCH  11  12
ENDBRANCH  10  11
ENDBRANCH   9  10
ENDBRANCH   8   9
ENDBRANCH   7   8
ENDBRANCH   6   7
ENDBRANCH   5   6
ENDBRANCH   4   5
ENDBRANCH   3   4
ENDBRANCH   2   3
TORSDOF 20
ENDMDL
MODEL      463
REMARK 921   NORMALIZED FREE ENERGY PREDICTED BY IDOCK:   -1.91 KCAL/MOL
REMARK 922        TOTAL FREE ENERGY PREDICTED BY IDOCK:   -7.02 KCAL/MOL
REMARK 923 INTER-LIGAND FREE ENERGY PREDICTED BY IDOCK:   -5.53 KCAL/MOL
REMARK 924 INTRA-LIGAND FREE ENERGY PREDICTED BY IDOCK:   -1.48 KCAL/MOL
REMARK 927      BINDING AFFINITY PREDICTED BY RF-SCORE:    0.00 PKD
ROOT
HETATM    1  C   UNL     1      -6.151   8.667  74.426  1.00  0.00    -0.146 C  
HETATM    2  C   UNL     1      -7.140   7.542  74.175  1.00  0.00    -0.116 C  
ENDROOT
BRANCH   2   3
HETATM    3  C   UNL     1      -6.537   6.188  74.539  1.00  0.00    -0.079 C  
BRANCH   3   4
HETATM    4  C   UNL     1      -6.186   5.388  73.288  1.00  0.00    -0.055 C  
BRANCH   4   5
HETATM    5  C   UNL     1      -7.370   5.344  72.326  1.00  0.00    -0.094 C  
BRANCH   5   6
HETATM    6  C   UNL     1      -8.355   4.251  72.728  1.00  0.00    -0.101 C  
BRANCH   6   7
HETATM    7  C   UNL     1      -9.662   4.396  71.959  1.00  0.00    -0.227 C  
BRANCH   7   8
HETATM    8  C   UNL     1      -9.390   4.714  70.494  1.00  0.00    -0.222 C  
BRANCH   8   9
HETATM    9  C   UNL     1      -9.236   3.432  69.687  1.00  0.00    -0.225 C  
BRANCH   9  10
HETATM   10  C   UNL     1      -9.569   3.679  68.222  1.00  0.00    -0.165 C  
BRANCH  10  11
HETATM   11  C   UNL     1      -9.548   5.170  67.914  1.00  0.00    -0.167 C  
BRANCH  11  12
HETATM   12  C   UNL     1     -10.584   5.510  66.852  1.00  0.00    -0.348 C  
BRANCH  12  13
HETATM   13  C   UNL     1     -10.935   6.988  66.904  1.00  0.00    -0.271 C  
BRANCH  13  14
HETATM   14  C   UNL     1      -9.979   7.733  67.828  1.00  0.00    -0.220 C  
BRANCH  14  15
HETATM   15  C   UNL     1     -10.165   9.237  67.687  1.00  0.00    -0.285 C  
BRANCH  15  16
HETATM   16  C   UNL     1      -9.101   9.824  66.769  1.00  0.00    -0.169 C  
BRANCH  16  17
HETATM   17  C   UNL     1      -9.686  10.135  65.397  1.00  0.00    -0.355 C  
BRANCH  17  18
HETATM   18  C   UNL     1     -11.027  10.846  65.533  1.00  0.00    -0.024 C  
BRANCH  18  19
HETATM   19  C   UNL     1     -11.171  11.940  64.482  1.00  0.00    -0.380 C  
BRANCH  19  20
HETATM   20  C   UNL     1     -12.422  12.774  64.738  1.00  0.00    -0.539 C  
BRANCH  20  21
HETATM   21  C   UNL     1     -12.085  14.039  65.518  1.00  0.00    -0.423 C  
BRANCH  21  22
HETATM   22  C   UNL     1     -11.840  15.217  64.584  1.00  0.00    -0.332 C  
HETATM   23  O   UNL     1     -10.459  15.551  64.583  1.00  0.00    -0.588 OA 
HETATM   24  H   UNL     1     -10.306  16.286  64.000  1.00  0.00     0.000 HD 
ENDBRANCH  21  22
ENDBRANCH  20  21
ENDBRANCH  19  20
ENDBRANCH  18  19
ENDBRANCH  17  18
ENDBRANCH  16  17
ENDBRANCH  15  16
ENDBRANCH  14  15
ENDBRANCH  13  14
ENDBRANCH  12  13
ENDBRANCH  11  12
ENDBRANCH  10  11
ENDBRANCH   9  10
ENDBRANCH   8   9
ENDBRANCH   7   8
ENDBRANCH   6   7
ENDBRANCH   5   6
ENDBRANCH   4   5
ENDBRANCH   3   4
ENDBRANCH   2   3
TORSDOF 20
ENDMDL
MODEL      464
REMARK 921   NORMALIZED FREE ENERGY PREDICTED BY IDOCK:   -1.91 KCAL/MOL
REMARK 922        TOTAL FREE ENERGY PREDICTED BY IDOCK:   -7.01 KCAL/MOL
REMARK 923 INTER-LIGAND FREE ENERGY PREDICTED BY IDOCK:   -5.24 KCAL/MOL
REMARK 924 INTRA-LIGAND FREE ENERGY PREDICTED BY IDOCK:   -1.77 KCAL/MOL
REMARK 927      BINDING AFFINITY PREDICTED BY RF-SCORE:    0.00 PKD
ROOT
HETATM    1  C   UNL     1     -10.799  13.071  64.215  1.00  0.00    -0.430 C  
HETATM    2  C   UNL     1     -11.866  12.543  65.158  1.00  0.00    -0.450 C  
ENDROOT
BRANCH   2   3
HETATM    3  C   UNL     1     -12.380  13.645  66.080  1.00  0.00    -0.493 C  
BRANCH   3   4
HETATM    4  C   UNL     1     -12.078  13.325  67.541  1.00  0.00    -0.312 C  
BRANCH   4   5
HETATM    5  C   UNL     1     -11.778  11.840  67.718  1.00  0.00    -0.337 C  
BRANCH   5   6
HETATM    6  C   UNL     1     -11.090  11.580  69.053  1.00  0.00    -0.302 C  
BRANCH   6   7
HETATM    7  C   UNL     1      -9.713  10.963  68.839  1.00  0.00    -0.198 C  
BRANCH   7   8
HETATM    8  C   UNL     1      -9.657   9.559  69.426  1.00  0.00    -0.186 C  
BRANCH   8   9
HETATM    9  C   UNL     1     -10.859   9.306  70.326  1.00  0.00    -0.286 C  
BRANCH   9  10
HETATM   10  C   UNL     1     -10.414   9.105  71.768  1.00  0.00    -0.361 C  
BRANCH  10  11
HETATM   11  C   UNL     1     -10.079   7.643  72.024  1.00  0.00    -0.233 C  
BRANCH  11  12
HETATM   12  C   UNL     1     -11.314   6.772  71.845  1.00  0.00    -0.306 C  
BRANCH  12  13
HETATM   13  C   UNL     1     -11.483   5.837  73.032  1.00  0.00    -0.199 C  
BRANCH  13  14
HETATM   14  C   UNL     1     -11.407   4.383  72.583  1.00  0.00     0.101 C  
BRANCH  14  15
HETATM   15  C   UNL     1      -9.959   3.956  72.398  1.00  0.00    -0.232 C  
BRANCH  15  16
HETATM   16  C   UNL     1      -9.046   4.740  73.332  1.00  0.00    -0.110 C  
BRANCH  16  17
HETATM   17  C   UNL     1      -7.825   5.259  72.581  1.00  0.00    -0.099 C  
BRANCH  17  18
HETATM   18  C   UNL     1      -7.807   4.727  71.153  1.00  0.00    -0.083 C  
BRANCH  18  19
HETATM   19  C   UNL     1      -7.791   5.874  70.148  1.00  0.00    -0.100 C  
BRANCH  19  20
HETATM   20  C   UNL     1      -7.981   5.350  68.728  1.00  0.00    -0.087 C  
BRANCH  20  21
HETATM   21  C   UNL     1      -9.134   6.062  68.032  1.00  0.00    -0.117 C  
BRANCH  21  22
HETATM   22  C   UNL     1      -8.766   6.446  66.605  1.00  0.00    -0.127 C  
HETATM   23  O   UNL     1      -9.473   7.620  66.225  1.00  0.00    -0.295 OA 
HETATM   24  H   UNL     1      -9.244   7.859  65.335  1.00  0.00     0.000 HD 
ENDBRANCH  21  22
ENDBRANCH  20  21
ENDBRANCH  19  20
ENDBRANCH  18  19
ENDBRANCH  17  18
ENDBRANCH  16  17
ENDBRANCH  15  16
ENDBRANCH  14  15
ENDBRANCH  13  14
ENDBRANCH  12  13
ENDBRANCH  11  12
ENDBRANCH  10  11
ENDBRANCH   9  10
ENDBRANCH   8   9
ENDBRANCH   7   8
ENDBRANCH   6   7
ENDBRANCH   5   6
ENDBRANCH   4   5
ENDBRANCH   3   4
ENDBRANCH   2   3
TORSDOF 20
ENDMDL
MODEL      465
REMARK 921   NORMALIZED FREE ENERGY PREDICTED BY IDOCK:   -1.91 KCAL/MOL
REMARK 922        TOTAL FREE ENERGY PREDICTED BY IDOCK:   -7.01 KCAL/MOL
REMARK 923 INTER-LIGAND FREE ENERGY PREDICTED BY IDOCK:   -4.22 KCAL/MOL
REMARK 924 INTRA-LIGAND FREE ENERGY PREDICTED BY IDOCK:   -2.79 KCAL/MOL
REMARK 927      BINDING AFFINITY PREDICTED BY RF-SCORE:    0.00 PKD
ROOT
HETATM    1  C   UNL     1      -8.346   4.642  72.056  1.00  0.00    -0.117 C  
HETATM    2  C   UNL     1      -7.065   5.132  71.402  1.00  0.00    -0.061 C  
ENDROOT
BRANCH   2   3
HETATM    3  C   UNL     1      -7.225   6.555  70.877  1.00  0.00    -0.071 C  
BRANCH   3   4
HETATM    4  C   UNL     1      -6.816   6.650  69.410  1.00  0.00    -0.065 C  
BRANCH   4   5
HETATM    5  C   UNL     1      -6.548   5.263  68.834  1.00  0.00    -0.051 C  
BRANCH   5   6
HETATM    6  C   UNL     1      -7.417   5.008  67.606  1.00  0.00    -0.079 C  
BRANCH   6   7
HETATM    7  C   UNL     1      -8.816   5.574  67.811  1.00  0.00    -0.105 C  
BRANCH   7   8
HETATM    8  C   UNL     1      -9.122   6.639  66.765  1.00  0.00    -0.154 C  
BRANCH   8   9
HETATM    9  C   UNL     1      -8.408   6.326  65.456  1.00  0.00    -0.147 C  
BRANCH   9  10
HETATM   10  C   UNL     1      -7.494   7.475  65.058  1.00  0.00    -0.084 C  
BRANCH  10  11
HETATM   11  C   UNL     1      -7.723   8.678  65.962  1.00  0.00    -0.100 C  
BRANCH  11  12
HETATM   12  C   UNL     1      -8.365   9.817  65.182  1.00  0.00    -0.146 C  
BRANCH  12  13
HETATM   13  C   UNL     1      -9.874   9.809  65.374  1.00  0.00    -0.365 C  
BRANCH  13  14
HETATM   14  C   UNL     1     -10.336  11.098  66.041  1.00  0.00    -0.308 C  
BRANCH  14  15
HETATM   15  C   UNL     1      -9.292  11.590  67.032  1.00  0.00    -0.185 C  
BRANCH  15  16
HETATM   16  C   UNL     1      -9.702  11.243  68.458  1.00  0.00    -0.199 C  
BRANCH  16  17
HETATM   17  C   UNL     1      -9.061   9.932  68.898  1.00  0.00    -0.156 C  
BRANCH  17  18
HETATM   18  C   UNL     1      -9.302   9.688  70.383  1.00  0.00    -0.268 C  
BRANCH  18  19
HETATM   19  C   UNL     1     -10.793   9.706  70.701  1.00  0.00    -0.386 C  
BRANCH  19  20
HETATM   20  C   UNL     1     -11.437   8.370  70.346  1.00  0.00    -0.129 C  
BRANCH  20  21
HETATM   21  C   UNL     1     -10.645   7.209  70.935  1.00  0.00    -0.238 C  
BRANCH  21  22
HETATM   22  C   UNL     1     -11.495   6.392  71.899  1.00  0.00    -0.304 C  
HETATM   23  O   UNL     1     -12.723   7.065  72.146  1.00  0.00    -0.504 OA 
HETATM   24  H   UNL     1     -13.253   6.555  72.747  1.00  0.00     0.000 HD 
ENDBRANCH  21  22
ENDBRANCH  20  21
ENDBRANCH  19  20
ENDBRANCH  18  19
ENDBRANCH  17  18
ENDBRANCH  16  17
ENDBRANCH  15  16
ENDBRANCH  14  15
ENDBRANCH  13  14
ENDBRANCH  12  13
ENDBRANCH  11  12
ENDBRANCH  10  11
ENDBRANCH   9  10
ENDBRANCH   8   9
ENDBRANCH   7   8
ENDBRANCH   6   7
ENDBRANCH   5   6
ENDBRANCH   4   5
ENDBRANCH   3   4
ENDBRANCH   2   3
TORSDOF 20
ENDMDL
MODEL      466
REMARK 921   NORMALIZED FREE ENERGY PREDICTED BY IDOCK:   -1.91 KCAL/MOL
REMARK 922        TOTAL FREE ENERGY PREDICTED BY IDOCK:   -7.00 KCAL/MOL
REMARK 923 INTER-LIGAND FREE ENERGY PREDICTED BY IDOCK:   -5.59 KCAL/MOL
REMARK 924 INTRA-LIGAND FREE ENERGY PREDICTED BY IDOCK:   -1.42 KCAL/MOL
REMARK 927      BINDING AFFINITY PREDICTED BY RF-SCORE:    0.00 PKD
ROOT
HETATM    1  C   UNL     1      -6.971   3.472  64.391  1.00  0.00    -0.053 C  
HETATM    2  C   UNL     1      -7.591   4.826  64.093  1.00  0.00    -0.072 C  
ENDROOT
BRANCH   2   3
HETATM    3  C   UNL     1      -7.035   5.902  65.022  1.00  0.00    -0.059 C  
BRANCH   3   4
HETATM    4  C   UNL     1      -6.972   5.406  66.463  1.00  0.00    -0.064 C  
BRANCH   4   5
HETATM    5  C   UNL     1      -6.752   6.569  67.426  1.00  0.00    -0.067 C  
BRANCH   5   6
HETATM    6  C   UNL     1      -7.653   7.746  67.070  1.00  0.00    -0.100 C  
BRANCH   6   7
HETATM    7  C   UNL     1      -7.989   8.562  68.312  1.00  0.00    -0.114 C  
BRANCH   7   8
HETATM    8  C   UNL     1      -9.152   7.932  69.068  1.00  0.00    -0.144 C  
BRANCH   8   9
HETATM    9  C   UNL     1     -10.368   8.849  69.042  1.00  0.00    -0.226 C  
BRANCH   9  10
HETATM   10  C   UNL     1      -9.991  10.222  68.505  1.00  0.00    -0.177 C  
BRANCH  10  11
HETATM   11  C   UNL     1     -10.871  10.592  67.320  1.00  0.00    -0.338 C  
BRANCH  11  12
HETATM   12  C   UNL     1     -10.087  11.420  66.311  1.00  0.00    -0.263 C  
BRANCH  12  13
HETATM   13  C   UNL     1      -9.555  12.687  66.962  1.00  0.00    -0.219 C  
BRANCH  13  14
HETATM   14  C   UNL     1     -10.631  13.764  66.995  1.00  0.00    -0.278 C  
BRANCH  14  15
HETATM   15  C   UNL     1     -10.035  15.102  67.408  1.00  0.00    -0.226 C  
BRANCH  15  16
HETATM   16  C   UNL     1      -8.836  15.446  66.533  1.00  0.00    -0.347 C  
BRANCH  16  17
HETATM   17  C   UNL     1      -8.899  16.901  66.082  1.00  0.00    -0.279 C  
BRANCH  17  18
HETATM   18  C   UNL     1     -10.346  17.347  65.907  1.00  0.00    -0.276 C  
BRANCH  18  19
HETATM   19  C   UNL     1     -10.484  18.847  66.143  1.00  0.00    -0.521 C  
BRANCH  19  20
HETATM   20  C   UNL     1      -9.129  19.469  66.465  1.00  0.00    -0.416 C  
BRANCH  20  21
HETATM   21  C   UNL     1      -9.098  20.004  67.892  1.00  0.00    -0.377 C  
BRANCH  21  22
HETATM   22  C   UNL     1     -10.059  19.236  68.790  1.00  0.00    -0.401 C  
HETATM   23  O   UNL     1     -10.374  20.017  69.936  1.00  0.00    -0.572 OA 
HETATM   24  H   UNL     1     -10.973  19.538  70.496  1.00  0.00     0.000 HD 
ENDBRANCH  21  22
ENDBRANCH  20  21
ENDBRANCH  19  20
ENDBRANCH  18  19
ENDBRANCH  17  18
ENDBRANCH  16  17
ENDBRANCH  15  16
ENDBRANCH  14  15
ENDBRANCH  13  14
ENDBRANCH  12  13
ENDBRANCH  11  12
ENDBRANCH  10  11
ENDBRANCH   9  10
ENDBRANCH   8   9
ENDBRANCH   7   8
ENDBRANCH   6   7
ENDBRANCH   5   6
ENDBRANCH   4   5
ENDBRANCH   3   4
ENDBRANCH   2   3
TORSDOF 20
ENDMDL
MODEL      467
REMARK 921   NORMALIZED FREE ENERGY PREDICTED BY IDOCK:   -1.91 KCAL/MOL
REMARK 922        TOTAL FREE ENERGY PREDICTED BY IDOCK:   -7.00 KCAL/MOL
REMARK 923 INTER-LIGAND FREE ENERGY PREDICTED BY IDOCK:   -4.50 KCAL/MOL
REMARK 924 INTRA-LIGAND FREE ENERGY PREDICTED BY IDOCK:   -2.50 KCAL/MOL
REMARK 927      BINDING AFFINITY PREDICTED BY RF-SCORE:    0.00 PKD
ROOT
HETATM    1  C   UNL     1     -10.772   4.617  65.514  1.00  0.00    -0.176 C  
HETATM    2  C   UNL     1      -9.455   4.926  66.206  1.00  0.00    -0.160 C  
ENDROOT
BRANCH   2   3
HETATM    3  C   UNL     1      -9.596   6.117  67.149  1.00  0.00    -0.139 C  
BRANCH   3   4
HETATM    4  C   UNL     1      -8.913   7.356  66.576  1.00  0.00    -0.184 C  
BRANCH   4   5
HETATM    5  C   UNL     1      -7.583   6.987  65.925  1.00  0.00    -0.097 C  
BRANCH   5   6
HETATM    6  C   UNL     1      -6.465   6.946  66.961  1.00  0.00    -0.046 C  
BRANCH   6   7
HETATM    7  C   UNL     1      -5.901   5.536  67.089  1.00  0.00    -0.018 C  
BRANCH   7   8
HETATM    8  C   UNL     1      -6.303   4.917  68.422  1.00  0.00    -0.036 C  
BRANCH   8   9
HETATM    9  C   UNL     1      -6.565   6.001  69.459  1.00  0.00    -0.044 C  
BRANCH   9  10
HETATM   10  C   UNL     1      -7.805   5.670  70.277  1.00  0.00    -0.098 C  
BRANCH  10  11
HETATM   11  C   UNL     1      -8.502   6.945  70.731  1.00  0.00    -0.136 C  
BRANCH  11  12
HETATM   12  C   UNL     1      -8.984   6.807  72.168  1.00  0.00    -0.135 C  
BRANCH  12  13
HETATM   13  C   UNL     1      -9.566   8.122  72.662  1.00  0.00    -0.352 C  
BRANCH  13  14
HETATM   14  C   UNL     1     -11.074   8.156  72.446  1.00  0.00    -0.437 C  
BRANCH  14  15
HETATM   15  C   UNL     1     -11.439   9.191  71.393  1.00  0.00    -0.420 C  
BRANCH  15  16
HETATM   16  C   UNL     1     -11.476   8.557  70.008  1.00  0.00     0.079 C  
BRANCH  16  17
HETATM   17  C   UNL     1     -10.553   9.302  69.050  1.00  0.00    -0.225 C  
BRANCH  17  18
HETATM   18  C   UNL     1     -11.297  10.444  68.367  1.00  0.00    -0.292 C  
BRANCH  18  19
HETATM   19  C   UNL     1     -10.339  11.303  67.550  1.00  0.00    -0.224 C  
BRANCH  19  20
HETATM   20  C   UNL     1     -10.935  11.629  66.185  1.00  0.00    -0.339 C  
BRANCH  20  21
HETATM   21  C   UNL     1     -10.739  13.100  65.840  1.00  0.00    -0.287 C  
BRANCH  21  22
HETATM   22  C   UNL     1      -9.885  13.805  66.886  1.00  0.00    -0.264 C  
HETATM   23  O   UNL     1      -8.834  14.518  66.248  1.00  0.00    -0.473 OA 
HETATM   24  H   UNL     1      -8.301  14.957  66.900  1.00  0.00     0.000 HD 
ENDBRANCH  21  22
ENDBRANCH  20  21
ENDBRANCH  19  20
ENDBRANCH  18  19
ENDBRANCH  17  18
ENDBRANCH  16  17
ENDBRANCH  15  16
ENDBRANCH  14  15
ENDBRANCH  13  14
ENDBRANCH  12  13
ENDBRANCH  11  12
ENDBRANCH  10  11
ENDBRANCH   9  10
ENDBRANCH   8   9
ENDBRANCH   7   8
ENDBRANCH   6   7
ENDBRANCH   5   6
ENDBRANCH   4   5
ENDBRANCH   3   4
ENDBRANCH   2   3
TORSDOF 20
ENDMDL
MODEL      468
REMARK 921   NORMALIZED FREE ENERGY PREDICTED BY IDOCK:   -1.90 KCAL/MOL
REMARK 922        TOTAL FREE ENERGY PREDICTED BY IDOCK:   -6.99 KCAL/MOL
REMARK 923 INTER-LIGAND FREE ENERGY PREDICTED BY IDOCK:   -4.87 KCAL/MOL
REMARK 924 INTRA-LIGAND FREE ENERGY PREDICTED BY IDOCK:   -2.12 KCAL/MOL
REMARK 927      BINDING AFFINITY PREDICTED BY RF-SCORE:    0.00 PKD
ROOT
HETATM    1  C   UNL     1      -7.563   8.416  74.538  1.00  0.00    -0.275 C  
HETATM    2  C   UNL     1      -6.448   7.417  74.278  1.00  0.00    -0.081 C  
ENDROOT
BRANCH   2   3
HETATM    3  C   UNL     1      -6.760   6.550  73.061  1.00  0.00    -0.069 C  
BRANCH   3   4
HETATM    4  C   UNL     1      -6.926   7.402  71.806  1.00  0.00    -0.062 C  
BRANCH   4   5
HETATM    5  C   UNL     1      -7.206   6.524  70.591  1.00  0.00    -0.074 C  
BRANCH   5   6
HETATM    6  C   UNL     1      -7.144   5.046  70.962  1.00  0.00    -0.055 C  
BRANCH   6   7
HETATM    7  C   UNL     1      -8.296   4.282  70.321  1.00  0.00    -0.081 C  
BRANCH   7   8
HETATM    8  C   UNL     1      -9.545   5.151  70.253  1.00  0.00    -0.249 C  
BRANCH   8   9
HETATM    9  C   UNL     1     -10.045   5.260  68.819  1.00  0.00    -0.248 C  
BRANCH   9  10
HETATM   10  C   UNL     1     -10.922   6.493  68.651  1.00  0.00    -0.363 C  
BRANCH  10  11
HETATM   11  C   UNL     1     -10.929   6.949  67.199  1.00  0.00    -0.427 C  
BRANCH  11  12
HETATM   12  C   UNL     1     -10.188   8.270  67.051  1.00  0.00    -0.380 C  
BRANCH  12  13
HETATM   13  C   UNL     1      -9.043   8.130  66.059  1.00  0.00    -0.218 C  
BRANCH  13  14
HETATM   14  C   UNL     1      -7.713   8.004  66.791  1.00  0.00    -0.098 C  
BRANCH  14  15
HETATM   15  C   UNL     1      -7.588   9.080  67.860  1.00  0.00    -0.093 C  
BRANCH  15  16
HETATM   16  C   UNL     1      -7.299  10.434  67.225  1.00  0.00    -0.090 C  
BRANCH  16  17
HETATM   17  C   UNL     1      -8.040  11.543  67.962  1.00  0.00    -0.136 C  
BRANCH  17  18
HETATM   18  C   UNL     1      -8.988  12.274  67.019  1.00  0.00    -0.204 C  
BRANCH  18  19
HETATM   19  C   UNL     1      -9.519  13.549  67.666  1.00  0.00    -0.222 C  
BRANCH  19  20
HETATM   20  C   UNL     1     -10.807  13.270  68.433  1.00  0.00    -0.279 C  
BRANCH  20  21
HETATM   21  C   UNL     1     -11.440  11.960  67.979  1.00  0.00    -0.389 C  
BRANCH  21  22
HETATM   22  C   UNL     1     -12.048  11.204  69.153  1.00  0.00    -0.283 C  
HETATM   23  O   UNL     1     -11.739  11.873  70.369  1.00  0.00    -0.495 OA 
HETATM   24  H   UNL     1     -12.118  11.402  71.101  1.00  0.00     0.000 HD 
ENDBRANCH  21  22
ENDBRANCH  20  21
ENDBRANCH  19  20
ENDBRANCH  18  19
ENDBRANCH  17  18
ENDBRANCH  16  17
ENDBRANCH  15  16
ENDBRANCH  14  15
ENDBRANCH  13  14
ENDBRANCH  12  13
ENDBRANCH  11  12
ENDBRANCH  10  11
ENDBRANCH   9  10
ENDBRANCH   8   9
ENDBRANCH   7   8
ENDBRANCH   6   7
ENDBRANCH   5   6
ENDBRANCH   4   5
ENDBRANCH   3   4
ENDBRANCH   2   3
TORSDOF 20
ENDMDL
MODEL      469
REMARK 921   NORMALIZED FREE ENERGY PREDICTED BY IDOCK:   -1.90 KCAL/MOL
REMARK 922        TOTAL FREE ENERGY PREDICTED BY IDOCK:   -6.99 KCAL/MOL
REMARK 923 INTER-LIGAND FREE ENERGY PREDICTED BY IDOCK:   -6.18 KCAL/MOL
REMARK 924 INTRA-LIGAND FREE ENERGY PREDICTED BY IDOCK:   -0.81 KCAL/MOL
REMARK 927      BINDING AFFINITY PREDICTED BY RF-SCORE:    0.00 PKD
ROOT
HETATM    1  C   UNL     1     -10.819   9.758  66.736  1.00  0.00    -0.071 C  
HETATM    2  C   UNL     1      -9.928   8.893  67.611  1.00  0.00    -0.248 C  
ENDROOT
BRANCH   2   3
HETATM    3  C   UNL     1     -10.065   9.273  69.082  1.00  0.00    -0.204 C  
BRANCH   3   4
HETATM    4  C   UNL     1     -10.563   8.092  69.911  1.00  0.00    -0.239 C  
BRANCH   4   5
HETATM    5  C   UNL     1     -11.607   8.547  70.927  1.00  0.00    -0.295 C  
BRANCH   5   6
HETATM    6  C   UNL     1     -12.234   9.871  70.504  1.00  0.00    -0.260 C  
BRANCH   6   7
HETATM    7  C   UNL     1     -13.311  10.297  71.495  1.00  0.00    -0.413 C  
BRANCH   7   8
HETATM    8  C   UNL     1     -12.916  11.594  72.190  1.00  0.00    -0.211 C  
BRANCH   8   9
HETATM    9  C   UNL     1     -13.859  12.723  71.796  1.00  0.00     0.126 C  
BRANCH   9  10
HETATM   10  C   UNL     1     -13.259  14.073  72.162  1.00  0.00    -0.526 C  
BRANCH  10  11
HETATM   11  C   UNL     1     -12.653  14.738  70.935  1.00  0.00    -0.401 C  
BRANCH  11  12
HETATM   12  C   UNL     1     -11.582  13.848  70.319  1.00  0.00    -0.217 C  
BRANCH  12  13
HETATM   13  C   UNL     1     -10.874  14.573  69.186  1.00  0.00    -0.278 C  
BRANCH  13  14
HETATM   14  C   UNL     1     -10.190  15.833  69.701  1.00  0.00    -0.289 C  
BRANCH  14  15
HETATM   15  C   UNL     1     -10.758  17.067  69.015  1.00  0.00    -0.271 C  
BRANCH  15  16
HETATM   16  C   UNL     1      -9.819  18.254  69.185  1.00  0.00    -0.174 C  
BRANCH  16  17
HETATM   17  C   UNL     1     -10.296  19.440  68.355  1.00  0.00    -0.461 C  
BRANCH  17  18
HETATM   18  C   UNL     1     -10.216  19.121  66.867  1.00  0.00    -0.480 C  
BRANCH  18  19
HETATM   19  C   UNL     1      -8.869  19.546  66.293  1.00  0.00    -0.391 C  
BRANCH  19  20
HETATM   20  C   UNL     1      -8.112  18.341  65.744  1.00  0.00     0.180 C  
BRANCH  20  21
HETATM   21  C   UNL     1      -8.286  17.128  66.650  1.00  0.00    -0.291 C  
BRANCH  21  22
HETATM   22  C   UNL     1      -8.916  15.963  65.899  1.00  0.00    -0.216 C  
HETATM   23  O   UNL     1     -10.087  16.403  65.223  1.00  0.00    -0.545 OA 
HETATM   24  H   UNL     1     -10.480  15.676  64.754  1.00  0.00     0.000 HD 
ENDBRANCH  21  22
ENDBRANCH  20  21
ENDBRANCH  19  20
ENDBRANCH  18  19
ENDBRANCH  17  18
ENDBRANCH  16  17
ENDBRANCH  15  16
ENDBRANCH  14  15
ENDBRANCH  13  14
ENDBRANCH  12  13
ENDBRANCH  11  12
ENDBRANCH  10  11
ENDBRANCH   9  10
ENDBRANCH   8   9
ENDBRANCH   7   8
ENDBRANCH   6   7
ENDBRANCH   5   6
ENDBRANCH   4   5
ENDBRANCH   3   4
ENDBRANCH   2   3
TORSDOF 20
ENDMDL
MODEL      470
REMARK 921   NORMALIZED FREE ENERGY PREDICTED BY IDOCK:   -1.89 KCAL/MOL
REMARK 922        TOTAL FREE ENERGY PREDICTED BY IDOCK:   -6.96 KCAL/MOL
REMARK 923 INTER-LIGAND FREE ENERGY PREDICTED BY IDOCK:   -5.78 KCAL/MOL
REMARK 924 INTRA-LIGAND FREE ENERGY PREDICTED BY IDOCK:   -1.18 KCAL/MOL
REMARK 927      BINDING AFFINITY PREDICTED BY RF-SCORE:    0.00 PKD
ROOT
HETATM    1  C   UNL     1      -9.200  10.130  69.257  1.00  0.00    -0.220 C  
HETATM    2  C   UNL     1     -10.636   9.634  69.258  1.00  0.00    -0.236 C  
ENDROOT
BRANCH   2   3
HETATM    3  C   UNL     1     -11.526  10.530  70.113  1.00  0.00    -0.405 C  
BRANCH   3   4
HETATM    4  C   UNL     1     -11.759   9.919  71.492  1.00  0.00    -0.414 C  
BRANCH   4   5
HETATM    5  C   UNL     1     -12.944  10.585  72.185  1.00  0.00    -0.366 C  
BRANCH   5   6
HETATM    6  C   UNL     1     -13.007  12.070  71.845  1.00  0.00    -0.428 C  
BRANCH   6   7
HETATM    7  C   UNL     1     -13.722  12.844  72.946  1.00  0.00     0.548 C  
BRANCH   7   8
HETATM    8  C   UNL     1     -13.113  14.231  73.108  1.00  0.00    -0.411 C  
BRANCH   8   9
HETATM    9  C   UNL     1     -13.773  15.221  72.156  1.00  0.00    -0.598 C  
BRANCH   9  10
HETATM   10  C   UNL     1     -12.772  15.717  71.123  1.00  0.00    -0.488 C  
BRANCH  10  11
HETATM   11  C   UNL     1     -12.343  14.580  70.206  1.00  0.00    -0.408 C  
BRANCH  11  12
HETATM   12  C   UNL     1     -10.885  14.220  70.451  1.00  0.00     0.375 C  
BRANCH  12  13
HETATM   13  C   UNL     1      -9.986  15.412  70.162  1.00  0.00    -0.082 C  
BRANCH  13  14
HETATM   14  C   UNL     1      -8.737  14.971  69.410  1.00  0.00    -0.113 C  
BRANCH  14  15
HETATM   15  C   UNL     1      -9.072  13.867  68.418  1.00  0.00    -0.184 C  
BRANCH  15  16
HETATM   16  C   UNL     1      -8.910  14.364  66.988  1.00  0.00    -0.256 C  
BRANCH  16  17
HETATM   17  C   UNL     1     -10.231  14.904  66.452  1.00  0.00    -0.292 C  
BRANCH  17  18
HETATM   18  C   UNL     1     -10.511  16.293  67.014  1.00  0.00    -0.306 C  
BRANCH  18  19
HETATM   19  C   UNL     1      -9.292  17.196  66.861  1.00  0.00    -0.260 C  
BRANCH  19  20
HETATM   20  C   UNL     1      -9.225  18.211  67.997  1.00  0.00    -0.285 C  
BRANCH  20  21
HETATM   21  C   UNL     1     -10.583  18.865  68.225  1.00  0.00    -0.224 C  
BRANCH  21  22
HETATM   22  C   UNL     1     -11.071  19.578  66.971  1.00  0.00    -0.166 C  
HETATM   23  O   UNL     1     -10.033  20.398  66.449  1.00  0.00    -0.557 OA 
HETATM   24  H   UNL     1     -10.338  20.842  65.667  1.00  0.00     0.000 HD 
ENDBRANCH  21  22
ENDBRANCH  20  21
ENDBRANCH  19  20
ENDBRANCH  18  19
ENDBRANCH  17  18
ENDBRANCH  16  17
ENDBRANCH  15  16
ENDBRANCH  14  15
ENDBRANCH  13  14
ENDBRANCH  12  13
ENDBRANCH  11  12
ENDBRANCH  10  11
ENDBRANCH   9  10
ENDBRANCH   8   9
ENDBRANCH   7   8
ENDBRANCH   6   7
ENDBRANCH   5   6
ENDBRANCH   4   5
ENDBRANCH   3   4
ENDBRANCH   2   3
TORSDOF 20
ENDMDL
MODEL      471
REMARK 921   NORMALIZED FREE ENERGY PREDICTED BY IDOCK:   -1.88 KCAL/MOL
REMARK 922        TOTAL FREE ENERGY PREDICTED BY IDOCK:   -6.95 KCAL/MOL
REMARK 923 INTER-LIGAND FREE ENERGY PREDICTED BY IDOCK:   -5.14 KCAL/MOL
REMARK 924 INTRA-LIGAND FREE ENERGY PREDICTED BY IDOCK:   -1.80 KCAL/MOL
REMARK 927      BINDING AFFINITY PREDICTED BY RF-SCORE:    0.00 PKD
ROOT
HETATM    1  C   UNL     1     -11.975   8.818  71.558  1.00  0.00    -0.386 C  
HETATM    2  C   UNL     1     -11.179   7.618  72.043  1.00  0.00    -0.317 C  
ENDROOT
BRANCH   2   3
HETATM    3  C   UNL     1     -10.187   7.152  70.982  1.00  0.00    -0.205 C  
BRANCH   3   4
HETATM    4  C   UNL     1      -9.340   8.314  70.472  1.00  0.00    -0.169 C  
BRANCH   4   5
HETATM    5  C   UNL     1      -8.741   7.988  69.107  1.00  0.00    -0.137 C  
BRANCH   5   6
HETATM    6  C   UNL     1      -9.816   7.489  68.147  1.00  0.00    -0.179 C  
BRANCH   6   7
HETATM    7  C   UNL     1      -9.239   7.289  66.751  1.00  0.00    -0.187 C  
BRANCH   7   8
HETATM    8  C   UNL     1      -7.985   6.427  66.807  1.00  0.00    -0.109 C  
BRANCH   8   9
HETATM    9  C   UNL     1      -6.825   7.122  66.107  1.00  0.00    -0.057 C  
BRANCH   9  10
HETATM   10  C   UNL     1      -7.047   8.627  66.068  1.00  0.00    -0.083 C  
BRANCH  10  11
HETATM   11  C   UNL     1      -6.938   9.147  64.641  1.00  0.00    -0.090 C  
BRANCH  11  12
HETATM   12  C   UNL     1      -7.677  10.469  64.497  1.00  0.00     0.031 C  
BRANCH  12  13
HETATM   13  C   UNL     1      -9.179  10.239  64.462  1.00  0.00    -0.295 C  
BRANCH  13  14
HETATM   14  C   UNL     1      -9.923  11.477  64.946  1.00  0.00    -0.303 C  
BRANCH  14  15
HETATM   15  C   UNL     1      -9.402  11.916  66.306  1.00  0.00    -0.234 C  
BRANCH  15  16
HETATM   16  C   UNL     1     -10.514  11.871  67.346  1.00  0.00    -0.242 C  
BRANCH  16  17
HETATM   17  C   UNL     1     -10.530  13.151  68.173  1.00  0.00    -0.255 C  
BRANCH  17  18
HETATM   18  C   UNL     1     -11.653  14.073  67.713  1.00  0.00    -0.378 C  
BRANCH  18  19
HETATM   19  C   UNL     1     -12.249  14.832  68.894  1.00  0.00    -0.157 C  
BRANCH  19  20
HETATM   20  C   UNL     1     -11.176  15.140  69.934  1.00  0.00    -0.305 C  
BRANCH  20  21
HETATM   21  C   UNL     1     -11.500  14.474  71.266  1.00  0.00    -0.046 C  
BRANCH  21  22
HETATM   22  C   UNL     1     -11.727  15.509  72.361  1.00  0.00    -0.471 C  
HETATM   23  O   UNL     1     -11.611  16.817  71.817  1.00  0.00    -0.570 OA 
HETATM   24  H   UNL     1     -11.753  17.462  72.500  1.00  0.00     0.000 HD 
ENDBRANCH  21  22
ENDBRANCH  20  21
ENDBRANCH  19  20
ENDBRANCH  18  19
ENDBRANCH  17  18
ENDBRANCH  16  17
ENDBRANCH  15  16
ENDBRANCH  14  15
ENDBRANCH  13  14
ENDBRANCH  12  13
ENDBRANCH  11  12
ENDBRANCH  10  11
ENDBRANCH   9  10
ENDBRANCH   8   9
ENDBRANCH   7   8
ENDBRANCH   6   7
ENDBRANCH   5   6
ENDBRANCH   4   5
ENDBRANCH   3   4
ENDBRANCH   2   3
TORSDOF 20
ENDMDL
MODEL      472
REMARK 921   NORMALIZED FREE ENERGY PREDICTED BY IDOCK:   -1.88 KCAL/MOL
REMARK 922        TOTAL FREE ENERGY PREDICTED BY IDOCK:   -6.94 KCAL/MOL
REMARK 923 INTER-LIGAND FREE ENERGY PREDICTED BY IDOCK:   -4.23 KCAL/MOL
REMARK 924 INTRA-LIGAND FREE ENERGY PREDICTED BY IDOCK:   -2.71 KCAL/MOL
REMARK 927      BINDING AFFINITY PREDICTED BY RF-SCORE:    0.00 PKD
ROOT
HETATM    1  C   UNL     1     -10.034   4.513  66.687  1.00  0.00    -0.253 C  
HETATM    2  C   UNL     1      -9.555   4.723  68.113  1.00  0.00    -0.200 C  
ENDROOT
BRANCH   2   3
HETATM    3  C   UNL     1      -9.113   6.166  68.337  1.00  0.00    -0.113 C  
BRANCH   3   4
HETATM    4  C   UNL     1      -9.939   7.132  67.493  1.00  0.00    -0.214 C  
BRANCH   4   5
HETATM    5  C   UNL     1     -10.910   7.920  68.368  1.00  0.00     0.025 C  
BRANCH   5   6
HETATM    6  C   UNL     1     -10.484   7.869  69.832  1.00  0.00    -0.229 C  
BRANCH   6   7
HETATM    7  C   UNL     1     -10.694   9.222  70.500  1.00  0.00    -0.313 C  
BRANCH   7   8
HETATM    8  C   UNL     1     -12.076   9.298  71.135  1.00  0.00    -0.389 C  
BRANCH   8   9
HETATM    9  C   UNL     1     -12.728  10.643  70.842  1.00  0.00    -0.498 C  
BRANCH   9  10
HETATM   10  C   UNL     1     -11.675  11.679  70.477  1.00  0.00    -0.196 C  
BRANCH  10  11
HETATM   11  C   UNL     1     -12.334  12.954  69.970  1.00  0.00    -0.199 C  
BRANCH  11  12
HETATM   12  C   UNL     1     -11.873  13.266  68.553  1.00  0.00    -0.384 C  
BRANCH  12  13
HETATM   13  C   UNL     1     -11.798  11.992  67.725  1.00  0.00    -0.308 C  
BRANCH  13  14
HETATM   14  C   UNL     1     -10.480  11.924  66.966  1.00  0.00    -0.253 C  
BRANCH  14  15
HETATM   15  C   UNL     1      -9.458  11.107  67.742  1.00  0.00    -0.173 C  
BRANCH  15  16
HETATM   16  C   UNL     1      -8.043  11.462  67.303  1.00  0.00    -0.148 C  
BRANCH  16  17
HETATM   17  C   UNL     1      -7.102  11.504  68.502  1.00  0.00    -0.087 C  
BRANCH  17  18
HETATM   18  C   UNL     1      -6.064  10.392  68.409  1.00  0.00    -0.044 C  
BRANCH  18  19
HETATM   19  C   UNL     1      -6.723   9.062  68.063  1.00  0.00    -0.068 C  
BRANCH  19  20
HETATM   20  C   UNL     1      -5.783   8.192  67.235  1.00  0.00    -0.038 C  
BRANCH  20  21
HETATM   21  C   UNL     1      -6.318   8.002  65.821  1.00  0.00    -0.042 C  
BRANCH  21  22
HETATM   22  C   UNL     1      -6.015   6.603  65.299  1.00  0.00    -0.034 C  
HETATM   23  O   UNL     1      -7.218   5.853  65.206  1.00  0.00    -0.069 OA 
HETATM   24  H   UNL     1      -7.029   4.981  64.880  1.00  0.00     0.000 HD 
ENDBRANCH  21  22
ENDBRANCH  20  21
ENDBRANCH  19  20
ENDBRANCH  18  19
ENDBRANCH  17  18
ENDBRANCH  16  17
ENDBRANCH  15  16
ENDBRANCH  14  15
ENDBRANCH  13  14
ENDBRANCH  12  13
ENDBRANCH  11  12
ENDBRANCH  10  11
ENDBRANCH   9  10
ENDBRANCH   8   9
ENDBRANCH   7   8
ENDBRANCH   6   7
ENDBRANCH   5   6
ENDBRANCH   4   5
ENDBRANCH   3   4
ENDBRANCH   2   3
TORSDOF 20
ENDMDL
MODEL      473
REMARK 921   NORMALIZED FREE ENERGY PREDICTED BY IDOCK:   -1.87 KCAL/MOL
REMARK 922        TOTAL FREE ENERGY PREDICTED BY IDOCK:   -6.93 KCAL/MOL
REMARK 923 INTER-LIGAND FREE ENERGY PREDICTED BY IDOCK:   -3.84 KCAL/MOL
REMARK 924 INTRA-LIGAND FREE ENERGY PREDICTED BY IDOCK:   -3.09 KCAL/MOL
REMARK 927      BINDING AFFINITY PREDICTED BY RF-SCORE:    0.00 PKD
ROOT
HETATM    1  C   UNL     1      -5.309  10.130  66.224  1.00  0.00    -0.050 C  
HETATM    2  C   UNL     1      -6.520   9.309  66.632  1.00  0.00    -0.067 C  
ENDROOT
BRANCH   2   3
HETATM    3  C   UNL     1      -6.421   8.870  68.090  1.00  0.00    -0.060 C  
BRANCH   3   4
HETATM    4  C   UNL     1      -6.342   7.351  68.203  1.00  0.00    -0.048 C  
BRANCH   4   5
HETATM    5  C   UNL     1      -7.123   6.858  69.418  1.00  0.00    -0.079 C  
BRANCH   5   6
HETATM    6  C   UNL     1      -6.615   5.493  69.872  1.00  0.00    -0.046 C  
BRANCH   6   7
HETATM    7  C   UNL     1      -5.944   4.757  68.719  1.00  0.00    -0.025 C  
BRANCH   7   8
HETATM    8  C   UNL     1      -6.909   3.767  68.081  1.00  0.00    -0.047 C  
BRANCH   8   9
HETATM    9  C   UNL     1      -7.813   3.143  69.136  1.00  0.00    -0.054 C  
BRANCH   9  10
HETATM   10  C   UNL     1      -9.230   2.990  68.603  1.00  0.00    -0.231 C  
BRANCH  10  11
HETATM   11  C   UNL     1      -9.450   3.897  67.400  1.00  0.00    -0.236 C  
BRANCH  11  12
HETATM   12  C   UNL     1     -10.165   5.173  67.819  1.00  0.00    -0.190 C  
BRANCH  12  13
HETATM   13  C   UNL     1     -10.824   5.833  66.617  1.00  0.00    -0.290 C  
BRANCH  13  14
HETATM   14  C   UNL     1     -10.997   7.327  66.854  1.00  0.00    -0.137 C  
BRANCH  14  15
HETATM   15  C   UNL     1      -9.938   7.841  67.818  1.00  0.00    -0.220 C  
BRANCH  15  16
HETATM   16  C   UNL     1     -10.428   9.093  68.534  1.00  0.00    -0.238 C  
BRANCH  16  17
HETATM   17  C   UNL     1      -9.529   9.420  69.721  1.00  0.00    -0.216 C  
BRANCH  17  18
HETATM   18  C   UNL     1     -10.138   8.895  71.016  1.00  0.00    -0.324 C  
BRANCH  18  19
HETATM   19  C   UNL     1     -11.606   8.535  70.818  1.00  0.00    -0.257 C  
BRANCH  19  20
HETATM   20  C   UNL     1     -11.922   7.187  71.458  1.00  0.00    -0.361 C  
BRANCH  20  21
HETATM   21  C   UNL     1     -10.768   6.210  71.273  1.00  0.00    -0.310 C  
BRANCH  21  22
HETATM   22  C   UNL     1     -10.465   5.461  72.565  1.00  0.00    -0.214 C  
HETATM   23  O   UNL     1      -9.261   5.954  73.136  1.00  0.00    -0.134 OA 
HETATM   24  H   UNL     1      -9.072   5.486  73.942  1.00  0.00     0.000 HD 
ENDBRANCH  21  22
ENDBRANCH  20  21
ENDBRANCH  19  20
ENDBRANCH  18  19
ENDBRANCH  17  18
ENDBRANCH  16  17
ENDBRANCH  15  16
ENDBRANCH  14  15
ENDBRANCH  13  14
ENDBRANCH  12  13
ENDBRANCH  11  12
ENDBRANCH  10  11
ENDBRANCH   9  10
ENDBRANCH   8   9
ENDBRANCH   7   8
ENDBRANCH   6   7
ENDBRANCH   5   6
ENDBRANCH   4   5
ENDBRANCH   3   4
ENDBRANCH   2   3
TORSDOF 20
ENDMDL
MODEL      474
REMARK 921   NORMALIZED FREE ENERGY PREDICTED BY IDOCK:   -1.87 KCAL/MOL
REMARK 922        TOTAL FREE ENERGY PREDICTED BY IDOCK:   -6.93 KCAL/MOL
REMARK 923 INTER-LIGAND FREE ENERGY PREDICTED BY IDOCK:   -5.49 KCAL/MOL
REMARK 924 INTRA-LIGAND FREE ENERGY PREDICTED BY IDOCK:   -1.44 KCAL/MOL
REMARK 927      BINDING AFFINITY PREDICTED BY RF-SCORE:    0.00 PKD
ROOT
HETATM    1  C   UNL     1      -6.580  20.212  65.060  1.00  0.00    -0.325 C  
HETATM    2  C   UNL     1      -6.511  20.668  66.507  1.00  0.00    -0.305 C  
ENDROOT
BRANCH   2   3
HETATM    3  C   UNL     1      -7.786  20.303  67.261  1.00  0.00    -0.357 C  
BRANCH   3   4
HETATM    4  C   UNL     1      -9.027  20.679  66.457  1.00  0.00    -0.034 C  
BRANCH   4   5
HETATM    5  C   UNL     1      -9.961  19.482  66.313  1.00  0.00    -0.538 C  
BRANCH   5   6
HETATM    6  C   UNL     1     -10.727  19.232  67.608  1.00  0.00    -0.533 C  
BRANCH   6   7
HETATM    7  C   UNL     1     -10.467  17.822  68.123  1.00  0.00    -0.382 C  
BRANCH   7   8
HETATM    8  C   UNL     1     -10.153  16.879  66.969  1.00  0.00    -0.289 C  
BRANCH   8   9
HETATM    9  C   UNL     1     -10.621  15.465  67.288  1.00  0.00    -0.294 C  
BRANCH   9  10
HETATM   10  C   UNL     1     -10.927  15.326  68.773  1.00  0.00    -0.260 C  
BRANCH  10  11
HETATM   11  C   UNL     1     -11.264  13.881  69.116  1.00  0.00    -0.311 C  
BRANCH  11  12
HETATM   12  C   UNL     1     -11.059  12.984  67.903  1.00  0.00    -0.282 C  
BRANCH  12  13
HETATM   13  C   UNL     1     -11.972  11.770  67.979  1.00  0.00    -0.195 C  
BRANCH  13  14
HETATM   14  C   UNL     1     -11.184  10.491  67.724  1.00  0.00    -0.344 C  
BRANCH  14  15
HETATM   15  C   UNL     1     -10.642  10.474  66.303  1.00  0.00    -0.203 C  
BRANCH  15  16
HETATM   16  C   UNL     1      -9.173  10.072  66.295  1.00  0.00    -0.199 C  
BRANCH  16  17
HETATM   17  C   UNL     1      -8.819   9.302  67.562  1.00  0.00    -0.123 C  
BRANCH  17  18
HETATM   18  C   UNL     1      -8.258   7.928  67.216  1.00  0.00    -0.122 C  
BRANCH  18  19
HETATM   19  C   UNL     1      -7.487   7.345  68.395  1.00  0.00    -0.105 C  
BRANCH  19  20
HETATM   20  C   UNL     1      -8.415   7.101  69.580  1.00  0.00    -0.134 C  
BRANCH  20  21
HETATM   21  C   UNL     1      -7.660   7.217  70.899  1.00  0.00    -0.084 C  
BRANCH  21  22
HETATM   22  C   UNL     1      -6.235   7.707  70.679  1.00  0.00    -0.034 C  
HETATM   23  O   UNL     1      -5.632   8.012  71.930  1.00  0.00    -0.035 OA 
HETATM   24  H   UNL     1      -4.743   8.318  71.792  1.00  0.00     0.000 HD 
ENDBRANCH  21  22
ENDBRANCH  20  21
ENDBRANCH  19  20
ENDBRANCH  18  19
ENDBRANCH  17  18
ENDBRANCH  16  17
ENDBRANCH  15  16
ENDBRANCH  14  15
ENDBRANCH  13  14
ENDBRANCH  12  13
ENDBRANCH  11  12
ENDBRANCH  10  11
ENDBRANCH   9  10
ENDBRANCH   8   9
ENDBRANCH   7   8
ENDBRANCH   6   7
ENDBRANCH   5   6
ENDBRANCH   4   5
ENDBRANCH   3   4
ENDBRANCH   2   3
TORSDOF 20
ENDMDL
MODEL      475
REMARK 921   NORMALIZED FREE ENERGY PREDICTED BY IDOCK:   -1.86 KCAL/MOL
REMARK 922        TOTAL FREE ENERGY PREDICTED BY IDOCK:   -6.91 KCAL/MOL
REMARK 923 INTER-LIGAND FREE ENERGY PREDICTED BY IDOCK:   -5.49 KCAL/MOL
REMARK 924 INTRA-LIGAND FREE ENERGY PREDICTED BY IDOCK:   -1.42 KCAL/MOL
REMARK 927      BINDING AFFINITY PREDICTED BY RF-SCORE:    0.00 PKD
ROOT
HETATM    1  C   UNL     1      -8.184  17.872  66.314  1.00  0.00    -0.246 C  
HETATM    2  C   UNL     1      -7.669  16.453  66.485  1.00  0.00    -0.295 C  
ENDROOT
BRANCH   2   3
HETATM    3  C   UNL     1      -6.862  16.313  67.772  1.00  0.00    -0.155 C  
BRANCH   3   4
HETATM    4  C   UNL     1      -6.352  14.886  67.950  1.00  0.00    -0.174 C  
BRANCH   4   5
HETATM    5  C   UNL     1      -7.424  13.876  67.550  1.00  0.00    -0.184 C  
BRANCH   5   6
HETATM    6  C   UNL     1      -7.781  12.971  68.724  1.00  0.00     0.004 C  
BRANCH   6   7
HETATM    7  C   UNL     1      -8.058  11.551  68.245  1.00  0.00    -0.148 C  
BRANCH   7   8
HETATM    8  C   UNL     1      -7.327  10.539  69.116  1.00  0.00    -0.109 C  
BRANCH   8   9
HETATM    9  C   UNL     1      -7.528   9.127  68.583  1.00  0.00    -0.080 C  
BRANCH   9  10
HETATM   10  C   UNL     1      -8.085   8.218  69.670  1.00  0.00    -0.116 C  
BRANCH  10  11
HETATM   11  C   UNL     1      -6.958   7.479  70.377  1.00  0.00    -0.052 C  
BRANCH  11  12
HETATM   12  C   UNL     1      -7.508   6.623  71.508  1.00  0.00    -0.088 C  
BRANCH  12  13
HETATM   13  C   UNL     1      -9.025   6.543  71.426  1.00  0.00    -0.140 C  
BRANCH  13  14
HETATM   14  C   UNL     1      -9.618   6.212  72.789  1.00  0.00    -0.158 C  
BRANCH  14  15
HETATM   15  C   UNL     1     -10.906   6.991  73.013  1.00  0.00    -0.342 C  
BRANCH  15  16
HETATM   16  C   UNL     1     -11.860   6.798  71.842  1.00  0.00    -0.366 C  
BRANCH  16  17
HETATM   17  C   UNL     1     -12.883   7.926  71.790  1.00  0.00    -0.351 C  
BRANCH  17  18
HETATM   18  C   UNL     1     -12.189   9.283  71.808  1.00  0.00    -0.457 C  
BRANCH  18  19
HETATM   19  C   UNL     1     -12.892  10.265  70.877  1.00  0.00    -0.463 C  
BRANCH  19  20
HETATM   20  C   UNL     1     -12.075  11.543  70.725  1.00  0.00    -0.410 C  
BRANCH  20  21
HETATM   21  C   UNL     1     -11.117  11.443  69.544  1.00  0.00    -0.274 C  
BRANCH  21  22
HETATM   22  C   UNL     1     -11.423  12.501  68.492  1.00  0.00    -0.305 C  
HETATM   23  O   UNL     1     -12.077  11.900  67.382  1.00  0.00    -0.577 OA 
HETATM   24  H   UNL     1     -12.268  12.560  66.726  1.00  0.00     0.000 HD 
ENDBRANCH  21  22
ENDBRANCH  20  21
ENDBRANCH  19  20
ENDBRANCH  18  19
ENDBRANCH  17  18
ENDBRANCH  16  17
ENDBRANCH  15  16
ENDBRANCH  14  15
ENDBRANCH  13  14
ENDBRANCH  12  13
ENDBRANCH  11  12
ENDBRANCH  10  11
ENDBRANCH   9  10
ENDBRANCH   8   9
ENDBRANCH   7   8
ENDBRANCH   6   7
ENDBRANCH   5   6
ENDBRANCH   4   5
ENDBRANCH   3   4
ENDBRANCH   2   3
TORSDOF 20
ENDMDL
MODEL      476
REMARK 921   NORMALIZED FREE ENERGY PREDICTED BY IDOCK:   -1.79 KCAL/MOL
REMARK 922        TOTAL FREE ENERGY PREDICTED BY IDOCK:   -6.74 KCAL/MOL
REMARK 923 INTER-LIGAND FREE ENERGY PREDICTED BY IDOCK:   -5.17 KCAL/MOL
REMARK 924 INTRA-LIGAND FREE ENERGY PREDICTED BY IDOCK:   -1.57 KCAL/MOL
REMARK 927      BINDING AFFINITY PREDICTED BY RF-SCORE:    0.00 PKD
ROOT
HETATM    1  C   UNL     1      -5.460   8.599  72.200  1.00  0.00    -0.050 C  
HETATM    2  C   UNL     1      -6.915   8.167  72.256  1.00  0.00    -0.097 C  
ENDROOT
BRANCH   2   3
HETATM    3  C   UNL     1      -7.034   6.666  72.504  1.00  0.00    -0.068 C  
BRANCH   3   4
HETATM    4  C   UNL     1      -6.891   5.880  71.204  1.00  0.00    -0.066 C  
BRANCH   4   5
HETATM    5  C   UNL     1      -8.160   5.990  70.364  1.00  0.00    -0.111 C  
BRANCH   5   6
HETATM    6  C   UNL     1      -9.016   4.736  70.507  1.00  0.00    -0.159 C  
BRANCH   6   7
HETATM    7  C   UNL     1     -10.497   5.092  70.507  1.00  0.00    -0.278 C  
BRANCH   7   8
HETATM    8  C   UNL     1     -10.810   6.085  69.395  1.00  0.00    -0.433 C  
BRANCH   8   9
HETATM    9  C   UNL     1     -10.704   5.414  68.032  1.00  0.00    -0.084 C  
BRANCH   9  10
HETATM   10  C   UNL     1     -11.032   6.404  66.923  1.00  0.00    -0.413 C  
BRANCH  10  11
HETATM   11  C   UNL     1      -9.936   7.454  66.803  1.00  0.00    -0.300 C  
BRANCH  11  12
HETATM   12  C   UNL     1     -10.513   8.850  66.990  1.00  0.00    -0.326 C  
BRANCH  12  13
HETATM   13  C   UNL     1     -10.171   9.386  68.371  1.00  0.00    -0.224 C  
BRANCH  13  14
HETATM   14  C   UNL     1      -8.667   9.342  68.606  1.00  0.00    -0.132 C  
BRANCH  14  15
HETATM   15  C   UNL     1      -8.159  10.697  69.076  1.00  0.00    -0.148 C  
BRANCH  15  16
HETATM   16  C   UNL     1      -8.421  11.762  68.019  1.00  0.00    -0.157 C  
BRANCH  16  17
HETATM   17  C   UNL     1      -9.572  12.668  68.442  1.00  0.00    -0.173 C  
BRANCH  17  18
HETATM   18  C   UNL     1      -9.225  14.130  68.193  1.00  0.00    -0.194 C  
BRANCH  18  19
HETATM   19  C   UNL     1     -10.256  14.785  67.279  1.00  0.00    -0.241 C  
BRANCH  19  20
HETATM   20  C   UNL     1      -9.576  15.699  66.266  1.00  0.00    -0.337 C  
BRANCH  20  21
HETATM   21  C   UNL     1     -10.529  16.786  65.785  1.00  0.00    -0.305 C  
BRANCH  21  22
HETATM   22  C   UNL     1     -10.251  18.113  66.479  1.00  0.00    -0.391 C  
HETATM   23  O   UNL     1      -9.012  18.642  66.027  1.00  0.00    -0.489 OA 
HETATM   24  H   UNL     1      -8.839  19.470  66.461  1.00  0.00     0.000 HD 
ENDBRANCH  21  22
ENDBRANCH  20  21
ENDBRANCH  19  20
ENDBRANCH  18  19
ENDBRANCH  17  18
ENDBRANCH  16  17
ENDBRANCH  15  16
ENDBRANCH  14  15
ENDBRANCH  13  14
ENDBRANCH  12  13
ENDBRANCH  11  12
ENDBRANCH  10  11
ENDBRANCH   9  10
ENDBRANCH   8   9
ENDBRANCH   7   8
ENDBRANCH   6   7
ENDBRANCH   5   6
ENDBRANCH   4   5
ENDBRANCH   3   4
ENDBRANCH   2   3
TORSDOF 20
ENDMDL
MODEL      477
REMARK 921   NORMALIZED FREE ENERGY PREDICTED BY IDOCK:   -1.79 KCAL/MOL
REMARK 922        TOTAL FREE ENERGY PREDICTED BY IDOCK:   -6.74 KCAL/MOL
REMARK 923 INTER-LIGAND FREE ENERGY PREDICTED BY IDOCK:   -4.03 KCAL/MOL
REMARK 924 INTRA-LIGAND FREE ENERGY PREDICTED BY IDOCK:   -2.71 KCAL/MOL
REMARK 927      BINDING AFFINITY PREDICTED BY RF-SCORE:    0.00 PKD
ROOT
HETATM    1  C   UNL     1      -7.543   7.082  65.968  1.00  0.00    -0.096 C  
HETATM    2  C   UNL     1      -6.725   5.970  66.602  1.00  0.00    -0.061 C  
ENDROOT
BRANCH   2   3
HETATM    3  C   UNL     1      -5.522   5.610  65.735  1.00  0.00    -0.013 C  
BRANCH   3   4
HETATM    4  C   UNL     1      -5.232   4.112  65.791  1.00  0.00    -0.009 C  
BRANCH   4   5
HETATM    5  C   UNL     1      -5.968   3.377  64.675  1.00  0.00    -0.022 C  
BRANCH   5   6
HETATM    6  C   UNL     1      -6.116   4.266  63.445  1.00  0.00    -0.018 C  
BRANCH   6   7
HETATM    7  C   UNL     1      -7.585   4.429  63.072  1.00  0.00    -0.058 C  
BRANCH   7   8
HETATM    8  C   UNL     1      -8.437   3.387  63.784  1.00  0.00    -0.090 C  
BRANCH   8   9
HETATM    9  C   UNL     1      -9.411   4.056  64.745  1.00  0.00    -0.170 C  
BRANCH   9  10
HETATM   10  C   UNL     1      -9.354   3.393  66.114  1.00  0.00    -0.151 C  
BRANCH  10  11
HETATM   11  C   UNL     1      -9.826   4.355  67.194  1.00  0.00    -0.217 C  
BRANCH  11  12
HETATM   12  C   UNL     1      -9.579   3.768  68.577  1.00  0.00    -0.174 C  
BRANCH  12  13
HETATM   13  C   UNL     1     -10.059   4.726  69.656  1.00  0.00    -0.275 C  
BRANCH  13  14
HETATM   14  C   UNL     1      -9.432   6.101  69.469  1.00  0.00    -0.156 C  
BRANCH  14  15
HETATM   15  C   UNL     1      -8.049   6.147  70.101  1.00  0.00    -0.116 C  
BRANCH  15  16
HETATM   16  C   UNL     1      -8.132   6.646  71.537  1.00  0.00    -0.111 C  
BRANCH  16  17
HETATM   17  C   UNL     1      -8.755   5.588  72.440  1.00  0.00    -0.128 C  
BRANCH  17  18
HETATM   18  C   UNL     1      -9.919   6.175  73.230  1.00  0.00    -0.188 C  
BRANCH  18  19
HETATM   19  C   UNL     1     -10.085   7.660  72.929  1.00  0.00    -0.343 C  
BRANCH  19  20
HETATM   20  C   UNL     1     -11.562   8.026  72.816  1.00  0.00    -0.390 C  
BRANCH  20  21
HETATM   21  C   UNL     1     -11.979   8.172  71.358  1.00  0.00    -0.330 C  
BRANCH  21  22
HETATM   22  C   UNL     1     -12.011   9.635  70.936  1.00  0.00    -0.309 C  
HETATM   23  O   UNL     1     -13.332   9.997  70.553  1.00  0.00    -0.605 OA 
HETATM   24  H   UNL     1     -13.351  10.909  70.290  1.00  0.00     0.000 HD 
ENDBRANCH  21  22
ENDBRANCH  20  21
ENDBRANCH  19  20
ENDBRANCH  18  19
ENDBRANCH  17  18
ENDBRANCH  16  17
ENDBRANCH  15  16
ENDBRANCH  14  15
ENDBRANCH  13  14
ENDBRANCH  12  13
ENDBRANCH  11  12
ENDBRANCH  10  11
ENDBRANCH   9  10
ENDBRANCH   8   9
ENDBRANCH   7   8
ENDBRANCH   6   7
ENDBRANCH   5   6
ENDBRANCH   4   5
ENDBRANCH   3   4
ENDBRANCH   2   3
TORSDOF 20
ENDMDL
MODEL      478
REMARK 921   NORMALIZED FREE ENERGY PREDICTED BY IDOCK:   -1.78 KCAL/MOL
REMARK 922        TOTAL FREE ENERGY PREDICTED BY IDOCK:   -6.74 KCAL/MOL
REMARK 923 INTER-LIGAND FREE ENERGY PREDICTED BY IDOCK:   -4.56 KCAL/MOL
REMARK 924 INTRA-LIGAND FREE ENERGY PREDICTED BY IDOCK:   -2.18 KCAL/MOL
REMARK 927      BINDING AFFINITY PREDICTED BY RF-SCORE:    0.00 PKD
ROOT
HETATM    1  C   UNL     1     -13.407  10.005  70.720  1.00  0.00    -0.197 C  
HETATM    2  C   UNL     1     -12.350   9.524  71.700  1.00  0.00    -0.480 C  
ENDROOT
BRANCH   2   3
HETATM    3  C   UNL     1     -12.528   8.043  72.018  1.00  0.00    -0.357 C  
BRANCH   3   4
HETATM    4  C   UNL     1     -11.246   7.263  71.742  1.00  0.00    -0.278 C  
BRANCH   4   5
HETATM    5  C   UNL     1     -10.199   8.159  71.088  1.00  0.00    -0.234 C  
BRANCH   5   6
HETATM    6  C   UNL     1      -8.818   7.514  71.149  1.00  0.00    -0.142 C  
BRANCH   6   7
HETATM    7  C   UNL     1      -8.480   6.839  69.825  1.00  0.00    -0.133 C  
BRANCH   7   8
HETATM    8  C   UNL     1      -7.525   5.674  70.046  1.00  0.00    -0.070 C  
BRANCH   8   9
HETATM    9  C   UNL     1      -8.281   4.351  70.035  1.00  0.00    -0.068 C  
BRANCH   9  10
HETATM   10  C   UNL     1      -9.702   4.552  69.528  1.00  0.00    -0.282 C  
BRANCH  10  11
HETATM   11  C   UNL     1      -9.715   4.670  68.010  1.00  0.00    -0.197 C  
BRANCH  11  12
HETATM   12  C   UNL     1      -9.194   3.391  67.370  1.00  0.00    -0.228 C  
BRANCH  12  13
HETATM   13  C   UNL     1      -8.217   3.715  66.251  1.00  0.00    -0.100 C  
BRANCH  13  14
HETATM   14  C   UNL     1      -7.256   4.816  66.680  1.00  0.00    -0.080 C  
BRANCH  14  15
HETATM   15  C   UNL     1      -6.888   5.695  65.495  1.00  0.00    -0.056 C  
BRANCH  15  16
HETATM   16  C   UNL     1      -8.129   6.361  64.914  1.00  0.00    -0.120 C  
BRANCH  16  17
HETATM   17  C   UNL     1      -8.740   7.328  65.921  1.00  0.00    -0.150 C  
BRANCH  17  18
HETATM   18  C   UNL     1      -8.426   8.770  65.539  1.00  0.00    -0.181 C  
BRANCH  18  19
HETATM   19  C   UNL     1      -7.714   9.490  66.679  1.00  0.00    -0.098 C  
BRANCH  19  20
HETATM   20  C   UNL     1      -8.716   9.970  67.724  1.00  0.00    -0.125 C  
BRANCH  20  21
HETATM   21  C   UNL     1      -9.636  11.040  67.148  1.00  0.00    -0.189 C  
BRANCH  21  22
HETATM   22  C   UNL     1     -10.795  11.338  68.091  1.00  0.00    -0.217 C  
HETATM   23  O   UNL     1     -12.025  11.247  67.384  1.00  0.00    -0.581 OA 
HETATM   24  H   UNL     1     -12.748  11.433  67.972  1.00  0.00     0.000 HD 
ENDBRANCH  21  22
ENDBRANCH  20  21
ENDBRANCH  19  20
ENDBRANCH  18  19
ENDBRANCH  17  18
ENDBRANCH  16  17
ENDBRANCH  15  16
ENDBRANCH  14  15
ENDBRANCH  13  14
ENDBRANCH  12  13
ENDBRANCH  11  12
ENDBRANCH  10  11
ENDBRANCH   9  10
ENDBRANCH   8   9
ENDBRANCH   7   8
ENDBRANCH   6   7
ENDBRANCH   5   6
ENDBRANCH   4   5
ENDBRANCH   3   4
ENDBRANCH   2   3
TORSDOF 20
ENDMDL
MODEL      479
REMARK 921   NORMALIZED FREE ENERGY PREDICTED BY IDOCK:   -1.78 KCAL/MOL
REMARK 922        TOTAL FREE ENERGY PREDICTED BY IDOCK:   -6.73 KCAL/MOL
REMARK 923 INTER-LIGAND FREE ENERGY PREDICTED BY IDOCK:   -4.23 KCAL/MOL
REMARK 924 INTRA-LIGAND FREE ENERGY PREDICTED BY IDOCK:   -2.50 KCAL/MOL
REMARK 927      BINDING AFFINITY PREDICTED BY RF-SCORE:    0.00 PKD
ROOT
HETATM    1  C   UNL     1      -5.407  11.723  70.231  1.00  0.00    -0.110 C  
HETATM    2  C   UNL     1      -6.341  10.529  70.327  1.00  0.00    -0.137 C  
ENDROOT
BRANCH   2   3
HETATM    3  C   UNL     1      -7.663  10.806  69.617  1.00  0.00    -0.020 C  
BRANCH   3   4
HETATM    4  C   UNL     1      -8.224   9.536  68.984  1.00  0.00    -0.113 C  
BRANCH   4   5
HETATM    5  C   UNL     1      -8.166   8.371  69.967  1.00  0.00    -0.121 C  
BRANCH   5   6
HETATM    6  C   UNL     1      -7.279   7.253  69.431  1.00  0.00    -0.084 C  
BRANCH   6   7
HETATM    7  C   UNL     1      -8.103   6.004  69.142  1.00  0.00    -0.111 C  
BRANCH   7   8
HETATM    8  C   UNL     1      -8.628   6.027  67.713  1.00  0.00    -0.106 C  
BRANCH   8   9
HETATM    9  C   UNL     1     -10.149   5.941  67.698  1.00  0.00    -0.194 C  
BRANCH   9  10
HETATM   10  C   UNL     1     -10.737   7.016  66.795  1.00  0.00    -0.282 C  
BRANCH  10  11
HETATM   11  C   UNL     1      -9.736   8.144  66.586  1.00  0.00    -0.318 C  
BRANCH  11  12
HETATM   12  C   UNL     1      -9.386   8.279  65.111  1.00  0.00     0.467 C  
BRANCH  12  13
HETATM   13  C   UNL     1      -8.030   8.948  64.945  1.00  0.00    -0.129 C  
BRANCH  13  14
HETATM   14  C   UNL     1      -8.155  10.458  65.102  1.00  0.00    -0.145 C  
BRANCH  14  15
HETATM   15  C   UNL     1      -9.038  11.037  64.006  1.00  0.00    -0.115 C  
BRANCH  15  16
HETATM   16  C   UNL     1     -10.309  11.630  64.599  1.00  0.00    -0.341 C  
BRANCH  16  17
HETATM   17  C   UNL     1     -10.226  11.667  66.121  1.00  0.00    -0.263 C  
BRANCH  17  18
HETATM   18  C   UNL     1     -11.621  11.674  66.735  1.00  0.00    -0.220 C  
BRANCH  18  19
HETATM   19  C   UNL     1     -11.657  12.538  67.990  1.00  0.00    -0.395 C  
BRANCH  19  20
HETATM   20  C   UNL     1     -11.129  11.764  69.194  1.00  0.00    -0.294 C  
BRANCH  20  21
HETATM   21  C   UNL     1     -12.236  10.941  69.842  1.00  0.00    -0.408 C  
BRANCH  21  22
HETATM   22  C   UNL     1     -11.663   9.777  70.641  1.00  0.00    -0.300 C  
HETATM   23  O   UNL     1     -12.633   8.743  70.746  1.00  0.00    -0.496 OA 
HETATM   24  H   UNL     1     -12.276   8.017  71.244  1.00  0.00     0.000 HD 
ENDBRANCH  21  22
ENDBRANCH  20  21
ENDBRANCH  19  20
ENDBRANCH  18  19
ENDBRANCH  17  18
ENDBRANCH  16  17
ENDBRANCH  15  16
ENDBRANCH  14  15
ENDBRANCH  13  14
ENDBRANCH  12  13
ENDBRANCH  11  12
ENDBRANCH  10  11
ENDBRANCH   9  10
ENDBRANCH   8   9
ENDBRANCH   7   8
ENDBRANCH   6   7
ENDBRANCH   5   6
ENDBRANCH   4   5
ENDBRANCH   3   4
ENDBRANCH   2   3
TORSDOF 20
ENDMDL
MODEL      480
REMARK 921   NORMALIZED FREE ENERGY PREDICTED BY IDOCK:   -1.78 KCAL/MOL
REMARK 922        TOTAL FREE ENERGY PREDICTED BY IDOCK:   -6.73 KCAL/MOL
REMARK 923 INTER-LIGAND FREE ENERGY PREDICTED BY IDOCK:   -3.97 KCAL/MOL
REMARK 924 INTRA-LIGAND FREE ENERGY PREDICTED BY IDOCK:   -2.76 KCAL/MOL
REMARK 927      BINDING AFFINITY PREDICTED BY RF-SCORE:    0.00 PKD
ROOT
HETATM    1  C   UNL     1      -8.598  12.546  68.020  1.00  0.00    -0.185 C  
HETATM    2  C   UNL     1      -7.418  12.220  67.121  1.00  0.00    -0.113 C  
ENDROOT
BRANCH   2   3
HETATM    3  C   UNL     1      -7.440  10.754  66.695  1.00  0.00    -0.135 C  
BRANCH   3   4
HETATM    4  C   UNL     1      -6.418  10.486  65.594  1.00  0.00    -0.119 C  
BRANCH   4   5
HETATM    5  C   UNL     1      -6.167   8.989  65.443  1.00  0.00    -0.063 C  
BRANCH   5   6
HETATM    6  C   UNL     1      -6.638   8.495  64.079  1.00  0.00    -0.075 C  
BRANCH   6   7
HETATM    7  C   UNL     1      -8.148   8.295  64.070  1.00  0.00    -0.128 C  
BRANCH   7   8
HETATM    8  C   UNL     1      -8.593   7.517  65.301  1.00  0.00    -0.023 C  
BRANCH   8   9
HETATM    9  C   UNL     1      -8.297   6.032  65.133  1.00  0.00    -0.140 C  
BRANCH   9  10
HETATM   10  C   UNL     1      -7.747   5.448  66.427  1.00  0.00    -0.099 C  
BRANCH  10  11
HETATM   11  C   UNL     1      -8.308   6.192  67.630  1.00  0.00    -0.112 C  
BRANCH  11  12
HETATM   12  C   UNL     1      -9.520   5.461  68.191  1.00  0.00    -0.142 C  
BRANCH  12  13
HETATM   13  C   UNL     1      -9.222   4.926  69.583  1.00  0.00    -0.172 C  
BRANCH  13  14
HETATM   14  C   UNL     1     -10.471   4.972  70.453  1.00  0.00    -0.237 C  
BRANCH  14  15
HETATM   15  C   UNL     1     -11.388   6.103  70.012  1.00  0.00    -0.443 C  
BRANCH  15  16
HETATM   16  C   UNL     1     -11.614   7.085  71.154  1.00  0.00    -0.351 C  
BRANCH  16  17
HETATM   17  C   UNL     1     -11.134   8.479  70.769  1.00  0.00    -0.288 C  
BRANCH  17  18
HETATM   18  C   UNL     1      -9.996   8.926  71.679  1.00  0.00    -0.397 C  
BRANCH  18  19
HETATM   19  C   UNL     1      -8.677   8.295  71.248  1.00  0.00    -0.186 C  
BRANCH  19  20
HETATM   20  C   UNL     1      -8.060   9.071  70.089  1.00  0.00    -0.128 C  
BRANCH  20  21
HETATM   21  C   UNL     1      -6.929   9.970  70.573  1.00  0.00    -0.098 C  
BRANCH  21  22
HETATM   22  C   UNL     1      -5.870   9.172  71.321  1.00  0.00    -0.063 C  
HETATM   23  O   UNL     1      -5.440   9.897  72.466  1.00  0.00    -0.272 OA 
HETATM   24  H   UNL     1      -4.779   9.399  72.933  1.00  0.00     0.000 HD 
ENDBRANCH  21  22
ENDBRANCH  20  21
ENDBRANCH  19  20
ENDBRANCH  18  19
ENDBRANCH  17  18
ENDBRANCH  16  17
ENDBRANCH  15  16
ENDBRANCH  14  15
ENDBRANCH  13  14
ENDBRANCH  12  13
ENDBRANCH  11  12
ENDBRANCH  10  11
ENDBRANCH   9  10
ENDBRANCH   8   9
ENDBRANCH   7   8
ENDBRANCH   6   7
ENDBRANCH   5   6
ENDBRANCH   4   5
ENDBRANCH   3   4
ENDBRANCH   2   3
TORSDOF 20
ENDMDL
MODEL      481
REMARK 921   NORMALIZED FREE ENERGY PREDICTED BY IDOCK:   -1.78 KCAL/MOL
REMARK 922        TOTAL FREE ENERGY PREDICTED BY IDOCK:   -6.72 KCAL/MOL
REMARK 923 INTER-LIGAND FREE ENERGY PREDICTED BY IDOCK:   -4.81 KCAL/MOL
REMARK 924 INTRA-LIGAND FREE ENERGY PREDICTED BY IDOCK:   -1.91 KCAL/MOL
REMARK 927      BINDING AFFINITY PREDICTED BY RF-SCORE:    0.00 PKD
ROOT
HETATM    1  C   UNL     1      -6.984   8.571  74.556  1.00  0.00    -0.209 C  
HETATM    2  C   UNL     1      -6.092   7.383  74.236  1.00  0.00    -0.077 C  
ENDROOT
BRANCH   2   3
HETATM    3  C   UNL     1      -6.426   6.799  72.867  1.00  0.00    -0.062 C  
BRANCH   3   4
HETATM    4  C   UNL     1      -6.266   7.846  71.768  1.00  0.00    -0.040 C  
BRANCH   4   5
HETATM    5  C   UNL     1      -6.276   7.189  70.391  1.00  0.00    -0.034 C  
BRANCH   5   6
HETATM    6  C   UNL     1      -5.440   5.914  70.391  1.00  0.00    -0.013 C  
BRANCH   6   7
HETATM    7  C   UNL     1      -6.188   4.780  69.700  1.00  0.00    -0.026 C  
BRANCH   7   8
HETATM    8  C   UNL     1      -7.605   4.661  70.246  1.00  0.00    -0.051 C  
BRANCH   8   9
HETATM    9  C   UNL     1      -8.608   5.260  69.269  1.00  0.00    -0.102 C  
BRANCH   9  10
HETATM   10  C   UNL     1     -10.009   5.246  69.866  1.00  0.00    -0.309 C  
BRANCH  10  11
HETATM   11  C   UNL     1     -10.859   6.353  69.259  1.00  0.00    -0.387 C  
BRANCH  11  12
HETATM   12  C   UNL     1     -10.205   7.710  69.481  1.00  0.00    -0.209 C  
BRANCH  12  13
HETATM   13  C   UNL     1     -10.612   8.683  68.386  1.00  0.00    -0.169 C  
BRANCH  13  14
HETATM   14  C   UNL     1     -10.485   8.031  67.015  1.00  0.00    -0.410 C  
BRANCH  14  15
HETATM   15  C   UNL     1      -9.085   8.232  66.456  1.00  0.00    -0.219 C  
BRANCH  15  16
HETATM   16  C   UNL     1      -9.010   9.521  65.649  1.00  0.00    -0.224 C  
BRANCH  16  17
HETATM   17  C   UNL     1      -8.492  10.666  66.512  1.00  0.00    -0.144 C  
BRANCH  17  18
HETATM   18  C   UNL     1      -9.211  11.966  66.168  1.00  0.00    -0.204 C  
BRANCH  18  19
HETATM   19  C   UNL     1     -10.664  11.698  65.790  1.00  0.00    -0.331 C  
BRANCH  19  20
HETATM   20  C   UNL     1     -11.605  12.181  66.889  1.00  0.00    -0.408 C  
BRANCH  20  21
HETATM   21  C   UNL     1     -10.964  13.294  67.708  1.00  0.00    -0.278 C  
BRANCH  21  22
HETATM   22  C   UNL     1     -11.776  14.580  67.625  1.00  0.00    -0.382 C  
HETATM   23  O   UNL     1     -12.552  14.735  68.807  1.00  0.00    -0.519 OA 
HETATM   24  H   UNL     1     -13.059  15.537  68.755  1.00  0.00     0.000 HD 
ENDBRANCH  21  22
ENDBRANCH  20  21
ENDBRANCH  19  20
ENDBRANCH  18  19
ENDBRANCH  17  18
ENDBRANCH  16  17
ENDBRANCH  15  16
ENDBRANCH  14  15
ENDBRANCH  13  14
ENDBRANCH  12  13
ENDBRANCH  11  12
ENDBRANCH  10  11
ENDBRANCH   9  10
ENDBRANCH   8   9
ENDBRANCH   7   8
ENDBRANCH   6   7
ENDBRANCH   5   6
ENDBRANCH   4   5
ENDBRANCH   3   4
ENDBRANCH   2   3
TORSDOF 20
ENDMDL
MODEL      482
REMARK 921   NORMALIZED FREE ENERGY PREDICTED BY IDOCK:   -1.77 KCAL/MOL
REMARK 922        TOTAL FREE ENERGY PREDICTED BY IDOCK:   -6.72 KCAL/MOL
REMARK 923 INTER-LIGAND FREE ENERGY PREDICTED BY IDOCK:   -3.78 KCAL/MOL
REMARK 924 INTRA-LIGAND FREE ENERGY PREDICTED BY IDOCK:   -2.93 KCAL/MOL
REMARK 927      BINDING AFFINITY PREDICTED BY RF-SCORE:    0.00 PKD
ROOT
HETATM    1  C   UNL     1      -5.558   9.953  65.572  1.00  0.00    -0.061 C  
HETATM    2  C   UNL     1      -6.208   8.584  65.686  1.00  0.00    -0.048 C  
ENDROOT
BRANCH   2   3
HETATM    3  C   UNL     1      -6.243   8.112  67.137  1.00  0.00    -0.055 C  
BRANCH   3   4
HETATM    4  C   UNL     1      -5.937   6.620  67.237  1.00  0.00    -0.017 C  
BRANCH   4   5
HETATM    5  C   UNL     1      -6.915   5.930  68.183  1.00  0.00    -0.069 C  
BRANCH   5   6
HETATM    6  C   UNL     1      -7.731   4.874  67.445  1.00  0.00    -0.091 C  
BRANCH   6   7
HETATM    7  C   UNL     1      -8.011   5.314  66.013  1.00  0.00    -0.104 C  
BRANCH   7   8
HETATM    8  C   UNL     1      -9.489   5.633  65.829  1.00  0.00    -0.035 C  
BRANCH   8   9
HETATM    9  C   UNL     1     -10.302   5.100  67.001  1.00  0.00    -0.267 C  
BRANCH   9  10
HETATM   10  C   UNL     1     -11.021   6.236  67.714  1.00  0.00    -0.427 C  
BRANCH  10  11
HETATM   11  C   UNL     1     -10.233   7.532  67.582  1.00  0.00    -0.275 C  
BRANCH  11  12
HETATM   12  C   UNL     1      -9.661   7.948  68.930  1.00  0.00    -0.155 C  
BRANCH  12  13
HETATM   13  C   UNL     1      -9.456   9.454  68.979  1.00  0.00    -0.160 C  
BRANCH  13  14
HETATM   14  C   UNL     1      -8.445   9.822  70.058  1.00  0.00    -0.229 C  
BRANCH  14  15
HETATM   15  C   UNL     1      -7.584   8.620  70.415  1.00  0.00    -0.075 C  
BRANCH  15  16
HETATM   16  C   UNL     1      -6.984   8.785  71.805  1.00  0.00    -0.073 C  
BRANCH  16  17
HETATM   17  C   UNL     1      -6.575   7.434  72.379  1.00  0.00    -0.055 C  
BRANCH  17  18
HETATM   18  C   UNL     1      -7.664   6.889  73.297  1.00  0.00    -0.093 C  
BRANCH  18  19
HETATM   19  C   UNL     1      -8.587   8.007  73.767  1.00  0.00    -0.328 C  
BRANCH  19  20
HETATM   20  C   UNL     1     -10.048   7.626  73.555  1.00  0.00    -0.345 C  
BRANCH  20  21
HETATM   21  C   UNL     1     -10.183   6.549  72.485  1.00  0.00    -0.202 C  
BRANCH  21  22
HETATM   22  C   UNL     1     -11.603   6.000  72.428  1.00  0.00    -0.300 C  
HETATM   23  O   UNL     1     -11.679   4.785  73.161  1.00  0.00    -0.319 OA 
HETATM   24  H   UNL     1     -12.564   4.443  73.125  1.00  0.00     0.000 HD 
ENDBRANCH  21  22
ENDBRANCH  20  21
ENDBRANCH  19  20
ENDBRANCH  18  19
ENDBRANCH  17  18
ENDBRANCH  16  17
ENDBRANCH  15  16
ENDBRANCH  14  15
ENDBRANCH  13  14
ENDBRANCH  12  13
ENDBRANCH  11  12
ENDBRANCH  10  11
ENDBRANCH   9  10
ENDBRANCH   8   9
ENDBRANCH   7   8
ENDBRANCH   6   7
ENDBRANCH   5   6
ENDBRANCH   4   5
ENDBRANCH   3   4
ENDBRANCH   2   3
TORSDOF 20
ENDMDL
MODEL      483
REMARK 921   NORMALIZED FREE ENERGY PREDICTED BY IDOCK:   -1.77 KCAL/MOL
REMARK 922        TOTAL FREE ENERGY PREDICTED BY IDOCK:   -6.70 KCAL/MOL
REMARK 923 INTER-LIGAND FREE ENERGY PREDICTED BY IDOCK:   -4.43 KCAL/MOL
REMARK 924 INTRA-LIGAND FREE ENERGY PREDICTED BY IDOCK:   -2.28 KCAL/MOL
REMARK 927      BINDING AFFINITY PREDICTED BY RF-SCORE:    0.00 PKD
ROOT
HETATM    1  C   UNL     1     -10.281   4.538  65.989  1.00  0.00    -0.288 C  
HETATM    2  C   UNL     1     -10.808   5.411  67.115  1.00  0.00    -0.083 C  
ENDROOT
BRANCH   2   3
HETATM    3  C   UNL     1      -9.671   5.918  67.997  1.00  0.00    -0.132 C  
BRANCH   3   4
HETATM    4  C   UNL     1      -9.454   5.000  69.197  1.00  0.00    -0.196 C  
BRANCH   4   5
HETATM    5  C   UNL     1      -8.720   3.730  68.779  1.00  0.00    -0.138 C  
BRANCH   5   6
HETATM    6  C   UNL     1      -7.323   3.686  69.389  1.00  0.00    -0.049 C  
BRANCH   6   7
HETATM    7  C   UNL     1      -6.442   4.778  68.796  1.00  0.00    -0.037 C  
BRANCH   7   8
HETATM    8  C   UNL     1      -5.934   5.710  69.889  1.00  0.00    -0.024 C  
BRANCH   8   9
HETATM    9  C   UNL     1      -6.281   5.160  71.266  1.00  0.00    -0.029 C  
BRANCH   9  10
HETATM   10  C   UNL     1      -7.193   6.123  72.012  1.00  0.00    -0.092 C  
BRANCH  10  11
HETATM   11  C   UNL     1      -7.766   5.460  73.257  1.00  0.00    -0.100 C  
BRANCH  11  12
HETATM   12  C   UNL     1      -8.822   6.350  73.898  1.00  0.00    -0.137 C  
BRANCH  12  13
HETATM   13  C   UNL     1      -9.241   7.453  72.939  1.00  0.00    -0.198 C  
BRANCH  13  14
HETATM   14  C   UNL     1     -10.751   7.647  72.972  1.00  0.00    -0.449 C  
BRANCH  14  15
HETATM   15  C   UNL     1     -11.450   6.528  72.214  1.00  0.00    -0.326 C  
BRANCH  15  16
HETATM   16  C   UNL     1     -11.841   6.990  70.817  1.00  0.00    -0.401 C  
BRANCH  16  17
HETATM   17  C   UNL     1     -11.824   8.512  70.729  1.00  0.00    -0.184 C  
BRANCH  17  18
HETATM   18  C   UNL     1     -10.929   8.974  69.586  1.00  0.00    -0.147 C  
BRANCH  18  19
HETATM   19  C   UNL     1     -10.416  10.388  69.836  1.00  0.00    -0.266 C  
BRANCH  19  20
HETATM   20  C   UNL     1     -11.577  11.358  70.026  1.00  0.00    -0.382 C  
BRANCH  20  21
HETATM   21  C   UNL     1     -11.524  12.482  68.997  1.00  0.00    -0.355 C  
BRANCH  21  22
HETATM   22  C   UNL     1     -10.088  12.818  68.619  1.00  0.00    -0.124 C  
HETATM   23  O   UNL     1      -9.610  13.878  69.438  1.00  0.00    -0.290 OA 
HETATM   24  H   UNL     1      -8.714  14.087  69.203  1.00  0.00     0.000 HD 
ENDBRANCH  21  22
ENDBRANCH  20  21
ENDBRANCH  19  20
ENDBRANCH  18  19
ENDBRANCH  17  18
ENDBRANCH  16  17
ENDBRANCH  15  16
ENDBRANCH  14  15
ENDBRANCH  13  14
ENDBRANCH  12  13
ENDBRANCH  11  12
ENDBRANCH  10  11
ENDBRANCH   9  10
ENDBRANCH   8   9
ENDBRANCH   7   8
ENDBRANCH   6   7
ENDBRANCH   5   6
ENDBRANCH   4   5
ENDBRANCH   3   4
ENDBRANCH   2   3
TORSDOF 20
ENDMDL
MODEL      484
REMARK 921   NORMALIZED FREE ENERGY PREDICTED BY IDOCK:   -1.70 KCAL/MOL
REMARK 922        TOTAL FREE ENERGY PREDICTED BY IDOCK:   -6.55 KCAL/MOL
REMARK 923 INTER-LIGAND FREE ENERGY PREDICTED BY IDOCK:   -4.83 KCAL/MOL
REMARK 924 INTRA-LIGAND FREE ENERGY PREDICTED BY IDOCK:   -1.71 KCAL/MOL
REMARK 927      BINDING AFFINITY PREDICTED BY RF-SCORE:    0.00 PKD
ROOT
HETATM    1  C   UNL     1     -10.757   4.905  66.462  1.00  0.00    -0.120 C  
HETATM    2  C   UNL     1      -9.972   5.181  67.733  1.00  0.00    -0.202 C  
ENDROOT
BRANCH   2   3
HETATM    3  C   UNL     1      -9.032   6.369  67.552  1.00  0.00    -0.116 C  
BRANCH   3   4
HETATM    4  C   UNL     1      -9.672   7.450  66.685  1.00  0.00    -0.262 C  
BRANCH   4   5
HETATM    5  C   UNL     1     -10.264   8.557  67.552  1.00  0.00    -0.307 C  
BRANCH   5   6
HETATM    6  C   UNL     1      -9.345   8.877  68.726  1.00  0.00    -0.137 C  
BRANCH   6   7
HETATM    7  C   UNL     1      -9.515  10.328  69.162  1.00  0.00    -0.225 C  
BRANCH   7   8
HETATM    8  C   UNL     1     -10.826  10.511  69.915  1.00  0.00    -0.334 C  
BRANCH   8   9
HETATM    9  C   UNL     1     -11.727  11.502  69.189  1.00  0.00    -0.395 C  
BRANCH   9  10
HETATM   10  C   UNL     1     -11.336  12.932  69.533  1.00  0.00    -0.221 C  
BRANCH  10  11
HETATM   11  C   UNL     1     -12.074  13.918  68.638  1.00  0.00    -0.337 C  
BRANCH  11  12
HETATM   12  C   UNL     1     -11.090  14.687  67.768  1.00  0.00    -0.306 C  
BRANCH  12  13
HETATM   13  C   UNL     1     -10.486  13.775  66.712  1.00  0.00    -0.270 C  
BRANCH  13  14
HETATM   14  C   UNL     1      -9.097  14.260  66.316  1.00  0.00    -0.101 C  
BRANCH  14  15
HETATM   15  C   UNL     1      -8.078  13.887  67.382  1.00  0.00    -0.190 C  
BRANCH  15  16
HETATM   16  C   UNL     1      -6.965  14.924  67.445  1.00  0.00    -0.162 C  
BRANCH  16  17
HETATM   17  C   UNL     1      -6.827  15.480  68.858  1.00  0.00    -0.123 C  
BRANCH  17  18
HETATM   18  C   UNL     1      -6.402  16.943  68.820  1.00  0.00    -0.168 C  
BRANCH  18  19
HETATM   19  C   UNL     1      -6.734  17.570  67.471  1.00  0.00    -0.175 C  
BRANCH  19  20
HETATM   20  C   UNL     1      -7.672  18.760  67.644  1.00  0.00    -0.252 C  
BRANCH  20  21
HETATM   21  C   UNL     1      -8.672  18.839  66.497  1.00  0.00    -0.317 C  
BRANCH  21  22
HETATM   22  C   UNL     1      -9.039  20.283  66.182  1.00  0.00    -0.132 C  
HETATM   23  O   UNL     1      -7.898  20.972  65.688  1.00  0.00     0.017 OA 
HETATM   24  H   UNL     1      -8.126  21.873  65.492  1.00  0.00     0.000 HD 
ENDBRANCH  21  22
ENDBRANCH  20  21
ENDBRANCH  19  20
ENDBRANCH  18  19
ENDBRANCH  17  18
ENDBRANCH  16  17
ENDBRANCH  15  16
ENDBRANCH  14  15
ENDBRANCH  13  14
ENDBRANCH  12  13
ENDBRANCH  11  12
ENDBRANCH  10  11
ENDBRANCH   9  10
ENDBRANCH   8   9
ENDBRANCH   7   8
ENDBRANCH   6   7
ENDBRANCH   5   6
ENDBRANCH   4   5
ENDBRANCH   3   4
ENDBRANCH   2   3
TORSDOF 20
ENDMDL
MODEL      485
REMARK 921   NORMALIZED FREE ENERGY PREDICTED BY IDOCK:   -1.66 KCAL/MOL
REMARK 922        TOTAL FREE ENERGY PREDICTED BY IDOCK:   -6.46 KCAL/MOL
REMARK 923 INTER-LIGAND FREE ENERGY PREDICTED BY IDOCK:   -4.32 KCAL/MOL
REMARK 924 INTRA-LIGAND FREE ENERGY PREDICTED BY IDOCK:   -2.14 KCAL/MOL
REMARK 927      BINDING AFFINITY PREDICTED BY RF-SCORE:    0.00 PKD
ROOT
HETATM    1  C   UNL     1     -11.841  13.164  67.670  1.00  0.00    -0.405 C  
HETATM    2  C   UNL     1     -11.555  11.701  67.965  1.00  0.00    -0.383 C  
ENDROOT
BRANCH   2   3
HETATM    3  C   UNL     1     -10.778  11.052  66.822  1.00  0.00    -0.319 C  
BRANCH   3   4
HETATM    4  C   UNL     1      -9.273  11.166  67.046  1.00  0.00    -0.172 C  
BRANCH   4   5
HETATM    5  C   UNL     1      -8.968  11.525  68.497  1.00  0.00    -0.146 C  
BRANCH   5   6
HETATM    6  C   UNL     1      -7.502  11.262  68.825  1.00  0.00    -0.123 C  
BRANCH   6   7
HETATM    7  C   UNL     1      -7.157   9.795  68.603  1.00  0.00    -0.071 C  
BRANCH   7   8
HETATM    8  C   UNL     1      -8.169   8.894  69.298  1.00  0.00    -0.114 C  
BRANCH   8   9
HETATM    9  C   UNL     1      -7.550   8.238  70.525  1.00  0.00    -0.076 C  
BRANCH   9  10
HETATM   10  C   UNL     1      -8.630   7.639  71.414  1.00  0.00    -0.127 C  
BRANCH  10  11
HETATM   11  C   UNL     1     -10.010   8.088  70.954  1.00  0.00    -0.207 C  
BRANCH  11  12
HETATM   12  C   UNL     1     -11.064   7.064  71.350  1.00  0.00    -0.274 C  
BRANCH  12  13
HETATM   13  C   UNL     1     -11.865   6.627  70.134  1.00  0.00    -0.347 C  
BRANCH  13  14
HETATM   14  C   UNL     1     -11.088   6.903  68.853  1.00  0.00    -0.171 C  
BRANCH  14  15
HETATM   15  C   UNL     1     -10.651   5.599  68.203  1.00  0.00    -0.256 C  
BRANCH  15  16
HETATM   16  C   UNL     1      -9.366   5.087  68.841  1.00  0.00    -0.174 C  
BRANCH  16  17
HETATM   17  C   UNL     1      -8.152   5.517  68.026  1.00  0.00    -0.096 C  
BRANCH  17  18
HETATM   18  C   UNL     1      -7.475   4.308  67.392  1.00  0.00    -0.073 C  
BRANCH  18  19
HETATM   19  C   UNL     1      -6.918   4.657  66.016  1.00  0.00    -0.066 C  
BRANCH  19  20
HETATM   20  C   UNL     1      -7.595   3.826  64.932  1.00  0.00    -0.077 C  
BRANCH  20  21
HETATM   21  C   UNL     1      -8.114   4.713  63.807  1.00  0.00    -0.101 C  
BRANCH  21  22
HETATM   22  C   UNL     1      -9.284   4.059  63.083  1.00  0.00    -0.123 C  
HETATM   23  O   UNL     1     -10.491   4.314  63.790  1.00  0.00    -0.416 OA 
HETATM   24  H   UNL     1     -11.220   3.906  63.338  1.00  0.00     0.000 HD 
ENDBRANCH  21  22
ENDBRANCH  20  21
ENDBRANCH  19  20
ENDBRANCH  18  19
ENDBRANCH  17  18
ENDBRANCH  16  17
ENDBRANCH  15  16
ENDBRANCH  14  15
ENDBRANCH  13  14
ENDBRANCH  12  13
ENDBRANCH  11  12
ENDBRANCH  10  11
ENDBRANCH   9  10
ENDBRANCH   8   9
ENDBRANCH   7   8
ENDBRANCH   6   7
ENDBRANCH   5   6
ENDBRANCH   4   5
ENDBRANCH   3   4
ENDBRANCH   2   3
TORSDOF 20
ENDMDL
MODEL      486
REMARK 921   NORMALIZED FREE ENERGY PREDICTED BY IDOCK:   -1.56 KCAL/MOL
REMARK 922        TOTAL FREE ENERGY PREDICTED BY IDOCK:   -6.26 KCAL/MOL
REMARK 923 INTER-LIGAND FREE ENERGY PREDICTED BY IDOCK:   -4.59 KCAL/MOL
REMARK 924 INTRA-LIGAND FREE ENERGY PREDICTED BY IDOCK:   -1.67 KCAL/MOL
REMARK 927      BINDING AFFINITY PREDICTED BY RF-SCORE:    0.00 PKD
ROOT
HETATM    1  C   UNL     1      -9.921  17.424  66.382  1.00  0.00    -0.322 C  
HETATM    2  C   UNL     1     -10.726  17.024  67.607  1.00  0.00    -0.295 C  
ENDROOT
BRANCH   2   3
HETATM    3  C   UNL     1     -10.011  15.936  68.403  1.00  0.00    -0.222 C  
BRANCH   3   4
HETATM    4  C   UNL     1      -9.617  14.766  67.506  1.00  0.00    -0.208 C  
BRANCH   4   5
HETATM    5  C   UNL     1     -10.757  13.757  67.404  1.00  0.00    -0.279 C  
BRANCH   5   6
HETATM    6  C   UNL     1     -11.308  13.702  65.983  1.00  0.00    -0.322 C  
BRANCH   6   7
HETATM    7  C   UNL     1     -10.173  13.689  64.966  1.00  0.00    -0.356 C  
BRANCH   7   8
HETATM    8  C   UNL     1     -10.496  12.745  63.815  1.00  0.00    -0.335 C  
BRANCH   8   9
HETATM    9  C   UNL     1      -9.321  11.817  63.537  1.00  0.00    -0.043 C  
BRANCH   9  10
HETATM   10  C   UNL     1      -9.748  10.361  63.662  1.00  0.00    -0.338 C  
BRANCH  10  11
HETATM   11  C   UNL     1      -9.557   9.869  65.090  1.00  0.00    -0.367 C  
BRANCH  11  12
HETATM   12  C   UNL     1      -8.144   9.338  65.286  1.00  0.00    -0.121 C  
BRANCH  12  13
HETATM   13  C   UNL     1      -7.785   8.359  64.179  1.00  0.00    -0.137 C  
BRANCH  13  14
HETATM   14  C   UNL     1      -8.509   7.034  64.381  1.00  0.00     0.232 C  
BRANCH  14  15
HETATM   15  C   UNL     1      -7.594   5.868  64.038  1.00  0.00    -0.085 C  
BRANCH  15  16
HETATM   16  C   UNL     1      -6.876   5.367  65.284  1.00  0.00    -0.053 C  
BRANCH  16  17
HETATM   17  C   UNL     1      -7.849   5.237  66.450  1.00  0.00    -0.103 C  
BRANCH  17  18
HETATM   18  C   UNL     1      -8.456   3.840  66.491  1.00  0.00    -0.106 C  
BRANCH  18  19
HETATM   19  C   UNL     1      -9.476   3.724  67.619  1.00  0.00    -0.234 C  
BRANCH  19  20
HETATM   20  C   UNL     1      -9.108   4.647  68.776  1.00  0.00    -0.158 C  
BRANCH  20  21
HETATM   21  C   UNL     1     -10.351   5.295  69.374  1.00  0.00    -0.313 C  
BRANCH  21  22
HETATM   22  C   UNL     1     -10.275   5.337  70.895  1.00  0.00    -0.234 C  
HETATM   23  O   UNL     1     -10.104   6.679  71.331  1.00  0.00    -0.190 OA 
HETATM   24  H   UNL     1     -10.057   6.705  72.280  1.00  0.00     0.000 HD 
ENDBRANCH  21  22
ENDBRANCH  20  21
ENDBRANCH  19  20
ENDBRANCH  18  19
ENDBRANCH  17  18
ENDBRANCH  16  17
ENDBRANCH  15  16
ENDBRANCH  14  15
ENDBRANCH  13  14
ENDBRANCH  12  13
ENDBRANCH  11  12
ENDBRANCH  10  11
ENDBRANCH   9  10
ENDBRANCH   8   9
ENDBRANCH   7   8
ENDBRANCH   6   7
ENDBRANCH   5   6
ENDBRANCH   4   5
ENDBRANCH   3   4
ENDBRANCH   2   3
TORSDOF 20
ENDMDL
MODEL      487
REMARK 921   NORMALIZED FREE ENERGY PREDICTED BY IDOCK:   -1.55 KCAL/MOL
REMARK 922        TOTAL FREE ENERGY PREDICTED BY IDOCK:   -6.23 KCAL/MOL
REMARK 923 INTER-LIGAND FREE ENERGY PREDICTED BY IDOCK:   -4.06 KCAL/MOL
REMARK 924 INTRA-LIGAND FREE ENERGY PREDICTED BY IDOCK:   -2.17 KCAL/MOL
REMARK 927      BINDING AFFINITY PREDICTED BY RF-SCORE:    0.00 PKD
ROOT
HETATM    1  C   UNL     1      -8.420  12.336  67.869  1.00  0.00    -0.165 C  
HETATM    2  C   UNL     1      -7.115  11.928  67.207  1.00  0.00    -0.143 C  
ENDROOT
BRANCH   2   3
HETATM    3  C   UNL     1      -7.090  10.430  66.917  1.00  0.00    -0.094 C  
BRANCH   3   4
HETATM    4  C   UNL     1      -5.787  10.023  66.235  1.00  0.00    -0.061 C  
BRANCH   4   5
HETATM    5  C   UNL     1      -5.716   8.508  66.067  1.00  0.00    -0.043 C  
BRANCH   5   6
HETATM    6  C   UNL     1      -5.780   8.121  64.594  1.00  0.00    -0.045 C  
BRANCH   6   7
HETATM    7  C   UNL     1      -7.215   8.177  64.085  1.00  0.00    -0.086 C  
BRANCH   7   8
HETATM    8  C   UNL     1      -8.143   7.403  65.012  1.00  0.00    -0.122 C  
BRANCH   8   9
HETATM    9  C   UNL     1      -8.020   5.905  64.766  1.00  0.00    -0.126 C  
BRANCH   9  10
HETATM   10  C   UNL     1      -7.810   5.163  66.078  1.00  0.00    -0.103 C  
BRANCH  10  11
HETATM   11  C   UNL     1      -8.190   6.046  67.258  1.00  0.00    -0.106 C  
BRANCH  11  12
HETATM   12  C   UNL     1      -9.598   5.719  67.736  1.00  0.00    -0.121 C  
BRANCH  12  13
HETATM   13  C   UNL     1      -9.553   5.035  69.094  1.00  0.00    -0.220 C  
BRANCH  13  14
HETATM   14  C   UNL     1     -10.770   5.418  69.927  1.00  0.00    -0.292 C  
BRANCH  14  15
HETATM   15  C   UNL     1     -11.112   6.887  69.728  1.00  0.00    -0.316 C  
BRANCH  15  16
HETATM   16  C   UNL     1     -10.891   7.668  71.017  1.00  0.00    -0.255 C  
BRANCH  16  17
HETATM   17  C   UNL     1     -10.341   9.057  70.718  1.00  0.00    -0.305 C  
BRANCH  17  18
HETATM   18  C   UNL     1      -8.843   9.112  70.991  1.00  0.00    -0.267 C  
BRANCH  18  19
HETATM   19  C   UNL     1      -8.371   7.839  71.685  1.00  0.00    -0.125 C  
BRANCH  19  20
HETATM   20  C   UNL     1      -7.376   8.166  72.794  1.00  0.00    -0.151 C  
BRANCH  20  21
HETATM   21  C   UNL     1      -8.069   8.224  74.150  1.00  0.00    -0.284 C  
BRANCH  21  22
HETATM   22  C   UNL     1      -8.912   6.979  74.394  1.00  0.00    -0.207 C  
HETATM   23  O   UNL     1     -10.290   7.329  74.426  1.00  0.00    -0.428 OA 
HETATM   24  H   UNL     1     -10.815   6.553  74.579  1.00  0.00     0.000 HD 
ENDBRANCH  21  22
ENDBRANCH  20  21
ENDBRANCH  19  20
ENDBRANCH  18  19
ENDBRANCH  17  18
ENDBRANCH  16  17
ENDBRANCH  15  16
ENDBRANCH  14  15
ENDBRANCH  13  14
ENDBRANCH  12  13
ENDBRANCH  11  12
ENDBRANCH  10  11
ENDBRANCH   9  10
ENDBRANCH   8   9
ENDBRANCH   7   8
ENDBRANCH   6   7
ENDBRANCH   5   6
ENDBRANCH   4   5
ENDBRANCH   3   4
ENDBRANCH   2   3
TORSDOF 20
ENDMDL
MODEL      488
REMARK 921   NORMALIZED FREE ENERGY PREDICTED BY IDOCK:   -1.52 KCAL/MOL
REMARK 922        TOTAL FREE ENERGY PREDICTED BY IDOCK:   -6.16 KCAL/MOL
REMARK 923 INTER-LIGAND FREE ENERGY PREDICTED BY IDOCK:   -3.59 KCAL/MOL
REMARK 924 INTRA-LIGAND FREE ENERGY PREDICTED BY IDOCK:   -2.57 KCAL/MOL
REMARK 927      BINDING AFFINITY PREDICTED BY RF-SCORE:    0.00 PKD
ROOT
HETATM    1  C   UNL     1      -7.202  10.562  66.219  1.00  0.00    -0.133 C  
HETATM    2  C   UNL     1      -8.636  10.060  66.210  1.00  0.00    -0.137 C  
ENDROOT
BRANCH   2   3
HETATM    3  C   UNL     1      -9.041   9.530  67.582  1.00  0.00    -0.131 C  
BRANCH   3   4
HETATM    4  C   UNL     1      -9.404   8.049  67.515  1.00  0.00    -0.171 C  
BRANCH   4   5
HETATM    5  C   UNL     1      -9.833   7.535  68.886  1.00  0.00    -0.159 C  
BRANCH   5   6
HETATM    6  C   UNL     1      -9.633   6.027  68.988  1.00  0.00    -0.153 C  
BRANCH   6   7
HETATM    7  C   UNL     1      -9.170   5.455  67.653  1.00  0.00    -0.116 C  
BRANCH   7   8
HETATM    8  C   UNL     1      -8.094   4.399  67.867  1.00  0.00    -0.094 C  
BRANCH   8   9
HETATM    9  C   UNL     1      -6.833   5.028  68.445  1.00  0.00    -0.056 C  
BRANCH   9  10
HETATM   10  C   UNL     1      -6.304   4.197  69.605  1.00  0.00    -0.028 C  
BRANCH  10  11
HETATM   11  C   UNL     1      -7.425   3.379  70.230  1.00  0.00    -0.041 C  
BRANCH  11  12
HETATM   12  C   UNL     1      -7.955   4.068  71.480  1.00  0.00    -0.076 C  
BRANCH  12  13
HETATM   13  C   UNL     1      -8.098   3.070  72.618  1.00  0.00    -0.067 C  
BRANCH  13  14
HETATM   14  C   UNL     1      -9.417   3.279  73.351  1.00  0.00    -0.125 C  
BRANCH  14  15
HETATM   15  C   UNL     1     -10.478   3.811  72.400  1.00  0.00    -0.125 C  
BRANCH  15  16
HETATM   16  C   UNL     1     -11.446   4.728  73.136  1.00  0.00    -0.348 C  
BRANCH  16  17
HETATM   17  C   UNL     1     -11.660   6.021  72.359  1.00  0.00    -0.349 C  
BRANCH  17  18
HETATM   18  C   UNL     1     -10.368   6.827  72.292  1.00  0.00    -0.219 C  
BRANCH  18  19
HETATM   19  C   UNL     1      -9.917   7.245  73.688  1.00  0.00    -0.377 C  
BRANCH  19  20
HETATM   20  C   UNL     1      -8.585   7.985  73.625  1.00  0.00    -0.322 C  
BRANCH  20  21
HETATM   21  C   UNL     1      -7.455   7.043  73.225  1.00  0.00    -0.077 C  
BRANCH  21  22
HETATM   22  C   UNL     1      -6.190   7.815  72.874  1.00  0.00    -0.063 C  
HETATM   23  O   UNL     1      -6.533   9.020  72.202  1.00  0.00    -0.223 OA 
HETATM   24  H   UNL     1      -5.744   9.501  71.982  1.00  0.00     0.000 HD 
ENDBRANCH  21  22
ENDBRANCH  20  21
ENDBRANCH  19  20
ENDBRANCH  18  19
ENDBRANCH  17  18
ENDBRANCH  16  17
ENDBRANCH  15  16
ENDBRANCH  14  15
ENDBRANCH  13  14
ENDBRANCH  12  13
ENDBRANCH  11  12
ENDBRANCH  10  11
ENDBRANCH   9  10
ENDBRANCH   8   9
ENDBRANCH   7   8
ENDBRANCH   6   7
ENDBRANCH   5   6
ENDBRANCH   4   5
ENDBRANCH   3   4
ENDBRANCH   2   3
TORSDOF 20
ENDMDL
MODEL      489
REMARK 921   NORMALIZED FREE ENERGY PREDICTED BY IDOCK:   -1.49 KCAL/MOL
REMARK 922        TOTAL FREE ENERGY PREDICTED BY IDOCK:   -6.10 KCAL/MOL
REMARK 923 INTER-LIGAND FREE ENERGY PREDICTED BY IDOCK:   -4.09 KCAL/MOL
REMARK 924 INTRA-LIGAND FREE ENERGY PREDICTED BY IDOCK:   -2.01 KCAL/MOL
REMARK 927      BINDING AFFINITY PREDICTED BY RF-SCORE:    0.00 PKD
ROOT
HETATM    1  C   UNL     1      -8.924  13.006  68.011  1.00  0.00    -0.199 C  
HETATM    2  C   UNL     1      -7.686  12.501  67.288  1.00  0.00    -0.146 C  
ENDROOT
BRANCH   2   3
HETATM    3  C   UNL     1      -7.776  11.000  67.026  1.00  0.00    -0.134 C  
BRANCH   3   4
HETATM    4  C   UNL     1      -6.503  10.480  66.366  1.00  0.00    -0.105 C  
BRANCH   4   5
HETATM    5  C   UNL     1      -6.421   8.960  66.473  1.00  0.00    -0.063 C  
BRANCH   5   6
HETATM    6  C   UNL     1      -6.884   8.299  65.179  1.00  0.00    -0.069 C  
BRANCH   6   7
HETATM    7  C   UNL     1      -8.366   7.950  65.253  1.00  0.00    -0.140 C  
BRANCH   7   8
HETATM    8  C   UNL     1      -8.630   6.972  66.389  1.00  0.00    -0.136 C  
BRANCH   8   9
HETATM    9  C   UNL     1      -8.046   5.603  66.066  1.00  0.00    -0.109 C  
BRANCH   9  10
HETATM   10  C   UNL     1      -7.287   5.049  67.263  1.00  0.00    -0.082 C  
BRANCH  10  11
HETATM   11  C   UNL     1      -7.723   5.749  68.543  1.00  0.00    -0.093 C  
BRANCH  11  12
HETATM   12  C   UNL     1      -8.752   4.909  69.286  1.00  0.00    -0.107 C  
BRANCH  12  13
HETATM   13  C   UNL     1      -8.105   4.191  70.459  1.00  0.00    -0.056 C  
BRANCH  13  14
HETATM   14  C   UNL     1      -9.111   3.989  71.585  1.00  0.00    -0.174 C  
BRANCH  14  15
HETATM   15  C   UNL     1     -10.139   5.111  71.589  1.00  0.00    -0.262 C  
BRANCH  15  16
HETATM   16  C   UNL     1     -10.416   5.578  73.012  1.00  0.00    -0.244 C  
BRANCH  16  17
HETATM   17  C   UNL     1      -9.591   6.815  73.344  1.00  0.00    -0.195 C  
BRANCH  17  18
HETATM   18  C   UNL     1      -9.198   7.556  72.071  1.00  0.00    -0.163 C  
BRANCH  18  19
HETATM   19  C   UNL     1      -9.814   8.950  72.043  1.00  0.00    -0.325 C  
BRANCH  19  20
HETATM   20  C   UNL     1      -9.999   9.430  70.607  1.00  0.00    -0.349 C  
BRANCH  20  21
HETATM   21  C   UNL     1     -11.377  10.051  70.411  1.00  0.00    -0.392 C  
BRANCH  21  22
HETATM   22  C   UNL     1     -12.080  10.269  71.744  1.00  0.00    -0.100 C  
HETATM   23  O   UNL     1     -12.971  11.371  71.643  1.00  0.00    -0.448 OA 
HETATM   24  H   UNL     1     -13.409  11.507  72.475  1.00  0.00     0.000 HD 
ENDBRANCH  21  22
ENDBRANCH  20  21
ENDBRANCH  19  20
ENDBRANCH  18  19
ENDBRANCH  17  18
ENDBRANCH  16  17
ENDBRANCH  15  16
ENDBRANCH  14  15
ENDBRANCH  13  14
ENDBRANCH  12  13
ENDBRANCH  11  12
ENDBRANCH  10  11
ENDBRANCH   9  10
ENDBRANCH   8   9
ENDBRANCH   7   8
ENDBRANCH   6   7
ENDBRANCH   5   6
ENDBRANCH   4   5
ENDBRANCH   3   4
ENDBRANCH   2   3
TORSDOF 20
ENDMDL
MODEL      490
REMARK 921   NORMALIZED FREE ENERGY PREDICTED BY IDOCK:   -1.48 KCAL/MOL
REMARK 922        TOTAL FREE ENERGY PREDICTED BY IDOCK:   -6.08 KCAL/MOL
REMARK 923 INTER-LIGAND FREE ENERGY PREDICTED BY IDOCK:   -3.58 KCAL/MOL
REMARK 924 INTRA-LIGAND FREE ENERGY PREDICTED BY IDOCK:   -2.50 KCAL/MOL
REMARK 927      BINDING AFFINITY PREDICTED BY RF-SCORE:    0.00 PKD
ROOT
HETATM    1  C   UNL     1      -9.032  12.926  68.083  1.00  0.00    -0.202 C  
HETATM    2  C   UNL     1      -7.628  12.608  67.597  1.00  0.00    -0.152 C  
ENDROOT
BRANCH   2   3
HETATM    3  C   UNL     1      -7.576  11.241  66.923  1.00  0.00    -0.148 C  
BRANCH   3   4
HETATM    4  C   UNL     1      -6.181  10.949  66.377  1.00  0.00    -0.130 C  
BRANCH   4   5
HETATM    5  C   UNL     1      -6.167   9.633  65.605  1.00  0.00    -0.068 C  
BRANCH   5   6
HETATM    6  C   UNL     1      -5.704   9.852  64.168  1.00  0.00    -0.111 C  
BRANCH   6   7
HETATM    7  C   UNL     1      -6.899   9.987  63.233  1.00  0.00    -0.131 C  
BRANCH   7   8
HETATM    8  C   UNL     1      -7.795   8.759  63.327  1.00  0.00    -0.151 C  
BRANCH   8   9
HETATM    9  C   UNL     1      -7.225   7.614  62.501  1.00  0.00    -0.085 C  
BRANCH   9  10
HETATM   10  C   UNL     1      -6.979   6.393  63.376  1.00  0.00    -0.047 C  
BRANCH  10  11
HETATM   11  C   UNL     1      -7.769   6.499  64.673  1.00  0.00    -0.108 C  
BRANCH  11  12
HETATM   12  C   UNL     1      -8.987   5.587  64.631  1.00  0.00     0.127 C  
BRANCH  12  13
HETATM   13  C   UNL     1      -8.827   4.439  65.616  1.00  0.00    -0.124 C  
BRANCH  13  14
HETATM   14  C   UNL     1     -10.019   4.376  66.563  1.00  0.00    -0.245 C  
BRANCH  14  15
HETATM   15  C   UNL     1     -10.642   5.754  66.730  1.00  0.00    -0.373 C  
BRANCH  15  16
HETATM   16  C   UNL     1     -10.982   6.014  68.191  1.00  0.00    -0.340 C  
BRANCH  16  17
HETATM   17  C   UNL     1      -9.723   6.334  68.988  1.00  0.00    -0.147 C  
BRANCH  17  18
HETATM   18  C   UNL     1      -8.722   7.097  68.128  1.00  0.00    -0.127 C  
BRANCH  18  19
HETATM   19  C   UNL     1      -8.479   8.494  68.689  1.00  0.00    -0.131 C  
BRANCH  19  20
HETATM   20  C   UNL     1      -9.100   8.635  70.075  1.00  0.00    -0.157 C  
BRANCH  20  21
HETATM   21  C   UNL     1      -8.109   9.245  71.059  1.00  0.00    -0.115 C  
BRANCH  21  22
HETATM   22  C   UNL     1      -6.896   9.818  70.338  1.00  0.00    -0.135 C  
HETATM   23  O   UNL     1      -6.763  11.200  70.644  1.00  0.00    -0.476 OA 
HETATM   24  H   UNL     1      -6.006  11.558  70.195  1.00  0.00     0.000 HD 
ENDBRANCH  21  22
ENDBRANCH  20  21
ENDBRANCH  19  20
ENDBRANCH  18  19
ENDBRANCH  17  18
ENDBRANCH  16  17
ENDBRANCH  15  16
ENDBRANCH  14  15
ENDBRANCH  13  14
ENDBRANCH  12  13
ENDBRANCH  11  12
ENDBRANCH  10  11
ENDBRANCH   9  10
ENDBRANCH   8   9
ENDBRANCH   7   8
ENDBRANCH   6   7
ENDBRANCH   5   6
ENDBRANCH   4   5
ENDBRANCH   3   4
ENDBRANCH   2   3
TORSDOF 20
ENDMDL
MODEL      491
REMARK 921   NORMALIZED FREE ENERGY PREDICTED BY IDOCK:   -1.44 KCAL/MOL
REMARK 922        TOTAL FREE ENERGY PREDICTED BY IDOCK:   -5.99 KCAL/MOL
REMARK 923 INTER-LIGAND FREE ENERGY PREDICTED BY IDOCK:   -3.82 KCAL/MOL
REMARK 924 INTRA-LIGAND FREE ENERGY PREDICTED BY IDOCK:   -2.17 KCAL/MOL
REMARK 927      BINDING AFFINITY PREDICTED BY RF-SCORE:    0.00 PKD
ROOT
HETATM    1  C   UNL     1      -5.584  13.885  69.733  1.00  0.00    -0.103 C  
HETATM    2  C   UNL     1      -7.028  14.319  69.911  1.00  0.00     0.041 C  
ENDROOT
BRANCH   2   3
HETATM    3  C   UNL     1      -7.696  14.572  68.562  1.00  0.00    -0.129 C  
BRANCH   3   4
HETATM    4  C   UNL     1      -7.717  13.305  67.712  1.00  0.00    -0.159 C  
BRANCH   4   5
HETATM    5  C   UNL     1      -8.343  12.147  68.484  1.00  0.00    -0.093 C  
BRANCH   5   6
HETATM    6  C   UNL     1      -7.786  10.811  68.004  1.00  0.00    -0.101 C  
BRANCH   6   7
HETATM    7  C   UNL     1      -8.735   9.673  68.359  1.00  0.00    -0.120 C  
BRANCH   7   8
HETATM    8  C   UNL     1      -9.546   9.250  67.141  1.00  0.00    -0.208 C  
BRANCH   8   9
HETATM    9  C   UNL     1      -9.552   7.734  67.001  1.00  0.00    -0.238 C  
BRANCH   9  10
HETATM   10  C   UNL     1      -8.173   7.163  67.302  1.00  0.00    -0.119 C  
BRANCH  10  11
HETATM   11  C   UNL     1      -7.506   6.678  66.023  1.00  0.00    -0.081 C  
BRANCH  11  12
HETATM   12  C   UNL     1      -6.479   7.692  65.540  1.00  0.00    -0.042 C  
BRANCH  12  13
HETATM   13  C   UNL     1      -6.885   8.258  64.188  1.00  0.00    -0.067 C  
BRANCH  13  14
HETATM   14  C   UNL     1      -6.343   9.671  64.015  1.00  0.00    -0.110 C  
BRANCH  14  15
HETATM   15  C   UNL     1      -7.390  10.569  63.373  1.00  0.00     0.040 C  
BRANCH  15  16
HETATM   16  C   UNL     1      -8.335   9.752  62.502  1.00  0.00    -0.156 C  
BRANCH  16  17
HETATM   17  C   UNL     1      -9.784   9.983  62.916  1.00  0.00     0.053 C  
BRANCH  17  18
HETATM   18  C   UNL     1     -10.128  11.467  62.864  1.00  0.00    -0.249 C  
BRANCH  18  19
HETATM   19  C   UNL     1     -11.042  11.852  64.022  1.00  0.00    -0.459 C  
BRANCH  19  20
HETATM   20  C   UNL     1     -11.849  13.100  63.680  1.00  0.00    -0.549 C  
BRANCH  20  21
HETATM   21  C   UNL     1     -11.907  14.056  64.865  1.00  0.00    -0.402 C  
BRANCH  21  22
HETATM   22  C   UNL     1     -10.738  13.830  65.815  1.00  0.00    -0.281 C  
HETATM   23  O   UNL     1     -11.225  13.607  67.132  1.00  0.00    -0.293 OA 
HETATM   24  H   UNL     1     -10.496  13.466  67.725  1.00  0.00     0.000 HD 
ENDBRANCH  21  22
ENDBRANCH  20  21
ENDBRANCH  19  20
ENDBRANCH  18  19
ENDBRANCH  17  18
ENDBRANCH  16  17
ENDBRANCH  15  16
ENDBRANCH  14  15
ENDBRANCH  13  14
ENDBRANCH  12  13
ENDBRANCH  11  12
ENDBRANCH  10  11
ENDBRANCH   9  10
ENDBRANCH   8   9
ENDBRANCH   7   8
ENDBRANCH   6   7
ENDBRANCH   5   6
ENDBRANCH   4   5
ENDBRANCH   3   4
ENDBRANCH   2   3
TORSDOF 20
ENDMDL
MODEL      492
REMARK 921   NORMALIZED FREE ENERGY PREDICTED BY IDOCK:   -1.44 KCAL/MOL
REMARK 922        TOTAL FREE ENERGY PREDICTED BY IDOCK:   -5.98 KCAL/MOL
REMARK 923 INTER-LIGAND FREE ENERGY PREDICTED BY IDOCK:   -5.99 KCAL/MOL
REMARK 924 INTRA-LIGAND FREE ENERGY PREDICTED BY IDOCK:    0.00 KCAL/MOL
REMARK 927      BINDING AFFINITY PREDICTED BY RF-SCORE:    0.00 PKD
ROOT
HETATM    1  C   UNL     1     -10.518   6.519  69.818  1.00  0.00    -0.256 C  
HETATM    2  C   UNL     1     -10.399   6.060  68.375  1.00  0.00    -0.252 C  
ENDROOT
BRANCH   2   3
HETATM    3  C   UNL     1     -10.714   7.198  67.409  1.00  0.00    -0.368 C  
BRANCH   3   4
HETATM    4  C   UNL     1      -9.642   8.282  67.468  1.00  0.00    -0.194 C  
BRANCH   4   5
HETATM    5  C   UNL     1      -9.556   9.030  66.140  1.00  0.00    -0.341 C  
BRANCH   5   6
HETATM    6  C   UNL     1     -10.471  10.249  66.143  1.00  0.00    -0.200 C  
BRANCH   6   7
HETATM    7  C   UNL     1     -10.207  11.124  64.924  1.00  0.00    -0.361 C  
BRANCH   7   8
HETATM    8  C   UNL     1     -11.467  11.879  64.522  1.00  0.00    -0.363 C  
BRANCH   8   9
HETATM    9  C   UNL     1     -11.116  13.259  63.981  1.00  0.00    -0.342 C  
BRANCH   9  10
HETATM   10  C   UNL     1     -11.884  14.338  64.731  1.00  0.00    -0.436 C  
BRANCH  10  11
HETATM   11  C   UNL     1     -10.922  15.313  65.395  1.00  0.00    -0.380 C  
BRANCH  11  12
HETATM   12  C   UNL     1      -9.906  14.565  66.247  1.00  0.00    -0.322 C  
BRANCH  12  13
HETATM   13  C   UNL     1      -9.149  15.531  67.145  1.00  0.00    -0.233 C  
BRANCH  13  14
HETATM   14  C   UNL     1      -8.122  14.786  67.987  1.00  0.00    -0.140 C  
BRANCH  14  15
HETATM   15  C   UNL     1      -6.718  15.290  67.685  1.00  0.00    -0.198 C  
BRANCH  15  16
HETATM   16  C   UNL     1      -6.767  16.464  66.716  1.00  0.00    -0.144 C  
BRANCH  16  17
HETATM   17  C   UNL     1      -6.270  17.738  67.389  1.00  0.00    -0.164 C  
BRANCH  17  18
HETATM   18  C   UNL     1      -7.438  18.651  67.742  1.00  0.00    -0.241 C  
BRANCH  18  19
HETATM   19  C   UNL     1      -7.649  18.703  69.252  1.00  0.00    -0.036 C  
BRANCH  19  20
HETATM   20  C   UNL     1      -8.838  19.591  69.600  1.00  0.00     0.433 C  
BRANCH  20  21
HETATM   21  C   UNL     1      -9.979  19.390  68.610  1.00  0.00    -0.527 C  
BRANCH  21  22
HETATM   22  C   UNL     1      -9.561  19.779  67.198  1.00  0.00    -0.361 C  
HETATM   23  O   UNL     1      -9.890  21.141  66.957  1.00  0.00    -0.560 OA 
HETATM   24  H   UNL     1      -9.629  21.383  66.076  1.00  0.00     0.000 HD 
ENDBRANCH  21  22
ENDBRANCH  20  21
ENDBRANCH  19  20
ENDBRANCH  18  19
ENDBRANCH  17  18
ENDBRANCH  16  17
ENDBRANCH  15  16
ENDBRANCH  14  15
ENDBRANCH  13  14
ENDBRANCH  12  13
ENDBRANCH  11  12
ENDBRANCH  10  11
ENDBRANCH   9  10
ENDBRANCH   8   9
ENDBRANCH   7   8
ENDBRANCH   6   7
ENDBRANCH   5   6
ENDBRANCH   4   5
ENDBRANCH   3   4
ENDBRANCH   2   3
TORSDOF 20
ENDMDL
MODEL      493
REMARK 921   NORMALIZED FREE ENERGY PREDICTED BY IDOCK:   -1.39 KCAL/MOL
REMARK 922        TOTAL FREE ENERGY PREDICTED BY IDOCK:   -5.89 KCAL/MOL
REMARK 923 INTER-LIGAND FREE ENERGY PREDICTED BY IDOCK:   -4.10 KCAL/MOL
REMARK 924 INTRA-LIGAND FREE ENERGY PREDICTED BY IDOCK:   -1.79 KCAL/MOL
REMARK 927      BINDING AFFINITY PREDICTED BY RF-SCORE:    0.00 PKD
ROOT
HETATM    1  C   UNL     1     -10.769  17.761  65.826  1.00  0.00    -0.098 C  
HETATM    2  C   UNL     1     -10.876  16.795  64.658  1.00  0.00     0.181 C  
ENDROOT
BRANCH   2   3
HETATM    3  C   UNL     1     -11.105  15.367  65.145  1.00  0.00    -0.402 C  
BRANCH   3   4
HETATM    4  C   UNL     1      -9.985  14.918  66.079  1.00  0.00    -0.337 C  
BRANCH   4   5
HETATM    5  C   UNL     1     -10.514  13.947  67.130  1.00  0.00    -0.269 C  
BRANCH   5   6
HETATM    6  C   UNL     1     -11.773  14.497  67.791  1.00  0.00    -0.403 C  
BRANCH   6   7
HETATM    7  C   UNL     1     -11.424  15.610  68.771  1.00  0.00    -0.382 C  
BRANCH   7   8
HETATM    8  C   UNL     1      -9.935  15.925  68.716  1.00  0.00    -0.220 C  
BRANCH   8   9
HETATM    9  C   UNL     1      -9.224  15.372  69.944  1.00  0.00     0.040 C  
BRANCH   9  10
HETATM   10  C   UNL     1      -7.736  15.205  69.671  1.00  0.00    -0.148 C  
BRANCH  10  11
HETATM   11  C   UNL     1      -7.332  15.979  68.424  1.00  0.00    -0.131 C  
BRANCH  11  12
HETATM   12  C   UNL     1      -6.247  15.232  67.661  1.00  0.00    -0.155 C  
BRANCH  12  13
HETATM   13  C   UNL     1      -6.159  13.790  68.135  1.00  0.00    -0.120 C  
BRANCH  13  14
HETATM   14  C   UNL     1      -6.872  12.861  67.162  1.00  0.00     0.064 C  
BRANCH  14  15
HETATM   15  C   UNL     1      -7.681  11.817  67.917  1.00  0.00    -0.125 C  
BRANCH  15  16
HETATM   16  C   UNL     1      -8.474  10.950  66.947  1.00  0.00    -0.135 C  
BRANCH  16  17
HETATM   17  C   UNL     1      -9.712  10.376  67.627  1.00  0.00    -0.191 C  
BRANCH  17  18
HETATM   18  C   UNL     1     -10.395   9.355  66.725  1.00  0.00    -0.303 C  
BRANCH  18  19
HETATM   19  C   UNL     1      -9.376   8.390  66.129  1.00  0.00    -0.267 C  
BRANCH  19  20
HETATM   20  C   UNL     1      -9.558   6.990  66.703  1.00  0.00    -0.220 C  
BRANCH  20  21
HETATM   21  C   UNL     1      -8.451   6.056  66.228  1.00  0.00    -0.130 C  
BRANCH  21  22
HETATM   22  C   UNL     1      -8.772   4.604  66.560  1.00  0.00    -0.111 C  
HETATM   23  O   UNL     1     -10.175   4.447  66.721  1.00  0.00    -0.241 OA 
HETATM   24  H   UNL     1     -10.375   3.541  66.928  1.00  0.00     0.000 HD 
ENDBRANCH  21  22
ENDBRANCH  20  21
ENDBRANCH  19  20
ENDBRANCH  18  19
ENDBRANCH  17  18
ENDBRANCH  16  17
ENDBRANCH  15  16
ENDBRANCH  14  15
ENDBRANCH  13  14
ENDBRANCH  12  13
ENDBRANCH  11  12
ENDBRANCH  10  11
ENDBRANCH   9  10
ENDBRANCH   8   9
ENDBRANCH   7   8
ENDBRANCH   6   7
ENDBRANCH   5   6
ENDBRANCH   4   5
ENDBRANCH   3   4
ENDBRANCH   2   3
TORSDOF 20
ENDMDL
MODEL      494
REMARK 921   NORMALIZED FREE ENERGY PREDICTED BY IDOCK:   -1.37 KCAL/MOL
REMARK 922        TOTAL FREE ENERGY PREDICTED BY IDOCK:   -5.84 KCAL/MOL
REMARK 923 INTER-LIGAND FREE ENERGY PREDICTED BY IDOCK:   -4.57 KCAL/MOL
REMARK 924 INTRA-LIGAND FREE ENERGY PREDICTED BY IDOCK:   -1.27 KCAL/MOL
REMARK 927      BINDING AFFINITY PREDICTED BY RF-SCORE:    0.00 PKD
ROOT
HETATM    1  C   UNL     1      -6.958   8.652  74.562  1.00  0.00    -0.174 C  
HETATM    2  C   UNL     1      -6.255   7.449  73.958  1.00  0.00    -0.076 C  
ENDROOT
BRANCH   2   3
HETATM    3  C   UNL     1      -6.623   7.279  72.487  1.00  0.00    -0.055 C  
BRANCH   3   4
HETATM    4  C   UNL     1      -6.044   8.410  71.641  1.00  0.00    -0.046 C  
BRANCH   4   5
HETATM    5  C   UNL     1      -6.410   8.227  70.171  1.00  0.00    -0.035 C  
BRANCH   5   6
HETATM    6  C   UNL     1      -5.754   6.974  69.600  1.00  0.00    -0.022 C  
BRANCH   6   7
HETATM    7  C   UNL     1      -6.795   6.071  68.949  1.00  0.00    -0.066 C  
BRANCH   7   8
HETATM    8  C   UNL     1      -8.018   5.930  69.845  1.00  0.00    -0.104 C  
BRANCH   8   9
HETATM    9  C   UNL     1      -9.122   6.880  69.399  1.00  0.00    -0.141 C  
BRANCH   9  10
HETATM   10  C   UNL     1     -10.271   6.871  70.398  1.00  0.00    -0.209 C  
BRANCH  10  11
HETATM   11  C   UNL     1     -11.097   8.143  70.272  1.00  0.00    -0.221 C  
BRANCH  11  12
HETATM   12  C   UNL     1     -10.235   9.368  70.538  1.00  0.00    -0.332 C  
BRANCH  12  13
HETATM   13  C   UNL     1     -10.799  10.583  69.819  1.00  0.00    -0.335 C  
BRANCH  13  14
HETATM   14  C   UNL     1     -11.208  10.222  68.397  1.00  0.00    -0.284 C  
BRANCH  14  15
HETATM   15  C   UNL     1     -10.038  10.407  67.442  1.00  0.00    -0.237 C  
BRANCH  15  16
HETATM   16  C   UNL     1     -10.037  11.815  66.862  1.00  0.00    -0.231 C  
BRANCH  16  17
HETATM   17  C   UNL     1      -9.163  12.741  67.699  1.00  0.00    -0.192 C  
BRANCH  17  18
HETATM   18  C   UNL     1      -9.510  14.200  67.425  1.00  0.00    -0.220 C  
BRANCH  18  19
HETATM   19  C   UNL     1     -10.973  14.344  67.023  1.00  0.00    -0.304 C  
BRANCH  19  20
HETATM   20  C   UNL     1     -11.832  14.700  68.232  1.00  0.00    -0.333 C  
BRANCH  20  21
HETATM   21  C   UNL     1     -11.074  14.458  69.531  1.00  0.00    -0.267 C  
BRANCH  21  22
HETATM   22  C   UNL     1     -11.023  15.719  70.384  1.00  0.00    -0.355 C  
HETATM   23  O   UNL     1     -11.944  15.609  71.461  1.00  0.00    -0.335 OA 
HETATM   24  H   UNL     1     -11.912  16.396  71.993  1.00  0.00     0.000 HD 
ENDBRANCH  21  22
ENDBRANCH  20  21
ENDBRANCH  19  20
ENDBRANCH  18  19
ENDBRANCH  17  18
ENDBRANCH  16  17
ENDBRANCH  15  16
ENDBRANCH  14  15
ENDBRANCH  13  14
ENDBRANCH  12  13
ENDBRANCH  11  12
ENDBRANCH  10  11
ENDBRANCH   9  10
ENDBRANCH   8   9
ENDBRANCH   7   8
ENDBRANCH   6   7
ENDBRANCH   5   6
ENDBRANCH   4   5
ENDBRANCH   3   4
ENDBRANCH   2   3
TORSDOF 20
ENDMDL
MODEL      495
REMARK 921   NORMALIZED FREE ENERGY PREDICTED BY IDOCK:   -1.33 KCAL/MOL
REMARK 922        TOTAL FREE ENERGY PREDICTED BY IDOCK:   -5.76 KCAL/MOL
REMARK 923 INTER-LIGAND FREE ENERGY PREDICTED BY IDOCK:   -3.92 KCAL/MOL
REMARK 924 INTRA-LIGAND FREE ENERGY PREDICTED BY IDOCK:   -1.84 KCAL/MOL
REMARK 927      BINDING AFFINITY PREDICTED BY RF-SCORE:    0.00 PKD
ROOT
HETATM    1  C   UNL     1     -11.405  12.867  66.982  1.00  0.00    -0.355 C  
HETATM    2  C   UNL     1     -11.393  11.360  67.171  1.00  0.00    -0.327 C  
ENDROOT
BRANCH   2   3
HETATM    3  C   UNL     1     -10.341  10.703  66.283  1.00  0.00    -0.296 C  
BRANCH   3   4
HETATM    4  C   UNL     1      -8.988  10.643  66.986  1.00  0.00    -0.145 C  
BRANCH   4   5
HETATM    5  C   UNL     1      -9.146  10.151  68.421  1.00  0.00    -0.133 C  
BRANCH   5   6
HETATM    6  C   UNL     1      -8.008  10.660  69.298  1.00  0.00    -0.139 C  
BRANCH   6   7
HETATM    7  C   UNL     1      -6.893   9.625  69.388  1.00  0.00    -0.054 C  
BRANCH   7   8
HETATM    8  C   UNL     1      -7.401   8.344  70.035  1.00  0.00    -0.059 C  
BRANCH   8   9
HETATM    9  C   UNL     1      -7.716   8.574  71.507  1.00  0.00    -0.146 C  
BRANCH   9  10
HETATM   10  C   UNL     1      -8.906   7.728  71.938  1.00  0.00    -0.155 C  
BRANCH  10  11
HETATM   11  C   UNL     1      -9.426   6.903  70.769  1.00  0.00    -0.165 C  
BRANCH  11  12
HETATM   12  C   UNL     1     -10.237   5.717  71.273  1.00  0.00    -0.270 C  
BRANCH  12  13
HETATM   13  C   UNL     1      -9.316   4.591  71.714  1.00  0.00    -0.194 C  
BRANCH  13  14
HETATM   14  C   UNL     1      -8.653   3.937  70.509  1.00  0.00    -0.108 C  
BRANCH  14  15
HETATM   15  C   UNL     1      -9.651   3.778  69.372  1.00  0.00    -0.219 C  
BRANCH  15  16
HETATM   16  C   UNL     1      -9.519   2.402  68.732  1.00  0.00    -0.182 C  
BRANCH  16  17
HETATM   17  C   UNL     1      -8.862   2.507  67.361  1.00  0.00    -0.160 C  
BRANCH  17  18
HETATM   18  C   UNL     1      -8.675   3.966  66.964  1.00  0.00    -0.116 C  
BRANCH  18  19
HETATM   19  C   UNL     1      -7.214   4.258  66.639  1.00  0.00    -0.075 C  
BRANCH  19  20
HETATM   20  C   UNL     1      -6.838   5.673  67.066  1.00  0.00    -0.064 C  
BRANCH  20  21
HETATM   21  C   UNL     1      -7.136   6.675  65.958  1.00  0.00    -0.062 C  
BRANCH  21  22
HETATM   22  C   UNL     1      -8.635   6.895  65.800  1.00  0.00    -0.131 C  
HETATM   23  O   UNL     1      -8.884   7.720  64.670  1.00  0.00    -0.361 OA 
HETATM   24  H   UNL     1      -9.819   7.857  64.571  1.00  0.00     0.000 HD 
ENDBRANCH  21  22
ENDBRANCH  20  21
ENDBRANCH  19  20
ENDBRANCH  18  19
ENDBRANCH  17  18
ENDBRANCH  16  17
ENDBRANCH  15  16
ENDBRANCH  14  15
ENDBRANCH  13  14
ENDBRANCH  12  13
ENDBRANCH  11  12
ENDBRANCH  10  11
ENDBRANCH   9  10
ENDBRANCH   8   9
ENDBRANCH   7   8
ENDBRANCH   6   7
ENDBRANCH   5   6
ENDBRANCH   4   5
ENDBRANCH   3   4
ENDBRANCH   2   3
TORSDOF 20
ENDMDL
MODEL      496
REMARK 921   NORMALIZED FREE ENERGY PREDICTED BY IDOCK:   -1.25 KCAL/MOL
REMARK 922        TOTAL FREE ENERGY PREDICTED BY IDOCK:   -5.57 KCAL/MOL
REMARK 923 INTER-LIGAND FREE ENERGY PREDICTED BY IDOCK:   -3.70 KCAL/MOL
REMARK 924 INTRA-LIGAND FREE ENERGY PREDICTED BY IDOCK:   -1.87 KCAL/MOL
REMARK 927      BINDING AFFINITY PREDICTED BY RF-SCORE:    0.00 PKD
ROOT
HETATM    1  C   UNL     1      -8.306  10.514  66.240  1.00  0.00    -0.152 C  
HETATM    2  C   UNL     1      -8.850   9.247  65.602  1.00  0.00    -0.216 C  
ENDROOT
BRANCH   2   3
HETATM    3  C   UNL     1      -9.864   8.564  66.514  1.00  0.00    -0.342 C  
BRANCH   3   4
HETATM    4  C   UNL     1      -9.747   7.045  66.427  1.00  0.00    -0.133 C  
BRANCH   4   5
HETATM    5  C   UNL     1     -10.906   6.371  67.155  1.00  0.00    -0.467 C  
BRANCH   5   6
HETATM    6  C   UNL     1     -10.421   5.158  67.941  1.00  0.00    -0.100 C  
BRANCH   6   7
HETATM    7  C   UNL     1      -9.271   4.471  67.216  1.00  0.00    -0.151 C  
BRANCH   7   8
HETATM    8  C   UNL     1      -8.351   3.774  68.209  1.00  0.00    -0.102 C  
BRANCH   8   9
HETATM    9  C   UNL     1      -6.902   3.853  67.745  1.00  0.00    -0.047 C  
BRANCH   9  10
HETATM   10  C   UNL     1      -5.968   3.304  68.814  1.00  0.00    -0.024 C  
BRANCH  10  11
HETATM   11  C   UNL     1      -6.533   3.566  70.203  1.00  0.00    -0.032 C  
BRANCH  11  12
HETATM   12  C   UNL     1      -6.011   4.886  70.751  1.00  0.00    -0.018 C  
BRANCH  12  13
HETATM   13  C   UNL     1      -5.289   4.668  72.071  1.00  0.00    -0.004 C  
BRANCH  13  14
HETATM   14  C   UNL     1      -5.436   5.888  72.970  1.00  0.00    -0.031 C  
BRANCH  14  15
HETATM   15  C   UNL     1      -6.689   5.773  73.826  1.00  0.00    -0.080 C  
BRANCH  15  16
HETATM   16  C   UNL     1      -7.371   7.128  73.962  1.00  0.00    -0.106 C  
BRANCH  16  17
HETATM   17  C   UNL     1      -8.756   7.098  73.327  1.00  0.00    -0.162 C  
BRANCH  17  18
HETATM   18  C   UNL     1      -8.650   7.076  71.807  1.00  0.00    -0.114 C  
BRANCH  18  19
HETATM   19  C   UNL     1      -8.252   8.446  71.270  1.00  0.00    -0.161 C  
BRANCH  19  20
HETATM   20  C   UNL     1      -9.392   9.063  70.465  1.00  0.00    -0.262 C  
BRANCH  20  21
HETATM   21  C   UNL     1     -10.580   9.389  71.362  1.00  0.00    -0.381 C  
BRANCH  21  22
HETATM   22  C   UNL     1     -11.773   8.496  71.045  1.00  0.00    -0.275 C  
HETATM   23  O   UNL     1     -12.581   8.343  72.204  1.00  0.00    -0.336 OA 
HETATM   24  H   UNL     1     -13.325   7.787  72.006  1.00  0.00     0.000 HD 
ENDBRANCH  21  22
ENDBRANCH  20  21
ENDBRANCH  19  20
ENDBRANCH  18  19
ENDBRANCH  17  18
ENDBRANCH  16  17
ENDBRANCH  15  16
ENDBRANCH  14  15
ENDBRANCH  13  14
ENDBRANCH  12  13
ENDBRANCH  11  12
ENDBRANCH  10  11
ENDBRANCH   9  10
ENDBRANCH   8   9
ENDBRANCH   7   8
ENDBRANCH   6   7
ENDBRANCH   5   6
ENDBRANCH   4   5
ENDBRANCH   3   4
ENDBRANCH   2   3
TORSDOF 20
ENDMDL
MODEL      497
REMARK 921   NORMALIZED FREE ENERGY PREDICTED BY IDOCK:   -1.23 KCAL/MOL
REMARK 922        TOTAL FREE ENERGY PREDICTED BY IDOCK:   -5.53 KCAL/MOL
REMARK 923 INTER-LIGAND FREE ENERGY PREDICTED BY IDOCK:   -3.64 KCAL/MOL
REMARK 924 INTRA-LIGAND FREE ENERGY PREDICTED BY IDOCK:   -1.89 KCAL/MOL
REMARK 927      BINDING AFFINITY PREDICTED BY RF-SCORE:    0.00 PKD
ROOT
HETATM    1  C   UNL     1     -11.332  12.835  66.937  1.00  0.00    -0.371 C  
HETATM    2  C   UNL     1     -11.176  11.334  67.112  1.00  0.00    -0.344 C  
ENDROOT
BRANCH   2   3
HETATM    3  C   UNL     1     -10.465  10.712  65.914  1.00  0.00    -0.243 C  
BRANCH   3   4
HETATM    4  C   UNL     1      -8.964  10.985  65.963  1.00  0.00    -0.209 C  
BRANCH   4   5
HETATM    5  C   UNL     1      -8.437  10.851  67.388  1.00  0.00    -0.120 C  
BRANCH   5   6
HETATM    6  C   UNL     1      -7.090  11.550  67.537  1.00  0.00    -0.106 C  
BRANCH   6   7
HETATM    7  C   UNL     1      -5.946  10.565  67.327  1.00  0.00    -0.053 C  
BRANCH   7   8
HETATM    8  C   UNL     1      -5.880   9.567  68.476  1.00  0.00    -0.040 C  
BRANCH   8   9
HETATM    9  C   UNL     1      -5.140  10.166  69.664  1.00  0.00    -0.038 C  
BRANCH   9  10
HETATM   10  C   UNL     1      -5.834   9.798  70.968  1.00  0.00    -0.082 C  
BRANCH  10  11
HETATM   11  C   UNL     1      -7.211   9.210  70.692  1.00  0.00    -0.106 C  
BRANCH  11  12
HETATM   12  C   UNL     1      -7.665   8.345  71.859  1.00  0.00    -0.157 C  
BRANCH  12  13
HETATM   13  C   UNL     1      -7.309   6.888  71.613  1.00  0.00    -0.084 C  
BRANCH  13  14
HETATM   14  C   UNL     1      -8.324   6.238  70.682  1.00  0.00    -0.133 C  
BRANCH  14  15
HETATM   15  C   UNL     1      -9.304   7.275  70.153  1.00  0.00    -0.155 C  
BRANCH  15  16
HETATM   16  C   UNL     1     -10.738   6.789  70.316  1.00  0.00    -0.284 C  
BRANCH  16  17
HETATM   17  C   UNL     1     -11.375   6.526  68.957  1.00  0.00    -0.296 C  
BRANCH  17  18
HETATM   18  C   UNL     1     -10.511   7.097  67.839  1.00  0.00    -0.268 C  
BRANCH  18  19
HETATM   19  C   UNL     1     -10.225   6.038  66.780  1.00  0.00    -0.268 C  
BRANCH  19  20
HETATM   20  C   UNL     1      -9.048   5.162  67.197  1.00  0.00    -0.112 C  
BRANCH  20  21
HETATM   21  C   UNL     1      -7.722   5.826  66.848  1.00  0.00    -0.101 C  
BRANCH  21  22
HETATM   22  C   UNL     1      -6.673   4.793  66.455  1.00  0.00    -0.054 C  
HETATM   23  O   UNL     1      -5.436   5.441  66.191  1.00  0.00    -0.012 OA 
HETATM   24  H   UNL     1      -4.782   4.797  65.946  1.00  0.00     0.000 HD 
ENDBRANCH  21  22
ENDBRANCH  20  21
ENDBRANCH  19  20
ENDBRANCH  18  19
ENDBRANCH  17  18
ENDBRANCH  16  17
ENDBRANCH  15  16
ENDBRANCH  14  15
ENDBRANCH  13  14
ENDBRANCH  12  13
ENDBRANCH  11  12
ENDBRANCH  10  11
ENDBRANCH   9  10
ENDBRANCH   8   9
ENDBRANCH   7   8
ENDBRANCH   6   7
ENDBRANCH   5   6
ENDBRANCH   4   5
ENDBRANCH   3   4
ENDBRANCH   2   3
TORSDOF 20
ENDMDL
MODEL      498
REMARK 921   NORMALIZED FREE ENERGY PREDICTED BY IDOCK:   -1.23 KCAL/MOL
REMARK 922        TOTAL FREE ENERGY PREDICTED BY IDOCK:   -5.53 KCAL/MOL
REMARK 923 INTER-LIGAND FREE ENERGY PREDICTED BY IDOCK:   -3.96 KCAL/MOL
REMARK 924 INTRA-LIGAND FREE ENERGY PREDICTED BY IDOCK:   -1.57 KCAL/MOL
REMARK 927      BINDING AFFINITY PREDICTED BY RF-SCORE:    0.00 PKD
ROOT
HETATM    1  C   UNL     1      -6.984   8.528  74.565  1.00  0.00    -0.209 C  
HETATM    2  C   UNL     1      -6.090   7.302  74.512  1.00  0.00    -0.082 C  
ENDROOT
BRANCH   2   3
HETATM    3  C   UNL     1      -6.440   6.417  73.320  1.00  0.00    -0.065 C  
BRANCH   3   4
HETATM    4  C   UNL     1      -6.287   7.178  72.006  1.00  0.00    -0.044 C  
BRANCH   4   5
HETATM    5  C   UNL     1      -6.531   6.256  70.816  1.00  0.00    -0.041 C  
BRANCH   5   6
HETATM    6  C   UNL     1      -6.141   4.820  71.153  1.00  0.00    -0.018 C  
BRANCH   6   7
HETATM    7  C   UNL     1      -7.259   3.856  70.774  1.00  0.00    -0.037 C  
BRANCH   7   8
HETATM    8  C   UNL     1      -8.605   4.378  71.260  1.00  0.00    -0.126 C  
BRANCH   8   9
HETATM    9  C   UNL     1      -9.490   4.760  70.081  1.00  0.00    -0.246 C  
BRANCH   9  10
HETATM   10  C   UNL     1     -10.689   5.570  70.552  1.00  0.00    -0.310 C  
BRANCH  10  11
HETATM   11  C   UNL     1     -11.269   6.384  69.404  1.00  0.00    -0.459 C  
BRANCH  11  12
HETATM   12  C   UNL     1     -10.941   7.860  69.578  1.00  0.00    -0.078 C  
BRANCH  12  13
HETATM   13  C   UNL     1     -10.171   8.380  68.375  1.00  0.00    -0.239 C  
BRANCH  13  14
HETATM   14  C   UNL     1      -8.689   8.507  68.701  1.00  0.00    -0.139 C  
BRANCH  14  15
HETATM   15  C   UNL     1      -8.383   9.883  69.272  1.00  0.00    -0.151 C  
BRANCH  15  16
HETATM   16  C   UNL     1      -8.216  10.902  68.152  1.00  0.00    -0.121 C  
BRANCH  16  17
HETATM   17  C   UNL     1      -9.363  11.906  68.162  1.00  0.00    -0.191 C  
BRANCH  17  18
HETATM   18  C   UNL     1      -9.674  12.381  66.748  1.00  0.00    -0.226 C  
BRANCH  18  19
HETATM   19  C   UNL     1     -10.353  11.278  65.942  1.00  0.00    -0.304 C  
BRANCH  19  20
HETATM   20  C   UNL     1      -9.480  10.855  64.765  1.00  0.00    -0.279 C  
BRANCH  20  21
HETATM   21  C   UNL     1      -8.045  10.603  65.212  1.00  0.00    -0.086 C  
BRANCH  21  22
HETATM   22  C   UNL     1      -7.604   9.184  64.880  1.00  0.00    -0.107 C  
HETATM   23  O   UNL     1      -8.710   8.439  64.386  1.00  0.00    -0.399 OA 
HETATM   24  H   UNL     1      -8.434   7.554  64.179  1.00  0.00     0.000 HD 
ENDBRANCH  21  22
ENDBRANCH  20  21
ENDBRANCH  19  20
ENDBRANCH  18  19
ENDBRANCH  17  18
ENDBRANCH  16  17
ENDBRANCH  15  16
ENDBRANCH  14  15
ENDBRANCH  13  14
ENDBRANCH  12  13
ENDBRANCH  11  12
ENDBRANCH  10  11
ENDBRANCH   9  10
ENDBRANCH   8   9
ENDBRANCH   7   8
ENDBRANCH   6   7
ENDBRANCH   5   6
ENDBRANCH   4   5
ENDBRANCH   3   4
ENDBRANCH   2   3
TORSDOF 20
ENDMDL
MODEL      499
REMARK 921   NORMALIZED FREE ENERGY PREDICTED BY IDOCK:   -1.22 KCAL/MOL
REMARK 922        TOTAL FREE ENERGY PREDICTED BY IDOCK:   -5.51 KCAL/MOL
REMARK 923 INTER-LIGAND FREE ENERGY PREDICTED BY IDOCK:   -4.50 KCAL/MOL
REMARK 924 INTRA-LIGAND FREE ENERGY PREDICTED BY IDOCK:   -1.01 KCAL/MOL
REMARK 927      BINDING AFFINITY PREDICTED BY RF-SCORE:    0.00 PKD
ROOT
HETATM    1  C   UNL     1     -12.558  11.728  63.661  1.00  0.00    -0.458 C  
HETATM    2  C   UNL     1     -11.416  12.725  63.764  1.00  0.00    -0.533 C  
ENDROOT
BRANCH   2   3
HETATM    3  C   UNL     1     -11.938  14.131  64.045  1.00  0.00    -0.359 C  
BRANCH   3   4
HETATM    4  C   UNL     1     -11.026  14.871  65.020  1.00  0.00    -0.432 C  
BRANCH   4   5
HETATM    5  C   UNL     1     -10.998  14.167  66.373  1.00  0.00    -0.311 C  
BRANCH   5   6
HETATM    6  C   UNL     1      -9.595  14.197  66.972  1.00  0.00    -0.264 C  
BRANCH   6   7
HETATM    7  C   UNL     1      -9.238  12.844  67.575  1.00  0.00    -0.192 C  
BRANCH   7   8
HETATM    8  C   UNL     1     -10.495  12.101  68.006  1.00  0.00    -0.227 C  
BRANCH   8   9
HETATM    9  C   UNL     1     -11.010  11.219  66.876  1.00  0.00    -0.348 C  
BRANCH   9  10
HETATM   10  C   UNL     1     -10.503   9.793  67.037  1.00  0.00    -0.295 C  
BRANCH  10  11
HETATM   11  C   UNL     1      -9.048   9.790  67.486  1.00  0.00    -0.142 C  
BRANCH  11  12
HETATM   12  C   UNL     1      -8.128   9.491  66.311  1.00  0.00    -0.111 C  
BRANCH  12  13
HETATM   13  C   UNL     1      -8.654   8.310  65.510  1.00  0.00    -0.183 C  
BRANCH  13  14
HETATM   14  C   UNL     1      -7.828   7.061  65.793  1.00  0.00    -0.109 C  
BRANCH  14  15
HETATM   15  C   UNL     1      -6.367   7.426  66.009  1.00  0.00    -0.042 C  
BRANCH  15  16
HETATM   16  C   UNL     1      -5.457   6.441  65.285  1.00  0.00    -0.018 C  
BRANCH  16  17
HETATM   17  C   UNL     1      -6.125   5.925  64.016  1.00  0.00    -0.025 C  
BRANCH  17  18
HETATM   18  C   UNL     1      -6.155   4.401  64.007  1.00  0.00    -0.018 C  
BRANCH  18  19
HETATM   19  C   UNL     1      -7.098   3.884  62.926  1.00  0.00    -0.040 C  
BRANCH  19  20
HETATM   20  C   UNL     1      -8.525   4.357  63.183  1.00  0.00    -0.104 C  
BRANCH  20  21
HETATM   21  C   UNL     1      -8.974   3.997  64.595  1.00  0.00    -0.136 C  
BRANCH  21  22
HETATM   22  C   UNL     1     -10.315   3.275  64.582  1.00  0.00     0.079 C  
HETATM   23  O   UNL     1     -10.194   2.048  63.875  1.00  0.00    -0.234 OA 
HETATM   24  H   UNL     1     -11.031   1.598  63.866  1.00  0.00     0.000 HD 
ENDBRANCH  21  22
ENDBRANCH  20  21
ENDBRANCH  19  20
ENDBRANCH  18  19
ENDBRANCH  17  18
ENDBRANCH  16  17
ENDBRANCH  15  16
ENDBRANCH  14  15
ENDBRANCH  13  14
ENDBRANCH  12  13
ENDBRANCH  11  12
ENDBRANCH  10  11
ENDBRANCH   9  10
ENDBRANCH   8   9
ENDBRANCH   7   8
ENDBRANCH   6   7
ENDBRANCH   5   6
ENDBRANCH   4   5
ENDBRANCH   3   4
ENDBRANCH   2   3
TORSDOF 20
ENDMDL
MODEL      500
REMARK 921   NORMALIZED FREE ENERGY PREDICTED BY IDOCK:   -1.11 KCAL/MOL
REMARK 922        TOTAL FREE ENERGY PREDICTED BY IDOCK:   -5.27 KCAL/MOL
REMARK 923 INTER-LIGAND FREE ENERGY PREDICTED BY IDOCK:   -6.33 KCAL/MOL
REMARK 924 INTRA-LIGAND FREE ENERGY PREDICTED BY IDOCK:    1.06 KCAL/MOL
REMARK 927      BINDING AFFINITY PREDICTED BY RF-SCORE:    0.00 PKD
ROOT
HETATM    1  C   UNL     1     -10.662   5.950  69.219  1.00  0.00    -0.401 C  
HETATM    2  C   UNL     1     -10.883   5.722  67.733  1.00  0.00    -0.259 C  
ENDROOT
BRANCH   2   3
HETATM    3  C   UNL     1     -11.221   7.028  67.021  1.00  0.00    -0.058 C  
BRANCH   3   4
HETATM    4  C   UNL     1     -10.173   8.099  67.307  1.00  0.00    -0.348 C  
BRANCH   4   5
HETATM    5  C   UNL     1     -10.533   9.408  66.611  1.00  0.00    -0.238 C  
BRANCH   5   6
HETATM    6  C   UNL     1     -11.297  10.331  67.555  1.00  0.00    -0.032 C  
BRANCH   6   7
HETATM    7  C   UNL     1     -10.733  11.745  67.497  1.00  0.00    -0.262 C  
BRANCH   7   8
HETATM    8  C   UNL     1     -11.858  12.771  67.464  1.00  0.00    -0.402 C  
BRANCH   8   9
HETATM    9  C   UNL     1     -11.304  14.167  67.212  1.00  0.00    -0.349 C  
BRANCH   9  10
HETATM   10  C   UNL     1     -11.787  15.136  68.282  1.00  0.00    -0.275 C  
BRANCH  10  11
HETATM   11  C   UNL     1     -10.697  16.141  68.623  1.00  0.00    -0.295 C  
BRANCH  11  12
HETATM   12  C   UNL     1     -10.820  17.380  67.748  1.00  0.00    -0.257 C  
BRANCH  12  13
HETATM   13  C   UNL     1      -9.665  17.451  66.761  1.00  0.00    -0.293 C  
BRANCH  13  14
HETATM   14  C   UNL     1      -8.958  18.796  66.860  1.00  0.00    -0.302 C  
BRANCH  14  15
HETATM   15  C   UNL     1      -8.842  19.232  68.313  1.00  0.00    -0.379 C  
BRANCH  15  16
HETATM   16  C   UNL     1      -7.854  18.346  69.061  1.00  0.00    -0.140 C  
BRANCH  16  17
HETATM   17  C   UNL     1      -6.537  19.079  69.287  1.00  0.00    -0.333 C  
BRANCH  17  18
HETATM   18  C   UNL     1      -5.866  19.401  67.957  1.00  0.00    -0.221 C  
BRANCH  18  19
HETATM   19  C   UNL     1      -6.650  20.466  67.198  1.00  0.00    -0.281 C  
BRANCH  19  20
HETATM   20  C   UNL     1      -5.709  21.366  66.404  1.00  0.00    -0.331 C  
BRANCH  20  21
HETATM   21  C   UNL     1      -5.623  20.919  64.949  1.00  0.00    -0.259 C  
BRANCH  21  22
HETATM   22  C   UNL     1      -6.218  19.530  64.762  1.00  0.00    -0.270 C  
HETATM   23  O   UNL     1      -5.730  18.956  63.556  1.00  0.00    -0.342 OA 
HETATM   24  H   UNL     1      -6.101  18.089  63.439  1.00  0.00     0.000 HD 
ENDBRANCH  21  22
ENDBRANCH  20  21
ENDBRANCH  19  20
ENDBRANCH  18  19
ENDBRANCH  17  18
ENDBRANCH  16  17
ENDBRANCH  15  16
ENDBRANCH  14  15
ENDBRANCH  13  14
ENDBRANCH  12  13
ENDBRANCH  11  12
ENDBRANCH  10  11
ENDBRANCH   9  10
ENDBRANCH   8   9
ENDBRANCH   7   8
ENDBRANCH   6   7
ENDBRANCH   5   6
ENDBRANCH   4   5
ENDBRANCH   3   4
ENDBRANCH   2   3
TORSDOF 20
ENDMDL
MODEL      501
REMARK 921   NORMALIZED FREE ENERGY PREDICTED BY IDOCK:   -1.09 KCAL/MOL
REMARK 922        TOTAL FREE ENERGY PREDICTED BY IDOCK:   -5.24 KCAL/MOL
REMARK 923 INTER-LIGAND FREE ENERGY PREDICTED BY IDOCK:   -4.92 KCAL/MOL
REMARK 924 INTRA-LIGAND FREE ENERGY PREDICTED BY IDOCK:   -0.32 KCAL/MOL
REMARK 927      BINDING AFFINITY PREDICTED BY RF-SCORE:    0.00 PKD
ROOT
HETATM    1  C   UNL     1     -12.586  11.770  63.662  1.00  0.00    -0.458 C  
HETATM    2  C   UNL     1     -11.562  12.889  63.753  1.00  0.00    -0.538 C  
ENDROOT
BRANCH   2   3
HETATM    3  C   UNL     1     -12.243  14.245  63.910  1.00  0.00    -0.233 C  
BRANCH   3   4
HETATM    4  C   UNL     1     -11.462  15.147  64.861  1.00  0.00    -0.374 C  
BRANCH   4   5
HETATM    5  C   UNL     1     -11.534  14.616  66.289  1.00  0.00    -0.351 C  
BRANCH   5   6
HETATM    6  C   UNL     1     -10.201  14.806  67.007  1.00  0.00    -0.253 C  
BRANCH   6   7
HETATM    7  C   UNL     1      -9.900  13.614  67.907  1.00  0.00    -0.237 C  
BRANCH   7   8
HETATM    8  C   UNL     1     -11.191  12.981  68.408  1.00  0.00    -0.304 C  
BRANCH   8   9
HETATM    9  C   UNL     1     -11.587  11.802  67.528  1.00  0.00    -0.361 C  
BRANCH   9  10
HETATM   10  C   UNL     1     -11.145  10.490  68.162  1.00  0.00    -0.346 C  
BRANCH  10  11
HETATM   11  C   UNL     1      -9.757  10.632  68.771  1.00  0.00    -0.193 C  
BRANCH  11  12
HETATM   12  C   UNL     1      -8.704  10.043  67.843  1.00  0.00    -0.125 C  
BRANCH  12  13
HETATM   13  C   UNL     1      -9.152   8.686  67.324  1.00  0.00    -0.152 C  
BRANCH  13  14
HETATM   14  C   UNL     1      -8.390   7.567  68.024  1.00  0.00    -0.124 C  
BRANCH  14  15
HETATM   15  C   UNL     1      -6.960   7.997  68.316  1.00  0.00    -0.073 C  
BRANCH  15  16
HETATM   16  C   UNL     1      -5.984   6.878  67.979  1.00  0.00    -0.032 C  
BRANCH  16  17
HETATM   17  C   UNL     1      -6.505   6.042  66.816  1.00  0.00    -0.050 C  
BRANCH  17  18
HETATM   18  C   UNL     1      -6.514   4.562  67.179  1.00  0.00    -0.042 C  
BRANCH  18  19
HETATM   19  C   UNL     1      -7.339   3.762  66.177  1.00  0.00    -0.072 C  
BRANCH  19  20
HETATM   20  C   UNL     1      -8.802   4.191  66.219  1.00  0.00    -0.118 C  
BRANCH  20  21
HETATM   21  C   UNL     1      -9.438   3.835  67.557  1.00  0.00    -0.237 C  
BRANCH  21  22
HETATM   22  C   UNL     1      -9.334   2.342  67.839  1.00  0.00    -0.188 C  
HETATM   23  O   UNL     1      -7.978   1.993  68.086  1.00  0.00    -0.057 OA 
HETATM   24  H   UNL     1      -7.913   1.062  68.262  1.00  0.00     0.000 HD 
ENDBRANCH  21  22
ENDBRANCH  20  21
ENDBRANCH  19  20
ENDBRANCH  18  19
ENDBRANCH  17  18
ENDBRANCH  16  17
ENDBRANCH  15  16
ENDBRANCH  14  15
ENDBRANCH  13  14
ENDBRANCH  12  13
ENDBRANCH  11  12
ENDBRANCH  10  11
ENDBRANCH   9  10
ENDBRANCH   8   9
ENDBRANCH   7   8
ENDBRANCH   6   7
ENDBRANCH   5   6
ENDBRANCH   4   5
ENDBRANCH   3   4
ENDBRANCH   2   3
TORSDOF 20
ENDMDL
MODEL      502
REMARK 921   NORMALIZED FREE ENERGY PREDICTED BY IDOCK:   -0.96 KCAL/MOL
REMARK 922        TOTAL FREE ENERGY PREDICTED BY IDOCK:   -4.94 KCAL/MOL
REMARK 923 INTER-LIGAND FREE ENERGY PREDICTED BY IDOCK:   -3.99 KCAL/MOL
REMARK 924 INTRA-LIGAND FREE ENERGY PREDICTED BY IDOCK:   -0.96 KCAL/MOL
REMARK 927      BINDING AFFINITY PREDICTED BY RF-SCORE:    0.00 PKD
ROOT
HETATM    1  C   UNL     1      -9.120  10.979  66.527  1.00  0.00    -0.186 C  
HETATM    2  C   UNL     1      -7.875  10.496  65.802  1.00  0.00    -0.154 C  
ENDROOT
BRANCH   2   3
HETATM    3  C   UNL     1      -7.680   8.994  65.986  1.00  0.00    -0.095 C  
BRANCH   3   4
HETATM    4  C   UNL     1      -6.210   8.609  65.846  1.00  0.00    -0.056 C  
BRANCH   4   5
HETATM    5  C   UNL     1      -5.929   7.286  66.554  1.00  0.00    -0.036 C  
BRANCH   5   6
HETATM    6  C   UNL     1      -5.472   6.225  65.559  1.00  0.00    -0.017 C  
BRANCH   6   7
HETATM    7  C   UNL     1      -6.593   5.233  65.277  1.00  0.00    -0.040 C  
BRANCH   7   8
HETATM    8  C   UNL     1      -7.290   4.829  66.570  1.00  0.00    -0.082 C  
BRANCH   8   9
HETATM    9  C   UNL     1      -6.850   3.438  67.004  1.00  0.00    -0.050 C  
BRANCH   9  10
HETATM   10  C   UNL     1      -6.178   3.491  68.369  1.00  0.00    -0.032 C  
BRANCH  10  11
HETATM   11  C   UNL     1      -6.668   4.697  69.159  1.00  0.00    -0.046 C  
BRANCH  11  12
HETATM   12  C   UNL     1      -7.820   4.303  70.073  1.00  0.00    -0.052 C  
BRANCH  12  13
HETATM   13  C   UNL     1      -7.464   4.578  71.526  1.00  0.00    -0.069 C  
BRANCH  13  14
HETATM   14  C   UNL     1      -8.673   5.114  72.281  1.00  0.00    -0.127 C  
BRANCH  14  15
HETATM   15  C   UNL     1      -9.576   5.908  71.349  1.00  0.00    -0.189 C  
BRANCH  15  16
HETATM   16  C   UNL     1     -10.798   6.423  72.098  1.00  0.00    -0.272 C  
BRANCH  16  17
HETATM   17  C   UNL     1     -10.825   7.947  72.101  1.00  0.00    -0.327 C  
BRANCH  17  18
HETATM   18  C   UNL     1     -11.320   8.479  70.762  1.00  0.00    -0.296 C  
BRANCH  18  19
HETATM   19  C   UNL     1     -10.581   7.812  69.607  1.00  0.00    -0.242 C  
BRANCH  19  20
HETATM   20  C   UNL     1     -10.525   8.739  68.396  1.00  0.00    -0.220 C  
BRANCH  20  21
HETATM   21  C   UNL     1     -10.710   7.957  67.101  1.00  0.00    -0.306 C  
BRANCH  21  22
HETATM   22  C   UNL     1     -10.836   6.463  67.370  1.00  0.00    -0.375 C  
HETATM   23  O   UNL     1     -11.067   5.773  66.149  1.00  0.00    -0.721 OA 
HETATM   24  H   UNL     1     -11.146   4.841  66.317  1.00  0.00     0.000 HD 
ENDBRANCH  21  22
ENDBRANCH  20  21
ENDBRANCH  19  20
ENDBRANCH  18  19
ENDBRANCH  17  18
ENDBRANCH  16  17
ENDBRANCH  15  16
ENDBRANCH  14  15
ENDBRANCH  13  14
ENDBRANCH  12  13
ENDBRANCH  11  12
ENDBRANCH  10  11
ENDBRANCH   9  10
ENDBRANCH   8   9
ENDBRANCH   7   8
ENDBRANCH   6   7
ENDBRANCH   5   6
ENDBRANCH   4   5
ENDBRANCH   3   4
ENDBRANCH   2   3
TORSDOF 20
ENDMDL
MODEL      503
REMARK 921   NORMALIZED FREE ENERGY PREDICTED BY IDOCK:   -0.88 KCAL/MOL
REMARK 922        TOTAL FREE ENERGY PREDICTED BY IDOCK:   -4.77 KCAL/MOL
REMARK 923 INTER-LIGAND FREE ENERGY PREDICTED BY IDOCK:   -5.41 KCAL/MOL
REMARK 924 INTRA-LIGAND FREE ENERGY PREDICTED BY IDOCK:    0.65 KCAL/MOL
REMARK 927      BINDING AFFINITY PREDICTED BY RF-SCORE:    0.00 PKD
ROOT
HETATM    1  C   UNL     1     -10.192  16.812  66.938  1.00  0.00    -0.290 C  
HETATM    2  C   UNL     1     -10.878  16.669  68.285  1.00  0.00    -0.356 C  
ENDROOT
BRANCH   2   3
HETATM    3  C   UNL     1      -9.995  15.914  69.275  1.00  0.00    -0.254 C  
BRANCH   3   4
HETATM    4  C   UNL     1      -9.592  14.550  68.722  1.00  0.00    -0.193 C  
BRANCH   4   5
HETATM    5  C   UNL     1     -10.763  13.574  68.786  1.00  0.00    -0.261 C  
BRANCH   5   6
HETATM    6  C   UNL     1     -11.214  13.175  67.385  1.00  0.00    -0.319 C  
BRANCH   6   7
HETATM    7  C   UNL     1     -10.089  12.470  66.637  1.00  0.00    -0.241 C  
BRANCH   7   8
HETATM    8  C   UNL     1     -10.649  11.396  65.714  1.00  0.00    -0.315 C  
BRANCH   8   9
HETATM    9  C   UNL     1      -9.850  10.106  65.844  1.00  0.00    -0.308 C  
BRANCH   9  10
HETATM   10  C   UNL     1     -10.417   9.236  66.957  1.00  0.00    -0.303 C  
BRANCH  10  11
HETATM   11  C   UNL     1      -9.458   9.188  68.138  1.00  0.00    -0.155 C  
BRANCH  11  12
HETATM   12  C   UNL     1      -8.621   7.917  68.094  1.00  0.00    -0.123 C  
BRANCH  12  13
HETATM   13  C   UNL     1      -9.456   6.747  67.597  1.00  0.00    -0.126 C  
BRANCH  13  14
HETATM   14  C   UNL     1     -10.488   6.342  68.641  1.00  0.00    -0.274 C  
BRANCH  14  15
HETATM   15  C   UNL     1     -10.056   5.067  69.351  1.00  0.00    -0.288 C  
BRANCH  15  16
HETATM   16  C   UNL     1      -8.852   5.332  70.244  1.00  0.00    -0.145 C  
BRANCH  16  17
HETATM   17  C   UNL     1      -9.237   6.230  71.414  1.00  0.00    -0.153 C  
BRANCH  17  18
HETATM   18  C   UNL     1     -10.733   6.138  71.692  1.00  0.00    -0.294 C  
BRANCH  18  19
HETATM   19  C   UNL     1     -11.102   6.928  72.943  1.00  0.00    -0.297 C  
BRANCH  19  20
HETATM   20  C   UNL     1     -10.008   6.808  73.999  1.00  0.00    -0.367 C  
BRANCH  20  21
HETATM   21  C   UNL     1      -9.094   5.624  73.707  1.00  0.00    -0.127 C  
BRANCH  21  22
HETATM   22  C   UNL     1      -9.471   4.413  74.551  1.00  0.00    -0.115 C  
HETATM   23  O   UNL     1      -9.982   3.384  73.714  1.00  0.00    -0.109 OA 
HETATM   24  H   UNL     1     -10.217   2.629  74.241  1.00  0.00     0.000 HD 
ENDBRANCH  21  22
ENDBRANCH  20  21
ENDBRANCH  19  20
ENDBRANCH  18  19
ENDBRANCH  17  18
ENDBRANCH  16  17
ENDBRANCH  15  16
ENDBRANCH  14  15
ENDBRANCH  13  14
ENDBRANCH  12  13
ENDBRANCH  11  12
ENDBRANCH  10  11
ENDBRANCH   9  10
ENDBRANCH   8   9
ENDBRANCH   7   8
ENDBRANCH   6   7
ENDBRANCH   5   6
ENDBRANCH   4   5
ENDBRANCH   3   4
ENDBRANCH   2   3
TORSDOF 20
ENDMDL
MODEL      504
REMARK 921   NORMALIZED FREE ENERGY PREDICTED BY IDOCK:   -0.85 KCAL/MOL
REMARK 922        TOTAL FREE ENERGY PREDICTED BY IDOCK:   -4.71 KCAL/MOL
REMARK 923 INTER-LIGAND FREE ENERGY PREDICTED BY IDOCK:   -4.27 KCAL/MOL
REMARK 924 INTRA-LIGAND FREE ENERGY PREDICTED BY IDOCK:   -0.45 KCAL/MOL
REMARK 927      BINDING AFFINITY PREDICTED BY RF-SCORE:    0.00 PKD
ROOT
HETATM    1  C   UNL     1     -10.487   6.492  69.787  1.00  0.00    -0.256 C  
HETATM    2  C   UNL     1     -10.550   6.029  68.342  1.00  0.00    -0.322 C  
ENDROOT
BRANCH   2   3
HETATM    3  C   UNL     1     -10.876   7.190  67.406  1.00  0.00    -0.346 C  
BRANCH   3   4
HETATM    4  C   UNL     1      -9.711   8.173  67.323  1.00  0.00    -0.233 C  
BRANCH   4   5
HETATM    5  C   UNL     1      -9.779   8.982  66.032  1.00  0.00    -0.339 C  
BRANCH   5   6
HETATM    6  C   UNL     1     -10.656  10.217  66.210  1.00  0.00    -0.121 C  
BRANCH   6   7
HETATM    7  C   UNL     1     -10.708  11.031  64.924  1.00  0.00    -0.278 C  
BRANCH   7   8
HETATM    8  C   UNL     1     -12.113  11.568  64.684  1.00  0.00     0.203 C  
BRANCH   8   9
HETATM    9  C   UNL     1     -12.058  12.936  64.017  1.00  0.00    -0.526 C  
BRANCH   9  10
HETATM   10  C   UNL     1     -12.889  13.945  64.796  1.00  0.00    -0.133 C  
BRANCH  10  11
HETATM   11  C   UNL     1     -12.093  15.221  65.034  1.00  0.00     0.050 C  
BRANCH  11  12
HETATM   12  C   UNL     1     -10.781  14.908  65.738  1.00  0.00    -0.338 C  
BRANCH  12  13
HETATM   13  C   UNL     1     -10.100  16.191  66.190  1.00  0.00    -0.356 C  
BRANCH  13  14
HETATM   14  C   UNL     1     -10.196  17.258  65.107  1.00  0.00     0.518 C  
BRANCH  14  15
HETATM   15  C   UNL     1     -10.701  18.568  65.692  1.00  0.00    -0.089 C  
BRANCH  15  16
HETATM   16  C   UNL     1     -10.845  18.459  67.204  1.00  0.00    -0.271 C  
BRANCH  16  17
HETATM   17  C   UNL     1      -9.752  19.256  67.907  1.00  0.00    -0.422 C  
BRANCH  17  18
HETATM   18  C   UNL     1      -9.078  18.411  68.981  1.00  0.00    -0.082 C  
BRANCH  18  19
HETATM   19  C   UNL     1      -7.666  18.021  68.557  1.00  0.00    -0.308 C  
BRANCH  19  20
HETATM   20  C   UNL     1      -7.184  16.805  69.342  1.00  0.00    -0.105 C  
BRANCH  20  21
HETATM   21  C   UNL     1      -8.069  15.594  69.072  1.00  0.00    -0.222 C  
BRANCH  21  22
HETATM   22  C   UNL     1      -9.509  15.857  69.494  1.00  0.00    -0.219 C  
HETATM   23  O   UNL     1      -9.736  15.320  70.790  1.00  0.00    -0.072 OA 
HETATM   24  H   UNL     1     -10.634  15.484  71.054  1.00  0.00     0.000 HD 
ENDBRANCH  21  22
ENDBRANCH  20  21
ENDBRANCH  19  20
ENDBRANCH  18  19
ENDBRANCH  17  18
ENDBRANCH  16  17
ENDBRANCH  15  16
ENDBRANCH  14  15
ENDBRANCH  13  14
ENDBRANCH  12  13
ENDBRANCH  11  12
ENDBRANCH  10  11
ENDBRANCH   9  10
ENDBRANCH   8   9
ENDBRANCH   7   8
ENDBRANCH   6   7
ENDBRANCH   5   6
ENDBRANCH   4   5
ENDBRANCH   3   4
ENDBRANCH   2   3
TORSDOF 20
ENDMDL
MODEL      505
REMARK 921   NORMALIZED FREE ENERGY PREDICTED BY IDOCK:   -0.74 KCAL/MOL
REMARK 922        TOTAL FREE ENERGY PREDICTED BY IDOCK:   -4.46 KCAL/MOL
REMARK 923 INTER-LIGAND FREE ENERGY PREDICTED BY IDOCK:   -4.25 KCAL/MOL
REMARK 924 INTRA-LIGAND FREE ENERGY PREDICTED BY IDOCK:   -0.22 KCAL/MOL
REMARK 927      BINDING AFFINITY PREDICTED BY RF-SCORE:    0.00 PKD
ROOT
HETATM    1  C   UNL     1      -8.865  11.755  67.304  1.00  0.00    -0.167 C  
HETATM    2  C   UNL     1      -7.656  11.249  66.535  1.00  0.00    -0.111 C  
ENDROOT
BRANCH   2   3
HETATM    3  C   UNL     1      -7.441   9.757  66.769  1.00  0.00    -0.095 C  
BRANCH   3   4
HETATM    4  C   UNL     1      -5.980   9.372  66.556  1.00  0.00    -0.059 C  
BRANCH   4   5
HETATM    5  C   UNL     1      -5.577   8.241  67.498  1.00  0.00    -0.039 C  
BRANCH   5   6
HETATM    6  C   UNL     1      -5.337   6.949  66.723  1.00  0.00    -0.017 C  
BRANCH   6   7
HETATM    7  C   UNL     1      -6.543   6.024  66.833  1.00  0.00    -0.056 C  
BRANCH   7   8
HETATM    8  C   UNL     1      -7.186   6.142  68.209  1.00  0.00    -0.084 C  
BRANCH   8   9
HETATM    9  C   UNL     1      -6.778   4.972  69.094  1.00  0.00    -0.049 C  
BRANCH   9  10
HETATM   10  C   UNL     1      -6.451   5.453  70.500  1.00  0.00    -0.031 C  
BRANCH  10  11
HETATM   11  C   UNL     1      -7.045   6.833  70.744  1.00  0.00    -0.068 C  
BRANCH  11  12
HETATM   12  C   UNL     1      -8.388   6.718  71.450  1.00  0.00    -0.119 C  
BRANCH  12  13
HETATM   13  C   UNL     1      -8.346   7.427  72.795  1.00  0.00    -0.137 C  
BRANCH  13  14
HETATM   14  C   UNL     1      -9.738   7.894  73.198  1.00  0.00    -0.353 C  
BRANCH  14  15
HETATM   15  C   UNL     1     -10.592   8.156  71.966  1.00  0.00    -0.334 C  
BRANCH  15  16
HETATM   16  C   UNL     1     -12.013   8.527  72.368  1.00  0.00    -0.434 C  
BRANCH  16  17
HETATM   17  C   UNL     1     -12.369   9.919  71.862  1.00  0.00    -0.390 C  
BRANCH  17  18
HETATM   18  C   UNL     1     -12.028  10.057  70.383  1.00  0.00    -0.318 C  
BRANCH  18  19
HETATM   19  C   UNL     1     -11.025   8.990  69.957  1.00  0.00    -0.230 C  
BRANCH  19  20
HETATM   20  C   UNL     1     -10.418   9.332  68.600  1.00  0.00    -0.236 C  
BRANCH  20  21
HETATM   21  C   UNL     1     -10.390   8.109  67.690  1.00  0.00    -0.313 C  
BRANCH  21  22
HETATM   22  C   UNL     1     -10.781   6.847  68.448  1.00  0.00    -0.211 C  
HETATM   23  O   UNL     1     -11.280   5.875  67.539  1.00  0.00    -0.395 OA 
HETATM   24  H   UNL     1     -11.524   5.088  68.012  1.00  0.00     0.000 HD 
ENDBRANCH  21  22
ENDBRANCH  20  21
ENDBRANCH  19  20
ENDBRANCH  18  19
ENDBRANCH  17  18
ENDBRANCH  16  17
ENDBRANCH  15  16
ENDBRANCH  14  15
ENDBRANCH  13  14
ENDBRANCH  12  13
ENDBRANCH  11  12
ENDBRANCH  10  11
ENDBRANCH   9  10
ENDBRANCH   8   9
ENDBRANCH   7   8
ENDBRANCH   6   7
ENDBRANCH   5   6
ENDBRANCH   4   5
ENDBRANCH   3   4
ENDBRANCH   2   3
TORSDOF 20
ENDMDL
MODEL      506
REMARK 921   NORMALIZED FREE ENERGY PREDICTED BY IDOCK:   -0.42 KCAL/MOL
REMARK 922        TOTAL FREE ENERGY PREDICTED BY IDOCK:   -3.77 KCAL/MOL
REMARK 923 INTER-LIGAND FREE ENERGY PREDICTED BY IDOCK:   -3.28 KCAL/MOL
REMARK 924 INTRA-LIGAND FREE ENERGY PREDICTED BY IDOCK:   -0.49 KCAL/MOL
REMARK 927      BINDING AFFINITY PREDICTED BY RF-SCORE:    0.00 PKD
ROOT
HETATM    1  C   UNL     1      -6.398   3.309  64.367  1.00  0.00    -0.023 C  
HETATM    2  C   UNL     1      -6.609   4.805  64.532  1.00  0.00    -0.043 C  
ENDROOT
BRANCH   2   3
HETATM    3  C   UNL     1      -6.052   5.294  65.866  1.00  0.00    -0.033 C  
BRANCH   3   4
HETATM    4  C   UNL     1      -6.332   4.290  66.981  1.00  0.00    -0.040 C  
BRANCH   4   5
HETATM    5  C   UNL     1      -6.276   4.968  68.346  1.00  0.00    -0.031 C  
BRANCH   5   6
HETATM    6  C   UNL     1      -7.121   6.238  68.356  1.00  0.00    -0.083 C  
BRANCH   6   7
HETATM    7  C   UNL     1      -7.360   6.714  69.784  1.00  0.00    -0.086 C  
BRANCH   7   8
HETATM    8  C   UNL     1      -8.638   6.105  70.345  1.00  0.00    -0.134 C  
BRANCH   8   9
HETATM    9  C   UNL     1      -9.842   6.971  69.999  1.00  0.00    -0.181 C  
BRANCH   9  10
HETATM   10  C   UNL     1      -9.433   8.110  69.076  1.00  0.00    -0.155 C  
BRANCH  10  11
HETATM   11  C   UNL     1     -10.315   8.136  67.836  1.00  0.00    -0.280 C  
BRANCH  11  12
HETATM   12  C   UNL     1      -9.703   9.027  66.765  1.00  0.00    -0.279 C  
BRANCH  12  13
HETATM   13  C   UNL     1      -9.196  10.324  67.377  1.00  0.00    -0.155 C  
BRANCH  13  14
HETATM   14  C   UNL     1     -10.203  10.873  68.379  1.00  0.00    -0.193 C  
BRANCH  14  15
HETATM   15  C   UNL     1      -9.779  12.252  68.860  1.00  0.00     0.126 C  
BRANCH  15  16
HETATM   16  C   UNL     1      -9.961  13.285  67.756  1.00  0.00    -0.223 C  
BRANCH  16  17
HETATM   17  C   UNL     1      -9.719  14.692  68.289  1.00  0.00    -0.215 C  
BRANCH  17  18
HETATM   18  C   UNL     1      -8.411  14.753  69.070  1.00  0.00    -0.140 C  
BRANCH  18  19
HETATM   19  C   UNL     1      -8.063  16.193  69.432  1.00  0.00    -0.097 C  
BRANCH  19  20
HETATM   20  C   UNL     1      -9.071  17.162  68.823  1.00  0.00    -0.244 C  
BRANCH  20  21
HETATM   21  C   UNL     1      -8.389  18.128  67.862  1.00  0.00    -0.254 C  
BRANCH  21  22
HETATM   22  C   UNL     1      -7.982  17.428  66.571  1.00  0.00    -0.281 C  
HETATM   23  O   UNL     1      -8.172  18.305  65.469  1.00  0.00    -0.236 OA 
HETATM   24  H   UNL     1      -7.919  17.869  64.664  1.00  0.00     0.000 HD 
ENDBRANCH  21  22
ENDBRANCH  20  21
ENDBRANCH  19  20
ENDBRANCH  18  19
ENDBRANCH  17  18
ENDBRANCH  16  17
ENDBRANCH  15  16
ENDBRANCH  14  15
ENDBRANCH  13  14
ENDBRANCH  12  13
ENDBRANCH  11  12
ENDBRANCH  10  11
ENDBRANCH   9  10
ENDBRANCH   8   9
ENDBRANCH   7   8
ENDBRANCH   6   7
ENDBRANCH   5   6
ENDBRANCH   4   5
ENDBRANCH   3   4
ENDBRANCH   2   3
TORSDOF 20
ENDMDL
MODEL      507
REMARK 921   NORMALIZED FREE ENERGY PREDICTED BY IDOCK:   -0.24 KCAL/MOL
REMARK 922        TOTAL FREE ENERGY PREDICTED BY IDOCK:   -3.39 KCAL/MOL
REMARK 923 INTER-LIGAND FREE ENERGY PREDICTED BY IDOCK:   -1.70 KCAL/MOL
REMARK 924 INTRA-LIGAND FREE ENERGY PREDICTED BY IDOCK:   -1.68 KCAL/MOL
REMARK 927      BINDING AFFINITY PREDICTED BY RF-SCORE:    0.00 PKD
ROOT
HETATM    1  C   UNL     1      -6.240  13.363  72.419  1.00  0.00     1.784 C  
HETATM    2  C   UNL     1      -5.142  13.818  71.473  1.00  0.00    -0.160 C  
ENDROOT
BRANCH   2   3
HETATM    3  C   UNL     1      -5.377  15.251  71.007  1.00  0.00    -0.097 C  
BRANCH   3   4
HETATM    4  C   UNL     1      -6.483  15.314  69.957  1.00  0.00    -0.138 C  
BRANCH   4   5
HETATM    5  C   UNL     1      -5.919  15.731  68.602  1.00  0.00    -0.101 C  
BRANCH   5   6
HETATM    6  C   UNL     1      -6.067  14.606  67.583  1.00  0.00    -0.078 C  
BRANCH   6   7
HETATM    7  C   UNL     1      -7.393  13.880  67.772  1.00  0.00    -0.170 C  
BRANCH   7   8
HETATM    8  C   UNL     1      -8.463  14.474  66.866  1.00  0.00    -0.179 C  
BRANCH   8   9
HETATM    9  C   UNL     1      -9.415  13.390  66.377  1.00  0.00    -0.230 C  
BRANCH   9  10
HETATM   10  C   UNL     1      -8.681  12.066  66.217  1.00  0.00    -0.027 C  
BRANCH  10  11
HETATM   11  C   UNL     1      -9.671  10.915  66.111  1.00  0.00    -0.252 C  
BRANCH  11  12
HETATM   12  C   UNL     1      -9.340   9.832  67.128  1.00  0.00    -0.169 C  
BRANCH  12  13
HETATM   13  C   UNL     1     -10.596   9.389  67.862  1.00  0.00    -0.293 C  
BRANCH  13  14
HETATM   14  C   UNL     1     -10.956  10.386  68.956  1.00  0.00    -0.282 C  
BRANCH  14  15
HETATM   15  C   UNL     1     -12.378  10.893  68.770  1.00  0.00     0.243 C  
BRANCH  15  16
HETATM   16  C   UNL     1     -13.253  10.477  69.945  1.00  0.00     0.524 C  
BRANCH  16  17
HETATM   17  C   UNL     1     -12.404  10.225  71.186  1.00  0.00    -0.501 C  
BRANCH  17  18
HETATM   18  C   UNL     1     -12.591  11.347  72.201  1.00  0.00     0.312 C  
BRANCH  18  19
HETATM   19  C   UNL     1     -13.736  12.266  71.790  1.00  0.00     0.138 C  
BRANCH  19  20
HETATM   20  C   UNL     1     -13.278  13.720  71.762  1.00  0.00    -0.467 C  
BRANCH  20  21
HETATM   21  C   UNL     1     -14.332  14.637  72.370  1.00  0.00    -0.380 C  
BRANCH  21  22
HETATM   22  C   UNL     1     -13.762  16.020  72.659  1.00  0.00    -0.290 C  
HETATM   23  O   UNL     1     -13.488  16.147  74.048  1.00  0.00    -0.889 OA 
HETATM   24  H   UNL     1     -13.132  17.010  74.227  1.00  0.00     0.000 HD 
ENDBRANCH  21  22
ENDBRANCH  20  21
ENDBRANCH  19  20
ENDBRANCH  18  19
ENDBRANCH  17  18
ENDBRANCH  16  17
ENDBRANCH  15  16
ENDBRANCH  14  15
ENDBRANCH  13  14
ENDBRANCH  12  13
ENDBRANCH  11  12
ENDBRANCH  10  11
ENDBRANCH   9  10
ENDBRANCH   8   9
ENDBRANCH   7   8
ENDBRANCH   6   7
ENDBRANCH   5   6
ENDBRANCH   4   5
ENDBRANCH   3   4
ENDBRANCH   2   3
TORSDOF 20
ENDMDL
MODEL      508
REMARK 921   NORMALIZED FREE ENERGY PREDICTED BY IDOCK:    0.12 KCAL/MOL
REMARK 922        TOTAL FREE ENERGY PREDICTED BY IDOCK:   -2.60 KCAL/MOL
REMARK 923 INTER-LIGAND FREE ENERGY PREDICTED BY IDOCK:   -1.27 KCAL/MOL
REMARK 924 INTRA-LIGAND FREE ENERGY PREDICTED BY IDOCK:   -1.33 KCAL/MOL
REMARK 927      BINDING AFFINITY PREDICTED BY RF-SCORE:    0.00 PKD
ROOT
HETATM    1  C   UNL     1      -6.512  13.298  72.353  1.00  0.00     3.062 C  
HETATM    2  C   UNL     1      -5.320  13.537  71.442  1.00  0.00    -0.200 C  
ENDROOT
BRANCH   2   3
HETATM    3  C   UNL     1      -5.201  15.012  71.068  1.00  0.00    -0.138 C  
BRANCH   3   4
HETATM    4  C   UNL     1      -6.220  15.392  69.997  1.00  0.00    -0.146 C  
BRANCH   4   5
HETATM    5  C   UNL     1      -5.541  15.551  68.639  1.00  0.00    -0.092 C  
BRANCH   5   6
HETATM    6  C   UNL     1      -5.995  14.461  67.674  1.00  0.00    -0.042 C  
BRANCH   6   7
HETATM    7  C   UNL     1      -7.443  14.073  67.943  1.00  0.00    -0.153 C  
BRANCH   7   8
HETATM    8  C   UNL     1      -8.391  14.939  67.124  1.00  0.00    -0.247 C  
BRANCH   8   9
HETATM    9  C   UNL     1      -9.727  14.234  66.926  1.00  0.00    -0.268 C  
BRANCH   9  10
HETATM   10  C   UNL     1      -9.522  12.735  66.766  1.00  0.00    -0.243 C  
BRANCH  10  11
HETATM   11  C   UNL     1     -10.763  11.975  67.211  1.00  0.00    -0.269 C  
BRANCH  11  12
HETATM   12  C   UNL     1     -10.395  10.891  68.213  1.00  0.00    -0.194 C  
BRANCH  12  13
HETATM   13  C   UNL     1     -11.174  11.073  69.506  1.00  0.00    -0.343 C  
BRANCH  13  14
HETATM   14  C   UNL     1     -11.625   9.726  70.054  1.00  0.00    -0.185 C  
BRANCH  14  15
HETATM   15  C   UNL     1     -11.547   9.715  71.573  1.00  0.00    -0.451 C  
BRANCH  15  16
HETATM   16  C   UNL     1     -12.883   9.297  72.175  1.00  0.00    -0.485 C  
BRANCH  16  17
HETATM   17  C   UNL     1     -13.693   8.483  71.174  1.00  0.00    -0.069 C  
BRANCH  17  18
HETATM   18  C   UNL     1     -13.312   7.009  71.245  1.00  0.00    -0.282 C  
BRANCH  18  19
HETATM   19  C   UNL     1     -12.544   6.709  72.527  1.00  0.00     0.244 C  
BRANCH  19  20
HETATM   20  C   UNL     1     -11.395   5.743  72.255  1.00  0.00    -0.334 C  
BRANCH  20  21
HETATM   21  C   UNL     1     -10.050   6.456  72.338  1.00  0.00    -0.191 C  
BRANCH  21  22
HETATM   22  C   UNL     1      -8.901   5.460  72.420  1.00  0.00    -0.131 C  
HETATM   23  O   UNL     1      -8.381   5.434  73.743  1.00  0.00    -0.111 OA 
HETATM   24  H   UNL     1      -7.664   4.813  73.794  1.00  0.00     0.000 HD 
ENDBRANCH  21  22
ENDBRANCH  20  21
ENDBRANCH  19  20
ENDBRANCH  18  19
ENDBRANCH  17  18
ENDBRANCH  16  17
ENDBRANCH  15  16
ENDBRANCH  14  15
ENDBRANCH  13  14
ENDBRANCH  12  13
ENDBRANCH  11  12
ENDBRANCH  10  11
ENDBRANCH   9  10
ENDBRANCH   8   9
ENDBRANCH   7   8
ENDBRANCH   6   7
ENDBRANCH   5   6
ENDBRANCH   4   5
ENDBRANCH   3   4
ENDBRANCH   2   3
TORSDOF 20
ENDMDL
MODEL      509
REMARK 921   NORMALIZED FREE ENERGY PREDICTED BY IDOCK:    1.09 KCAL/MOL
REMARK 922        TOTAL FREE ENERGY PREDICTED BY IDOCK:   -0.50 KCAL/MOL
REMARK 923 INTER-LIGAND FREE ENERGY PREDICTED BY IDOCK:   -3.81 KCAL/MOL
REMARK 924 INTRA-LIGAND FREE ENERGY PREDICTED BY IDOCK:    3.31 KCAL/MOL
REMARK 927      BINDING AFFINITY PREDICTED BY RF-SCORE:    0.00 PKD
ROOT
HETATM    1  C   UNL     1      -9.259  11.102  69.770  1.00  0.00     0.909 C  
HETATM    2  C   UNL     1      -9.008   9.783  69.060  1.00  0.00    -0.154 C  
ENDROOT
BRANCH   2   3
HETATM    3  C   UNL     1      -8.475  10.012  67.649  1.00  0.00    -0.114 C  
BRANCH   3   4
HETATM    4  C   UNL     1      -7.989  11.447  67.470  1.00  0.00    -0.127 C  
BRANCH   4   5
HETATM    5  C   UNL     1      -9.098  12.327  66.902  1.00  0.00    -0.208 C  
BRANCH   5   6
HETATM    6  C   UNL     1     -10.468  11.709  67.163  1.00  0.00    -0.252 C  
BRANCH   6   7
HETATM    7  C   UNL     1     -11.577  12.626  66.661  1.00  0.00    -0.443 C  
BRANCH   7   8
HETATM    8  C   UNL     1     -11.852  12.375  65.185  1.00  0.00    -0.437 C  
BRANCH   8   9
HETATM    9  C   UNL     1     -11.717  13.665  64.387  1.00  0.00    -0.444 C  
BRANCH   9  10
HETATM   10  C   UNL     1     -11.157  14.778  65.262  1.00  0.00    -0.374 C  
BRANCH  10  11
HETATM   11  C   UNL     1     -11.884  14.824  66.598  1.00  0.00    -0.255 C  
BRANCH  11  12
HETATM   12  C   UNL     1     -11.823  16.225  67.190  1.00  0.00     0.925 C  
BRANCH  12  13
HETATM   13  C   UNL     1     -11.491  16.163  68.673  1.00  0.00    -0.340 C  
BRANCH  13  14
HETATM   14  C   UNL     1     -10.373  17.140  69.013  1.00  0.00    -0.331 C  
BRANCH  14  15
HETATM   15  C   UNL     1     -10.754  18.553  68.598  1.00  0.00     0.233 C  
BRANCH  15  16
HETATM   16  C   UNL     1     -10.696  18.700  67.083  1.00  0.00    -0.433 C  
BRANCH  16  17
HETATM   17  C   UNL     1      -9.986  19.992  66.695  1.00  0.00    -0.598 C  
BRANCH  17  18
HETATM   18  C   UNL     1      -8.662  19.690  66.003  1.00  0.00    -0.265 C  
BRANCH  18  19
HETATM   19  C   UNL     1      -7.841  18.694  66.815  1.00  0.00    -0.258 C  
BRANCH  19  20
HETATM   20  C   UNL     1      -6.540  18.353  66.094  1.00  0.00    -0.272 C  
BRANCH  20  21
HETATM   21  C   UNL     1      -5.332  18.683  66.962  1.00  0.00    -0.139 C  
BRANCH  21  22
HETATM   22  C   UNL     1      -5.255  20.175  67.260  1.00  0.00    -0.157 C  
HETATM   23  O   UNL     1      -6.249  20.526  68.213  1.00  0.00    -0.278 OA 
HETATM   24  H   UNL     1      -6.202  21.457  68.399  1.00  0.00     0.000 HD 
ENDBRANCH  21  22
ENDBRANCH  20  21
ENDBRANCH  19  20
ENDBRANCH  18  19
ENDBRANCH  17  18
ENDBRANCH  16  17
ENDBRANCH  15  16
ENDBRANCH  14  15
ENDBRANCH  13  14
ENDBRANCH  12  13
ENDBRANCH  11  12
ENDBRANCH  10  11
ENDBRANCH   9  10
ENDBRANCH   8   9
ENDBRANCH   7   8
ENDBRANCH   6   7
ENDBRANCH   5   6
ENDBRANCH   4   5
ENDBRANCH   3   4
ENDBRANCH   2   3
TORSDOF 20
ENDMDL
MODEL      510
REMARK 921   NORMALIZED FREE ENERGY PREDICTED BY IDOCK:    1.23 KCAL/MOL
REMARK 922        TOTAL FREE ENERGY PREDICTED BY IDOCK:   -0.19 KCAL/MOL
REMARK 923 INTER-LIGAND FREE ENERGY PREDICTED BY IDOCK:    0.91 KCAL/MOL
REMARK 924 INTRA-LIGAND FREE ENERGY PREDICTED BY IDOCK:   -1.11 KCAL/MOL
REMARK 927      BINDING AFFINITY PREDICTED BY RF-SCORE:    0.00 PKD
ROOT
HETATM    1  C   UNL     1      -6.648  13.226  72.393  1.00  0.00     3.653 C  
HETATM    2  C   UNL     1      -5.446  13.558  71.526  1.00  0.00    -0.191 C  
ENDROOT
BRANCH   2   3
HETATM    3  C   UNL     1      -5.443  15.032  71.132  1.00  0.00    -0.068 C  
BRANCH   3   4
HETATM    4  C   UNL     1      -6.411  15.296  69.982  1.00  0.00    -0.147 C  
BRANCH   4   5
HETATM    5  C   UNL     1      -5.650  15.583  68.691  1.00  0.00    -0.092 C  
BRANCH   5   6
HETATM    6  C   UNL     1      -5.714  14.387  67.746  1.00  0.00    -0.072 C  
BRANCH   6   7
HETATM    7  C   UNL     1      -6.962  13.555  68.015  1.00  0.00    -0.133 C  
BRANCH   7   8
HETATM    8  C   UNL     1      -8.118  14.025  67.141  1.00  0.00    -0.121 C  
BRANCH   8   9
HETATM    9  C   UNL     1      -9.160  12.924  66.993  1.00  0.00    -0.228 C  
BRANCH   9  10
HETATM   10  C   UNL     1      -8.488  11.584  66.729  1.00  0.00    -0.168 C  
BRANCH  10  11
HETATM   11  C   UNL     1      -9.305  10.449  67.331  1.00  0.00    -0.162 C  
BRANCH  11  12
HETATM   12  C   UNL     1      -8.428   9.569  68.210  1.00  0.00    -0.119 C  
BRANCH  12  13
HETATM   13  C   UNL     1      -8.985   9.506  69.624  1.00  0.00    -0.198 C  
BRANCH  13  14
HETATM   14  C   UNL     1      -8.794   8.115  70.213  1.00  0.00    -0.141 C  
BRANCH  14  15
HETATM   15  C   UNL     1      -8.448   8.205  71.692  1.00  0.00    -0.173 C  
BRANCH  15  16
HETATM   16  C   UNL     1      -9.370   7.313  72.513  1.00  0.00    -0.174 C  
BRANCH  16  17
HETATM   17  C   UNL     1      -9.961   6.207  71.647  1.00  0.00    -0.203 C  
BRANCH  17  18
HETATM   18  C   UNL     1      -8.979   5.049  71.512  1.00  0.00    -0.157 C  
BRANCH  18  19
HETATM   19  C   UNL     1      -7.863   5.160  72.545  1.00  0.00    -0.101 C  
BRANCH  19  20
HETATM   20  C   UNL     1      -6.519   4.783  71.931  1.00  0.00    -0.030 C  
BRANCH  20  21
HETATM   21  C   UNL     1      -6.548   3.361  71.384  1.00  0.00    -0.026 C  
BRANCH  21  22
HETATM   22  C   UNL     1      -5.356   3.094  70.473  1.00  0.00    -0.012 C  
HETATM   23  O   UNL     1      -5.783   3.068  69.118  1.00  0.00    -0.020 OA 
HETATM   24  H   UNL     1      -5.040   2.902  68.550  1.00  0.00     0.000 HD 
ENDBRANCH  21  22
ENDBRANCH  20  21
ENDBRANCH  19  20
ENDBRANCH  18  19
ENDBRANCH  17  18
ENDBRANCH  16  17
ENDBRANCH  15  16
ENDBRANCH  14  15
ENDBRANCH  13  14
ENDBRANCH  12  13
ENDBRANCH  11  12
ENDBRANCH  10  11
ENDBRANCH   9  10
ENDBRANCH   8   9
ENDBRANCH   7   8
ENDBRANCH   6   7
ENDBRANCH   5   6
ENDBRANCH   4   5
ENDBRANCH   3   4
ENDBRANCH   2   3
TORSDOF 20
ENDMDL
MODEL      511
REMARK 921   NORMALIZED FREE ENERGY PREDICTED BY IDOCK:    1.74 KCAL/MOL
REMARK 922        TOTAL FREE ENERGY PREDICTED BY IDOCK:    0.92 KCAL/MOL
REMARK 923 INTER-LIGAND FREE ENERGY PREDICTED BY IDOCK:    2.60 KCAL/MOL
REMARK 924 INTRA-LIGAND FREE ENERGY PREDICTED BY IDOCK:   -1.68 KCAL/MOL
REMARK 927      BINDING AFFINITY PREDICTED BY RF-SCORE:    0.00 PKD
ROOT
HETATM    1  C   UNL     1      -6.493  12.075  73.540  1.00  0.00     5.158 C  
HETATM    2  C   UNL     1      -5.267  12.387  72.698  1.00  0.00     0.429 C  
ENDROOT
BRANCH   2   3
HETATM    3  C   UNL     1      -5.161  13.882  72.414  1.00  0.00    -0.212 C  
BRANCH   3   4
HETATM    4  C   UNL     1      -6.132  14.303  71.315  1.00  0.00    -0.043 C  
BRANCH   4   5
HETATM    5  C   UNL     1      -5.380  14.657  70.036  1.00  0.00    -0.098 C  
BRANCH   5   6
HETATM    6  C   UNL     1      -5.581  13.581  68.973  1.00  0.00    -0.074 C  
BRANCH   6   7
HETATM    7  C   UNL     1      -6.983  12.992  69.063  1.00  0.00    -0.056 C  
BRANCH   7   8
HETATM    8  C   UNL     1      -7.994  13.907  68.385  1.00  0.00    -0.144 C  
BRANCH   8   9
HETATM    9  C   UNL     1      -9.177  13.103  67.860  1.00  0.00    -0.207 C  
BRANCH   9  10
HETATM   10  C   UNL     1      -8.694  11.877  67.098  1.00  0.00    -0.176 C  
BRANCH  10  11
HETATM   11  C   UNL     1      -9.811  10.849  66.979  1.00  0.00    -0.214 C  
BRANCH  11  12
HETATM   12  C   UNL     1      -9.287   9.454  67.290  1.00  0.00    -0.159 C  
BRANCH  12  13
HETATM   13  C   UNL     1      -8.241   9.512  68.392  1.00  0.00    -0.113 C  
BRANCH  13  14
HETATM   14  C   UNL     1      -8.479   8.408  69.415  1.00  0.00    -0.125 C  
BRANCH  14  15
HETATM   15  C   UNL     1      -7.266   8.247  70.318  1.00  0.00    -0.051 C  
BRANCH  15  16
HETATM   16  C   UNL     1      -7.666   8.381  71.782  1.00  0.00    -0.147 C  
BRANCH  16  17
HETATM   17  C   UNL     1      -9.184   8.400  71.925  1.00  0.00    -0.306 C  
BRANCH  17  18
HETATM   18  C   UNL     1      -9.678   7.114  72.577  1.00  0.00    -0.180 C  
BRANCH  18  19
HETATM   19  C   UNL     1      -8.541   6.109  72.725  1.00  0.00    -0.123 C  
BRANCH  19  20
HETATM   20  C   UNL     1      -9.033   4.693  72.446  1.00  0.00    -0.138 C  
BRANCH  20  21
HETATM   21  C   UNL     1      -9.269   3.930  73.744  1.00  0.00    -0.099 C  
BRANCH  21  22
HETATM   22  C   UNL     1     -10.146   2.706  73.515  1.00  0.00    -0.109 C  
HETATM   23  O   UNL     1     -11.517   3.071  73.609  1.00  0.00    -0.217 OA 
HETATM   24  H   UNL     1     -12.063   2.308  73.466  1.00  0.00     0.000 HD 
ENDBRANCH  21  22
ENDBRANCH  20  21
ENDBRANCH  19  20
ENDBRANCH  18  19
ENDBRANCH  17  18
ENDBRANCH  16  17
ENDBRANCH  15  16
ENDBRANCH  14  15
ENDBRANCH  13  14
ENDBRANCH  12  13
ENDBRANCH  11  12
ENDBRANCH  10  11
ENDBRANCH   9  10
ENDBRANCH   8   9
ENDBRANCH   7   8
ENDBRANCH   6   7
ENDBRANCH   5   6
ENDBRANCH   4   5
ENDBRANCH   3   4
ENDBRANCH   2   3
TORSDOF 20
ENDMDL
MODEL      512
REMARK 921   NORMALIZED FREE ENERGY PREDICTED BY IDOCK:    4.48 KCAL/MOL
REMARK 922        TOTAL FREE ENERGY PREDICTED BY IDOCK:    6.86 KCAL/MOL
REMARK 923 INTER-LIGAND FREE ENERGY PREDICTED BY IDOCK:    3.65 KCAL/MOL
REMARK 924 INTRA-LIGAND FREE ENERGY PREDICTED BY IDOCK:    3.21 KCAL/MOL
REMARK 927      BINDING AFFINITY PREDICTED BY RF-SCORE:    0.00 PKD
ROOT
HETATM    1  C   UNL     1     -12.233  14.115  70.520  1.00  0.00    -0.431 C  
HETATM    2  C   UNL     1     -11.854  12.999  69.560  1.00  0.00    -0.385 C  
ENDROOT
BRANCH   2   3
HETATM    3  C   UNL     1     -12.434  11.663  70.014  1.00  0.00    -0.166 C  
BRANCH   3   4
HETATM    4  C   UNL     1     -11.843  11.233  71.353  1.00  0.00     0.442 C  
BRANCH   4   5
HETATM    5  C   UNL     1     -11.833   9.712  71.475  1.00  0.00    -0.483 C  
BRANCH   5   6
HETATM    6  C   UNL     1     -10.986   9.084  70.373  1.00  0.00    -0.283 C  
BRANCH   6   7
HETATM    7  C   UNL     1      -9.746   9.926  70.102  1.00  0.00    -0.255 C  
BRANCH   7   8
HETATM    8  C   UNL     1      -9.021   9.428  68.859  1.00  0.00    -0.136 C  
BRANCH   8   9
HETATM    9  C   UNL     1      -9.398   7.983  68.560  1.00  0.00    -0.142 C  
BRANCH   9  10
HETATM   10  C   UNL     1      -8.228   7.245  67.926  1.00  0.00    -0.119 C  
BRANCH  10  11
HETATM   11  C   UNL     1      -7.447   8.173  67.006  1.00  0.00    -0.088 C  
BRANCH  11  12
HETATM   12  C   UNL     1      -8.342   8.699  65.894  1.00  0.00    -0.140 C  
BRANCH  12  13
HETATM   13  C   UNL     1      -7.535   9.530  64.908  1.00  0.00    -0.111 C  
BRANCH  13  14
HETATM   14  C   UNL     1      -7.831   9.100  63.477  1.00  0.00    -0.132 C  
BRANCH  14  15
HETATM   15  C   UNL     1      -9.323   8.872  63.286  1.00  0.00     1.005 C  
BRANCH  15  16
HETATM   16  C   UNL     1      -9.605   7.407  62.976  1.00  0.00     3.477 C  
BRANCH  16  17
HETATM   17  C   UNL     1      -9.349   6.539  64.202  1.00  0.00     1.842 C  
BRANCH  17  18
HETATM   18  C   UNL     1      -7.895   6.086  64.246  1.00  0.00    -0.113 C  
BRANCH  18  19
HETATM   19  C   UNL     1      -7.261   6.164  62.861  1.00  0.00    -0.054 C  
BRANCH  19  20
HETATM   20  C   UNL     1      -5.742   6.062  62.957  1.00  0.00    -0.018 C  
BRANCH  20  21
HETATM   21  C   UNL     1      -5.317   5.457  64.290  1.00  0.00    -0.013 C  
BRANCH  21  22
HETATM   22  C   UNL     1      -5.730   6.345  65.456  1.00  0.00    -0.022 C  
HETATM   23  O   UNL     1      -5.200   7.652  65.277  1.00  0.00    -0.028 OA 
HETATM   24  H   UNL     1      -5.457   8.206  66.005  1.00  0.00     0.000 HD 
ENDBRANCH  21  22
ENDBRANCH  20  21
ENDBRANCH  19  20
ENDBRANCH  18  19
ENDBRANCH  17  18
ENDBRANCH  16  17
ENDBRANCH  15  16
ENDBRANCH  14  15
ENDBRANCH  13  14
ENDBRANCH  12  13
ENDBRANCH  11  12
ENDBRANCH  10  11
ENDBRANCH   9  10
ENDBRANCH   8   9
ENDBRANCH   7   8
ENDBRANCH   6   7
ENDBRANCH   5   6
ENDBRANCH   4   5
ENDBRANCH   3   4
ENDBRANCH   2   3
TORSDOF 20
ENDMDL
