MODEL        1
REMARK 921   NORMALIZED FREE ENERGY PREDICTED BY IDOCK:   -6.33 KCAL/MOL
REMARK 922        TOTAL FREE ENERGY PREDICTED BY IDOCK:  -12.65 KCAL/MOL
REMARK 923 INTER-LIGAND FREE ENERGY PREDICTED BY IDOCK:  -10.41 KCAL/MOL
REMARK 924 INTRA-LIGAND FREE ENERGY PREDICTED BY IDOCK:   -2.25 KCAL/MOL
REMARK 927      BINDING AFFINITY PREDICTED BY RF-SCORE:    0.00 PKD
ROOT
HETATM    1  C   UNL     1     -12.298  15.327  73.883  1.00  0.00    -0.756 C  
HETATM    2  C   UNL     1     -13.496  16.028  73.258  1.00  0.00    -0.570 C  
ENDROOT
BRANCH   2   3
HETATM    3  C   UNL     1     -14.090  15.191  72.124  1.00  0.00    -0.654 C  
BRANCH   3   4
HETATM    4  C   UNL     1     -13.133  14.088  71.656  1.00  0.00    -0.435 C  
HETATM    5  C   UNL     1     -12.655  14.268  70.199  1.00  0.00    -0.338 C  
HETATM    6  C   UNL     1     -11.994  15.636  69.909  1.00  0.00    -0.376 C  
HETATM    7  C   UNL     1     -11.742  13.094  69.786  1.00  0.00    -0.280 C  
HETATM    8  C   UNL     1     -10.664  15.863  70.613  1.00  0.00    -0.129 C  
BRANCH   7   9
HETATM    9  O   UNL     1     -11.292  13.306  68.436  1.00  0.00    -0.254 OA 
BRANCH   9  10
HETATM   10  C   UNL     1     -11.477  12.267  67.580  1.00  0.00    -0.347 C  
HETATM   11  O   UNL     1     -12.212  11.312  67.784  1.00  0.00    -0.504 OA 
BRANCH  10  12
HETATM   12  C   UNL     1     -10.815  12.532  66.253  1.00  0.00    -0.299 C  
BRANCH  12  13
HETATM   13  C   UNL     1     -11.481  13.638  65.440  1.00  0.00    -0.311 C  
HETATM   14  O   UNL     1     -10.728  12.473  63.181  1.00  0.00    -0.305 OA 
HETATM   15  S   UNL     1     -11.868  13.098  63.804  1.00  0.00    -0.479 S  
HETATM   16  O   UNL     1     -12.902  11.922  64.205  1.00  0.00    -0.401 OA 
HETATM   17  O   UNL     1     -12.683  14.082  63.127  1.00  0.00    -0.676 OA 
BRANCH  13  18
HETATM   18  C   UNL     1     -10.575  14.823  65.326  1.00  0.00    -0.395 C  
HETATM   19  O   UNL     1     -10.853  15.844  64.712  1.00  0.00    -0.533 OA 
BRANCH  18  20
HETATM   20  O   UNL     1      -9.343  14.538  65.835  1.00  0.00    -0.231 OA 
BRANCH  20  21
HETATM   21  C   UNL     1      -8.597  15.679  66.293  1.00  0.00    -0.230 C  
HETATM   22  C   UNL     1      -8.506  15.809  67.825  1.00  0.00    -0.162 C  
HETATM   23  C   UNL     1      -7.913  14.546  68.489  1.00  0.00    -0.142 C  
HETATM   24  C   UNL     1      -7.729  17.079  68.242  1.00  0.00    -0.209 C  
HETATM   25  C   UNL     1      -6.466  14.240  68.127  1.00  0.00    -0.135 C  
BRANCH  24  26
HETATM   26  C   UNL     1      -8.343  18.379  67.714  1.00  0.00    -0.273 C  
BRANCH  26  27
HETATM   27  C   UNL     1      -9.602  18.763  68.492  1.00  0.00    -0.413 C  
HETATM   28  C   UNL     1     -10.692  19.260  67.551  1.00  0.00    -0.571 C  
ENDBRANCH  26  27
ENDBRANCH  24  26
ENDBRANCH  20  21
ENDBRANCH  18  20
ENDBRANCH  13  18
ENDBRANCH  12  13
ENDBRANCH  10  12
ENDBRANCH   9  10
ENDBRANCH   7   9
ENDBRANCH   3   4
ENDBRANCH   2   3
TORSDOF 11
ENDMDL
MODEL        2
REMARK 921   NORMALIZED FREE ENERGY PREDICTED BY IDOCK:   -6.13 KCAL/MOL
REMARK 922        TOTAL FREE ENERGY PREDICTED BY IDOCK:  -12.31 KCAL/MOL
REMARK 923 INTER-LIGAND FREE ENERGY PREDICTED BY IDOCK:  -10.80 KCAL/MOL
REMARK 924 INTRA-LIGAND FREE ENERGY PREDICTED BY IDOCK:   -1.51 KCAL/MOL
REMARK 927      BINDING AFFINITY PREDICTED BY RF-SCORE:    0.00 PKD
ROOT
HETATM    1  C   UNL     1     -10.519   6.846  73.693  1.00  0.00    -0.400 C  
HETATM    2  C   UNL     1      -9.981   7.811  72.645  1.00  0.00    -0.298 C  
ENDROOT
BRANCH   2   3
HETATM    3  C   UNL     1     -11.120   8.562  71.956  1.00  0.00    -0.412 C  
BRANCH   3   4
HETATM    4  C   UNL     1     -10.609   9.711  71.079  1.00  0.00    -0.362 C  
HETATM    5  C   UNL     1     -11.656  10.222  70.065  1.00  0.00    -0.349 C  
HETATM    6  C   UNL     1     -12.998  10.657  70.699  1.00  0.00    -0.343 C  
HETATM    7  C   UNL     1     -11.050  11.338  69.187  1.00  0.00    -0.253 C  
HETATM    8  C   UNL     1     -12.915  11.895  71.580  1.00  0.00    -0.447 C  
BRANCH   7   9
HETATM    9  O   UNL     1     -12.058  11.810  68.274  1.00  0.00    -0.525 OA 
BRANCH   9  10
HETATM   10  C   UNL     1     -11.928  13.100  67.865  1.00  0.00    -0.303 C  
HETATM   11  O   UNL     1     -12.302  14.077  68.497  1.00  0.00    -0.265 OA 
BRANCH  10  12
HETATM   12  C   UNL     1     -11.084  13.193  66.622  1.00  0.00    -0.316 C  
BRANCH  12  13
HETATM   13  C   UNL     1     -11.653  14.128  65.558  1.00  0.00    -0.337 C  
HETATM   14  O   UNL     1     -10.697  12.571  63.637  1.00  0.00    -0.430 OA 
HETATM   15  S   UNL     1     -11.884  13.294  64.018  1.00  0.00    -0.463 S  
HETATM   16  O   UNL     1     -12.969  12.208  64.525  1.00  0.00    -0.677 OA 
HETATM   17  O   UNL     1     -12.616  14.133  63.096  1.00  0.00    -0.686 OA 
BRANCH  13  18
HETATM   18  C   UNL     1     -10.724  15.276  65.318  1.00  0.00    -0.415 C  
HETATM   19  O   UNL     1     -10.986  16.234  64.604  1.00  0.00    -0.674 OA 
BRANCH  18  20
HETATM   20  O   UNL     1      -9.494  15.019  65.847  1.00  0.00    -0.315 OA 
BRANCH  20  21
HETATM   21  C   UNL     1      -8.768  16.180  66.288  1.00  0.00    -0.337 C  
HETATM   22  C   UNL     1      -9.105  16.639  67.719  1.00  0.00    -0.212 C  
HETATM   23  C   UNL     1      -8.897  15.516  68.760  1.00  0.00    -0.203 C  
HETATM   24  C   UNL     1      -8.321  17.914  68.105  1.00  0.00    -0.267 C  
HETATM   25  C   UNL     1      -7.460  15.042  68.926  1.00  0.00    -0.143 C  
BRANCH  24  26
HETATM   26  C   UNL     1      -8.582  19.104  67.177  1.00  0.00    -0.306 C  
BRANCH  26  27
HETATM   27  C   UNL     1     -10.051  19.530  67.207  1.00  0.00    -0.523 C  
HETATM   28  C   UNL     1     -10.619  19.620  65.797  1.00  0.00    -0.537 C  
ENDBRANCH  26  27
ENDBRANCH  24  26
ENDBRANCH  20  21
ENDBRANCH  18  20
ENDBRANCH  13  18
ENDBRANCH  12  13
ENDBRANCH  10  12
ENDBRANCH   9  10
ENDBRANCH   7   9
ENDBRANCH   3   4
ENDBRANCH   2   3
TORSDOF 11
ENDMDL
MODEL        3
REMARK 921   NORMALIZED FREE ENERGY PREDICTED BY IDOCK:   -6.10 KCAL/MOL
REMARK 922        TOTAL FREE ENERGY PREDICTED BY IDOCK:  -12.27 KCAL/MOL
REMARK 923 INTER-LIGAND FREE ENERGY PREDICTED BY IDOCK:  -10.36 KCAL/MOL
REMARK 924 INTRA-LIGAND FREE ENERGY PREDICTED BY IDOCK:   -1.91 KCAL/MOL
REMARK 927      BINDING AFFINITY PREDICTED BY RF-SCORE:    0.00 PKD
ROOT
HETATM    1  C   UNL     1     -11.453   6.443  70.174  1.00  0.00    -0.484 C  
HETATM    2  C   UNL     1     -11.045   6.337  68.711  1.00  0.00    -0.424 C  
ENDROOT
BRANCH   2   3
HETATM    3  C   UNL     1      -9.914   7.311  68.385  1.00  0.00    -0.172 C  
BRANCH   3   4
HETATM    4  C   UNL     1     -10.415   8.549  67.631  1.00  0.00    -0.308 C  
HETATM    5  C   UNL     1     -10.789   9.724  68.560  1.00  0.00    -0.227 C  
HETATM    6  C   UNL     1      -9.657  10.167  69.516  1.00  0.00    -0.243 C  
HETATM    7  C   UNL     1     -11.333  10.908  67.733  1.00  0.00    -0.292 C  
HETATM    8  C   UNL     1      -8.453  10.796  68.830  1.00  0.00    -0.149 C  
BRANCH   7   9
HETATM    9  O   UNL     1     -11.645  11.995  68.624  1.00  0.00    -0.270 OA 
BRANCH   9  10
HETATM   10  C   UNL     1     -11.689  13.230  68.059  1.00  0.00    -0.359 C  
HETATM   11  O   UNL     1     -12.126  14.234  68.601  1.00  0.00    -0.325 OA 
BRANCH  10  12
HETATM   12  C   UNL     1     -10.947  13.255  66.749  1.00  0.00    -0.302 C  
BRANCH  12  13
HETATM   13  C   UNL     1     -11.523  14.234  65.731  1.00  0.00    -0.335 C  
HETATM   14  O   UNL     1     -10.787  12.645  63.741  1.00  0.00    -0.406 OA 
HETATM   15  S   UNL     1     -11.902  13.434  64.202  1.00  0.00    -0.448 S  
HETATM   16  O   UNL     1     -13.016  12.408  64.768  1.00  0.00    -0.786 OA 
HETATM   17  O   UNL     1     -12.638  14.325  63.335  1.00  0.00    -0.777 OA 
BRANCH  13  18
HETATM   18  C   UNL     1     -10.544  15.327  65.441  1.00  0.00    -0.394 C  
HETATM   19  O   UNL     1     -10.753  16.250  64.665  1.00  0.00    -0.670 OA 
BRANCH  18  20
HETATM   20  O   UNL     1      -9.336  15.055  66.011  1.00  0.00    -0.304 OA 
BRANCH  20  21
HETATM   21  C   UNL     1      -8.597  16.208  66.450  1.00  0.00    -0.330 C  
HETATM   22  C   UNL     1      -9.021  16.752  67.826  1.00  0.00    -0.216 C  
HETATM   23  C   UNL     1      -8.940  15.677  68.934  1.00  0.00    -0.221 C  
HETATM   24  C   UNL     1      -8.216  18.015  68.211  1.00  0.00    -0.298 C  
HETATM   25  C   UNL     1      -7.541  15.157  69.233  1.00  0.00    -0.201 C  
BRANCH  24  26
HETATM   26  C   UNL     1      -8.357  19.165  67.209  1.00  0.00    -0.301 C  
BRANCH  26  27
HETATM   27  C   UNL     1      -9.725  19.839  67.314  1.00  0.00    -0.496 C  
HETATM   28  C   UNL     1     -10.522  19.654  66.029  1.00  0.00    -0.622 C  
ENDBRANCH  26  27
ENDBRANCH  24  26
ENDBRANCH  20  21
ENDBRANCH  18  20
ENDBRANCH  13  18
ENDBRANCH  12  13
ENDBRANCH  10  12
ENDBRANCH   9  10
ENDBRANCH   7   9
ENDBRANCH   3   4
ENDBRANCH   2   3
TORSDOF 11
ENDMDL
MODEL        4
REMARK 921   NORMALIZED FREE ENERGY PREDICTED BY IDOCK:   -6.07 KCAL/MOL
REMARK 922        TOTAL FREE ENERGY PREDICTED BY IDOCK:  -12.22 KCAL/MOL
REMARK 923 INTER-LIGAND FREE ENERGY PREDICTED BY IDOCK:  -10.87 KCAL/MOL
REMARK 924 INTRA-LIGAND FREE ENERGY PREDICTED BY IDOCK:   -1.36 KCAL/MOL
REMARK 927      BINDING AFFINITY PREDICTED BY RF-SCORE:    0.00 PKD
ROOT
HETATM    1  C   UNL     1     -10.741   5.885  73.264  1.00  0.00    -0.290 C  
HETATM    2  C   UNL     1     -11.162   6.742  72.079  1.00  0.00    -0.297 C  
ENDROOT
BRANCH   2   3
HETATM    3  C   UNL     1     -11.482   8.170  72.521  1.00  0.00    -0.470 C  
BRANCH   3   4
HETATM    4  C   UNL     1     -10.880   9.218  71.577  1.00  0.00    -0.442 C  
HETATM    5  C   UNL     1     -11.845   9.660  70.455  1.00  0.00    -0.284 C  
HETATM    6  C   UNL     1     -13.208  10.189  70.958  1.00  0.00    -0.412 C  
HETATM    7  C   UNL     1     -11.149  10.671  69.519  1.00  0.00    -0.274 C  
HETATM    8  C   UNL     1     -13.138  11.501  71.726  1.00  0.00    -0.503 C  
BRANCH   7   9
HETATM    9  O   UNL     1     -12.082  11.083  68.504  1.00  0.00    -0.573 OA 
BRANCH   9  10
HETATM   10  C   UNL     1     -11.956  12.365  68.069  1.00  0.00    -0.203 C  
HETATM   11  O   UNL     1     -12.184  13.359  68.742  1.00  0.00    -0.295 OA 
BRANCH  10  12
HETATM   12  C   UNL     1     -11.307  12.417  66.712  1.00  0.00    -0.391 C  
BRANCH  12  13
HETATM   13  C   UNL     1     -11.695  13.641  65.887  1.00  0.00    -0.354 C  
HETATM   14  O   UNL     1     -10.908  12.430  63.664  1.00  0.00    -0.411 OA 
HETATM   15  S   UNL     1     -11.991  13.219  64.198  1.00  0.00    -0.462 S  
HETATM   16  O   UNL     1     -13.239  12.221  64.442  1.00  0.00    -0.806 OA 
HETATM   17  O   UNL     1     -12.559  14.343  63.490  1.00  0.00    -0.784 OA 
BRANCH  13  18
HETATM   18  C   UNL     1     -10.601  14.661  65.917  1.00  0.00    -0.311 C  
HETATM   19  O   UNL     1      -9.416  14.393  66.057  1.00  0.00    -0.282 OA 
BRANCH  18  20
HETATM   20  O   UNL     1     -11.118  15.922  65.954  1.00  0.00    -0.203 OA 
BRANCH  20  21
HETATM   21  C   UNL     1     -10.210  16.937  66.415  1.00  0.00    -0.321 C  
HETATM   22  C   UNL     1     -10.625  17.612  67.736  1.00  0.00    -0.380 C  
HETATM   23  C   UNL     1     -10.829  16.592  68.878  1.00  0.00    -0.321 C  
HETATM   24  C   UNL     1      -9.627  18.720  68.145  1.00  0.00    -0.373 C  
HETATM   25  C   UNL     1      -9.579  15.836  69.306  1.00  0.00    -0.270 C  
BRANCH  24  26
HETATM   26  C   UNL     1      -9.474  19.829  67.100  1.00  0.00    -0.471 C  
BRANCH  26  27
HETATM   27  C   UNL     1      -8.005  20.187  66.870  1.00  0.00    -0.356 C  
HETATM   28  C   UNL     1      -7.175  19.900  68.114  1.00  0.00    -0.330 C  
ENDBRANCH  26  27
ENDBRANCH  24  26
ENDBRANCH  20  21
ENDBRANCH  18  20
ENDBRANCH  13  18
ENDBRANCH  12  13
ENDBRANCH  10  12
ENDBRANCH   9  10
ENDBRANCH   7   9
ENDBRANCH   3   4
ENDBRANCH   2   3
TORSDOF 11
ENDMDL
MODEL        5
REMARK 921   NORMALIZED FREE ENERGY PREDICTED BY IDOCK:   -5.95 KCAL/MOL
REMARK 922        TOTAL FREE ENERGY PREDICTED BY IDOCK:  -12.02 KCAL/MOL
REMARK 923 INTER-LIGAND FREE ENERGY PREDICTED BY IDOCK:  -10.64 KCAL/MOL
REMARK 924 INTRA-LIGAND FREE ENERGY PREDICTED BY IDOCK:   -1.38 KCAL/MOL
REMARK 927      BINDING AFFINITY PREDICTED BY RF-SCORE:    0.00 PKD
ROOT
HETATM    1  C   UNL     1     -11.322   6.501  71.334  1.00  0.00    -0.344 C  
HETATM    2  C   UNL     1     -12.574   7.299  71.668  1.00  0.00    -0.403 C  
ENDROOT
BRANCH   2   3
HETATM    3  C   UNL     1     -12.228   8.750  72.001  1.00  0.00    -0.447 C  
BRANCH   3   4
HETATM    4  C   UNL     1     -12.674   9.719  70.899  1.00  0.00    -0.329 C  
HETATM    5  C   UNL     1     -11.551  10.666  70.423  1.00  0.00    -0.441 C  
HETATM    6  C   UNL     1     -10.271   9.944  69.942  1.00  0.00    -0.298 C  
HETATM    7  C   UNL     1     -12.091  11.642  69.357  1.00  0.00    -0.263 C  
HETATM    8  C   UNL     1     -10.437   9.132  68.666  1.00  0.00    -0.235 C  
BRANCH   7   9
HETATM    9  O   UNL     1     -11.015  12.490  68.914  1.00  0.00    -0.237 OA 
BRANCH   9  10
HETATM   10  C   UNL     1     -11.382  13.600  68.222  1.00  0.00    -0.289 C  
HETATM   11  O   UNL     1     -12.002  14.544  68.690  1.00  0.00    -0.322 OA 
BRANCH  10  12
HETATM   12  C   UNL     1     -10.757  13.619  66.853  1.00  0.00    -0.275 C  
BRANCH  12  13
HETATM   13  C   UNL     1     -11.413  14.602  65.887  1.00  0.00    -0.338 C  
HETATM   14  O   UNL     1     -10.876  13.000  63.844  1.00  0.00    -0.395 OA 
HETATM   15  S   UNL     1     -11.936  13.801  64.402  1.00  0.00    -0.448 S  
HETATM   16  O   UNL     1     -13.005  12.789  65.070  1.00  0.00    -0.811 OA 
HETATM   17  O   UNL     1     -12.738  14.698  63.602  1.00  0.00    -0.735 OA 
BRANCH  13  18
HETATM   18  C   UNL     1     -10.453  15.683  65.507  1.00  0.00    -0.404 C  
HETATM   19  O   UNL     1     -10.707  16.582  64.716  1.00  0.00    -0.719 OA 
BRANCH  18  20
HETATM   20  O   UNL     1      -9.213  15.427  66.012  1.00  0.00    -0.316 OA 
BRANCH  20  21
HETATM   21  C   UNL     1      -8.481  16.587  66.445  1.00  0.00    -0.321 C  
HETATM   22  C   UNL     1      -8.997  17.214  67.754  1.00  0.00    -0.226 C  
HETATM   23  C   UNL     1      -9.029  16.202  68.920  1.00  0.00    -0.247 C  
HETATM   24  C   UNL     1      -8.192  18.480  68.132  1.00  0.00    -0.315 C  
HETATM   25  C   UNL     1      -7.670  15.669  69.356  1.00  0.00    -0.218 C  
BRANCH  24  26
HETATM   26  C   UNL     1      -8.225  19.575  67.062  1.00  0.00    -0.308 C  
BRANCH  26  27
HETATM   27  C   UNL     1      -9.448  20.479  67.220  1.00  0.00    -0.559 C  
HETATM   28  C   UNL     1     -10.161  20.202  68.537  1.00  0.00    -0.403 C  
ENDBRANCH  26  27
ENDBRANCH  24  26
ENDBRANCH  20  21
ENDBRANCH  18  20
ENDBRANCH  13  18
ENDBRANCH  12  13
ENDBRANCH  10  12
ENDBRANCH   9  10
ENDBRANCH   7   9
ENDBRANCH   3   4
ENDBRANCH   2   3
TORSDOF 11
ENDMDL
MODEL        6
REMARK 921   NORMALIZED FREE ENERGY PREDICTED BY IDOCK:   -5.90 KCAL/MOL
REMARK 922        TOTAL FREE ENERGY PREDICTED BY IDOCK:  -11.94 KCAL/MOL
REMARK 923 INTER-LIGAND FREE ENERGY PREDICTED BY IDOCK:  -10.31 KCAL/MOL
REMARK 924 INTRA-LIGAND FREE ENERGY PREDICTED BY IDOCK:   -1.63 KCAL/MOL
REMARK 927      BINDING AFFINITY PREDICTED BY RF-SCORE:    0.00 PKD
ROOT
HETATM    1  C   UNL     1     -11.815  17.029  73.835  1.00  0.00     0.034 C  
HETATM    2  C   UNL     1     -12.722  15.840  74.123  1.00  0.00    -0.678 C  
ENDROOT
BRANCH   2   3
HETATM    3  C   UNL     1     -13.513  15.440  72.878  1.00  0.00    -0.629 C  
BRANCH   3   4
HETATM    4  C   UNL     1     -12.921  14.206  72.186  1.00  0.00    -0.463 C  
HETATM    5  C   UNL     1     -12.807  14.357  70.653  1.00  0.00    -0.390 C  
HETATM    6  C   UNL     1     -12.010  15.598  70.192  1.00  0.00    -0.387 C  
HETATM    7  C   UNL     1     -12.255  13.058  70.028  1.00  0.00    -0.236 C  
HETATM    8  C   UNL     1     -10.526  15.564  70.525  1.00  0.00    -0.147 C  
BRANCH   7   9
HETATM    9  O   UNL     1     -12.136  13.241  68.605  1.00  0.00    -0.337 OA 
BRANCH   9  10
HETATM   10  C   UNL     1     -11.771  12.141  67.896  1.00  0.00    -0.336 C  
HETATM   11  O   UNL     1     -12.125  10.998  68.143  1.00  0.00    -0.610 OA 
BRANCH  10  12
HETATM   12  C   UNL     1     -11.034  12.524  66.640  1.00  0.00    -0.303 C  
BRANCH  12  13
HETATM   13  C   UNL     1     -11.542  13.810  65.993  1.00  0.00    -0.346 C  
HETATM   14  O   UNL     1     -11.095  12.808  63.580  1.00  0.00    -0.433 OA 
HETATM   15  S   UNL     1     -12.086  13.532  64.336  1.00  0.00    -0.416 S  
HETATM   16  O   UNL     1     -13.283  12.499  64.675  1.00  0.00    -0.848 OA 
HETATM   17  O   UNL     1     -12.755  14.705  63.822  1.00  0.00    -0.778 OA 
BRANCH  13  18
HETATM   18  C   UNL     1     -10.457  14.838  65.949  1.00  0.00    -0.312 C  
HETATM   19  O   UNL     1      -9.310  14.612  65.588  1.00  0.00    -0.169 OA 
BRANCH  18  20
HETATM   20  O   UNL     1     -10.868  15.999  66.535  1.00  0.00    -0.276 OA 
BRANCH  20  21
HETATM   21  C   UNL     1      -9.829  16.751  67.186  1.00  0.00    -0.259 C  
HETATM   22  C   UNL     1      -9.305  17.951  66.375  1.00  0.00    -0.268 C  
HETATM   23  C   UNL     1     -10.433  18.929  65.978  1.00  0.00    -0.507 C  
HETATM   24  C   UNL     1      -8.164  18.683  67.118  1.00  0.00    -0.258 C  
HETATM   25  C   UNL     1     -11.125  19.630  67.139  1.00  0.00    -0.266 C  
BRANCH  24  26
HETATM   26  C   UNL     1      -6.959  17.790  67.431  1.00  0.00    -0.197 C  
BRANCH  26  27
HETATM   27  C   UNL     1      -6.109  17.535  66.186  1.00  0.00    -0.235 C  
HETATM   28  C   UNL     1      -5.889  18.823  65.405  1.00  0.00    -0.261 C  
ENDBRANCH  26  27
ENDBRANCH  24  26
ENDBRANCH  20  21
ENDBRANCH  18  20
ENDBRANCH  13  18
ENDBRANCH  12  13
ENDBRANCH  10  12
ENDBRANCH   9  10
ENDBRANCH   7   9
ENDBRANCH   3   4
ENDBRANCH   2   3
TORSDOF 11
ENDMDL
MODEL        7
REMARK 921   NORMALIZED FREE ENERGY PREDICTED BY IDOCK:   -5.87 KCAL/MOL
REMARK 922        TOTAL FREE ENERGY PREDICTED BY IDOCK:  -11.89 KCAL/MOL
REMARK 923 INTER-LIGAND FREE ENERGY PREDICTED BY IDOCK:  -10.38 KCAL/MOL
REMARK 924 INTRA-LIGAND FREE ENERGY PREDICTED BY IDOCK:   -1.51 KCAL/MOL
REMARK 927      BINDING AFFINITY PREDICTED BY RF-SCORE:    0.00 PKD
ROOT
HETATM    1  C   UNL     1      -9.427   7.450  73.730  1.00  0.00    -0.328 C  
HETATM    2  C   UNL     1     -10.784   6.955  73.249  1.00  0.00    -0.349 C  
ENDROOT
BRANCH   2   3
HETATM    3  C   UNL     1     -11.609   8.100  72.663  1.00  0.00    -0.441 C  
BRANCH   3   4
HETATM    4  C   UNL     1     -10.783   8.988  71.724  1.00  0.00    -0.437 C  
HETATM    5  C   UNL     1     -11.569   9.469  70.485  1.00  0.00    -0.316 C  
HETATM    6  C   UNL     1     -12.887  10.207  70.813  1.00  0.00    -0.388 C  
HETATM    7  C   UNL     1     -10.657  10.309  69.566  1.00  0.00    -0.245 C  
HETATM    8  C   UNL     1     -12.710  11.552  71.504  1.00  0.00    -0.439 C  
BRANCH   7   9
HETATM    9  O   UNL     1     -11.426  10.764  68.438  1.00  0.00    -0.289 OA 
BRANCH   9  10
HETATM   10  C   UNL     1     -10.890  10.509  67.215  1.00  0.00    -0.279 C  
HETATM   11  O   UNL     1     -10.782   9.400  66.714  1.00  0.00    -0.175 OA 
BRANCH  10  12
HETATM   12  C   UNL     1     -10.625  11.786  66.461  1.00  0.00    -0.289 C  
BRANCH  12  13
HETATM   13  C   UNL     1     -11.813  12.273  65.635  1.00  0.00    -0.360 C  
HETATM   14  O   UNL     1     -10.177  13.544  63.980  1.00  0.00    -0.274 OA 
HETATM   15  S   UNL     1     -11.332  12.681  63.985  1.00  0.00    -0.444 S  
HETATM   16  O   UNL     1     -10.835  11.209  63.538  1.00  0.00    -0.352 OA 
HETATM   17  O   UNL     1     -12.497  12.933  63.168  1.00  0.00    -0.641 OA 
BRANCH  13  18
HETATM   18  C   UNL     1     -12.411  13.498  66.250  1.00  0.00    -0.383 C  
HETATM   19  O   UNL     1     -13.398  14.075  65.813  1.00  0.00    -0.543 OA 
BRANCH  18  20
HETATM   20  O   UNL     1     -11.608  13.983  67.239  1.00  0.00    -0.328 OA 
BRANCH  20  21
HETATM   21  C   UNL     1     -12.283  14.761  68.243  1.00  0.00    -0.030 C  
HETATM   22  C   UNL     1     -11.467  14.988  69.530  1.00  0.00    -0.317 C  
HETATM   23  C   UNL     1     -10.098  15.647  69.250  1.00  0.00    -0.258 C  
HETATM   24  C   UNL     1     -12.272  15.792  70.577  1.00  0.00    -0.399 C  
HETATM   25  C   UNL     1     -10.160  17.057  68.679  1.00  0.00    -0.303 C  
BRANCH  24  26
HETATM   26  C   UNL     1     -13.588  15.125  70.989  1.00  0.00    -0.473 C  
BRANCH  26  27
HETATM   27  C   UNL     1     -13.939  15.425  72.447  1.00  0.00    -0.657 C  
HETATM   28  C   UNL     1     -12.873  14.878  73.386  1.00  0.00    -0.638 C  
ENDBRANCH  26  27
ENDBRANCH  24  26
ENDBRANCH  20  21
ENDBRANCH  18  20
ENDBRANCH  13  18
ENDBRANCH  12  13
ENDBRANCH  10  12
ENDBRANCH   9  10
ENDBRANCH   7   9
ENDBRANCH   3   4
ENDBRANCH   2   3
TORSDOF 11
ENDMDL
MODEL        8
REMARK 921   NORMALIZED FREE ENERGY PREDICTED BY IDOCK:   -5.71 KCAL/MOL
REMARK 922        TOTAL FREE ENERGY PREDICTED BY IDOCK:  -11.62 KCAL/MOL
REMARK 923 INTER-LIGAND FREE ENERGY PREDICTED BY IDOCK:   -9.87 KCAL/MOL
REMARK 924 INTRA-LIGAND FREE ENERGY PREDICTED BY IDOCK:   -1.75 KCAL/MOL
REMARK 927      BINDING AFFINITY PREDICTED BY RF-SCORE:    0.00 PKD
ROOT
HETATM    1  C   UNL     1      -7.130  19.427  67.754  1.00  0.00    -0.276 C  
HETATM    2  C   UNL     1      -8.076  20.553  67.360  1.00  0.00    -0.345 C  
ENDROOT
BRANCH   2   3
HETATM    3  C   UNL     1      -9.533  20.098  67.437  1.00  0.00    -0.531 C  
BRANCH   3   4
HETATM    4  C   UNL     1      -9.711  18.878  68.349  1.00  0.00    -0.432 C  
HETATM    5  C   UNL     1     -10.642  17.799  67.754  1.00  0.00    -0.392 C  
HETATM    6  C   UNL     1     -10.223  17.297  66.353  1.00  0.00    -0.333 C  
HETATM    7  C   UNL     1     -10.814  16.633  68.751  1.00  0.00    -0.331 C  
HETATM    8  C   UNL     1      -8.919  16.514  66.320  1.00  0.00    -0.359 C  
BRANCH   7   9
HETATM    9  O   UNL     1     -11.662  15.633  68.156  1.00  0.00    -0.331 OA 
BRANCH   9  10
HETATM   10  C   UNL     1     -11.136  14.382  68.077  1.00  0.00    -0.272 C  
HETATM   11  O   UNL     1     -10.202  13.970  68.748  1.00  0.00    -0.231 OA 
BRANCH  10  12
HETATM   12  C   UNL     1     -11.977  13.495  67.197  1.00  0.00    -0.426 C  
BRANCH  12  13
HETATM   13  C   UNL     1     -11.195  12.815  66.077  1.00  0.00    -0.299 C  
HETATM   14  O   UNL     1     -13.410  12.560  64.644  1.00  0.00    -0.804 OA 
HETATM   15  S   UNL     1     -12.028  12.953  64.527  1.00  0.00    -0.424 S  
HETATM   16  O   UNL     1     -11.994  14.565  64.409  1.00  0.00    -0.456 OA 
HETATM   17  O   UNL     1     -11.176  12.494  63.453  1.00  0.00    -0.469 OA 
BRANCH  13  18
HETATM   18  C   UNL     1     -11.018  11.359  66.371  1.00  0.00    -0.260 C  
HETATM   19  O   UNL     1     -10.364  10.592  65.677  1.00  0.00    -0.255 OA 
BRANCH  18  20
HETATM   20  O   UNL     1     -11.827  10.972  67.398  1.00  0.00    -0.523 OA 
BRANCH  20  21
HETATM   21  C   UNL     1     -11.257   9.994  68.285  1.00  0.00    -0.132 C  
HETATM   22  C   UNL     1     -10.817  10.551  69.651  1.00  0.00    -0.320 C  
HETATM   23  C   UNL     1     -11.968  11.263  70.395  1.00  0.00    -0.471 C  
HETATM   24  C   UNL     1     -10.175   9.453  70.531  1.00  0.00    -0.332 C  
HETATM   25  C   UNL     1     -13.134  10.369  70.796  1.00  0.00    -0.362 C  
BRANCH  24  26
HETATM   26  C   UNL     1      -8.948   8.792  69.896  1.00  0.00    -0.152 C  
BRANCH  26  27
HETATM   27  C   UNL     1      -8.960   7.276  70.093  1.00  0.00    -0.148 C  
HETATM   28  C   UNL     1     -10.102   6.856  71.009  1.00  0.00    -0.206 C  
ENDBRANCH  26  27
ENDBRANCH  24  26
ENDBRANCH  20  21
ENDBRANCH  18  20
ENDBRANCH  13  18
ENDBRANCH  12  13
ENDBRANCH  10  12
ENDBRANCH   9  10
ENDBRANCH   7   9
ENDBRANCH   3   4
ENDBRANCH   2   3
TORSDOF 11
ENDMDL
MODEL        9
REMARK 921   NORMALIZED FREE ENERGY PREDICTED BY IDOCK:   -5.67 KCAL/MOL
REMARK 922        TOTAL FREE ENERGY PREDICTED BY IDOCK:  -11.57 KCAL/MOL
REMARK 923 INTER-LIGAND FREE ENERGY PREDICTED BY IDOCK:  -10.27 KCAL/MOL
REMARK 924 INTRA-LIGAND FREE ENERGY PREDICTED BY IDOCK:   -1.30 KCAL/MOL
REMARK 927      BINDING AFFINITY PREDICTED BY RF-SCORE:    0.00 PKD
ROOT
HETATM    1  C   UNL     1     -11.582   6.168  72.118  1.00  0.00    -0.369 C  
HETATM    2  C   UNL     1     -10.203   6.509  72.664  1.00  0.00    -0.205 C  
ENDROOT
BRANCH   2   3
HETATM    3  C   UNL     1     -10.000   8.022  72.736  1.00  0.00    -0.364 C  
BRANCH   3   4
HETATM    4  C   UNL     1     -11.029   8.785  71.892  1.00  0.00    -0.435 C  
HETATM    5  C   UNL     1     -10.411   9.500  70.670  1.00  0.00    -0.369 C  
HETATM    6  C   UNL     1      -9.606   8.574  69.730  1.00  0.00    -0.170 C  
HETATM    7  C   UNL     1     -11.496  10.287  69.905  1.00  0.00    -0.273 C  
HETATM    8  C   UNL     1     -10.438   7.538  68.988  1.00  0.00    -0.216 C  
BRANCH   7   9
HETATM    9  O   UNL     1     -10.894  10.916  68.759  1.00  0.00    -0.180 OA 
BRANCH   9  10
HETATM   10  C   UNL     1     -11.607  11.928  68.198  1.00  0.00    -0.334 C  
HETATM   11  O   UNL     1     -12.281  12.739  68.816  1.00  0.00    -0.188 OA 
BRANCH  10  12
HETATM   12  C   UNL     1     -11.305  12.055  66.728  1.00  0.00    -0.398 C  
BRANCH  12  13
HETATM   13  C   UNL     1     -11.640  13.424  66.144  1.00  0.00    -0.346 C  
HETATM   14  O   UNL     1     -11.023  12.571  63.711  1.00  0.00    -0.388 OA 
HETATM   15  S   UNL     1     -12.028  13.319  64.424  1.00  0.00    -0.427 S  
HETATM   16  O   UNL     1     -13.331  12.371  64.556  1.00  0.00    -0.800 OA 
HETATM   17  O   UNL     1     -12.546  14.581  63.946  1.00  0.00    -0.827 OA 
BRANCH  13  18
HETATM   18  C   UNL     1     -10.480  14.356  66.292  1.00  0.00    -0.290 C  
HETATM   19  O   UNL     1      -9.312  13.995  66.344  1.00  0.00    -0.274 OA 
BRANCH  18  20
HETATM   20  O   UNL     1     -10.909  15.624  66.546  1.00  0.00    -0.311 OA 
BRANCH  20  21
HETATM   21  C   UNL     1     -11.479  15.823  67.851  1.00  0.00    -0.221 C  
HETATM   22  C   UNL     1     -10.446  15.997  68.980  1.00  0.00    -0.246 C  
HETATM   23  C   UNL     1      -9.461  17.155  68.703  1.00  0.00    -0.275 C  
HETATM   24  C   UNL     1     -11.131  16.160  70.357  1.00  0.00    -0.362 C  
HETATM   25  C   UNL     1     -10.088  18.542  68.651  1.00  0.00    -0.406 C  
BRANCH  24  26
HETATM   26  C   UNL     1     -12.027  14.980  70.744  1.00  0.00    -0.371 C  
BRANCH  26  27
HETATM   27  C   UNL     1     -13.323  15.452  71.404  1.00  0.00    -0.601 C  
HETATM   28  C   UNL     1     -14.105  14.273  71.968  1.00  0.00    -0.618 C  
ENDBRANCH  26  27
ENDBRANCH  24  26
ENDBRANCH  20  21
ENDBRANCH  18  20
ENDBRANCH  13  18
ENDBRANCH  12  13
ENDBRANCH  10  12
ENDBRANCH   9  10
ENDBRANCH   7   9
ENDBRANCH   3   4
ENDBRANCH   2   3
TORSDOF 11
ENDMDL
MODEL       10
REMARK 921   NORMALIZED FREE ENERGY PREDICTED BY IDOCK:   -5.63 KCAL/MOL
REMARK 922        TOTAL FREE ENERGY PREDICTED BY IDOCK:  -11.50 KCAL/MOL
REMARK 923 INTER-LIGAND FREE ENERGY PREDICTED BY IDOCK:  -10.33 KCAL/MOL
REMARK 924 INTRA-LIGAND FREE ENERGY PREDICTED BY IDOCK:   -1.17 KCAL/MOL
REMARK 927      BINDING AFFINITY PREDICTED BY RF-SCORE:    0.00 PKD
ROOT
HETATM    1  C   UNL     1     -14.252   7.788  71.464  1.00  0.00    -0.540 C  
HETATM    2  C   UNL     1     -12.856   7.906  72.060  1.00  0.00    -0.287 C  
ENDROOT
BRANCH   2   3
HETATM    3  C   UNL     1     -11.925   8.682  71.129  1.00  0.00    -0.320 C  
BRANCH   3   4
HETATM    4  C   UNL     1     -12.517  10.034  70.713  1.00  0.00    -0.386 C  
HETATM    5  C   UNL     1     -11.448  11.076  70.316  1.00  0.00    -0.363 C  
HETATM    6  C   UNL     1     -10.483  10.607  69.202  1.00  0.00    -0.245 C  
HETATM    7  C   UNL     1     -12.117  12.421  69.964  1.00  0.00    -0.263 C  
HETATM    8  C   UNL     1     -11.129  10.417  67.838  1.00  0.00    -0.363 C  
BRANCH   7   9
HETATM    9  O   UNL     1     -11.098  13.360  69.573  1.00  0.00    -0.168 OA 
BRANCH   9  10
HETATM   10  C   UNL     1     -11.488  14.328  68.703  1.00  0.00    -0.296 C  
HETATM   11  O   UNL     1     -11.890  15.438  69.023  1.00  0.00    -0.343 OA 
BRANCH  10  12
HETATM   12  C   UNL     1     -11.176  13.940  67.282  1.00  0.00    -0.329 C  
BRANCH  12  13
HETATM   13  C   UNL     1     -11.316  15.086  66.284  1.00  0.00    -0.273 C  
HETATM   14  O   UNL     1     -11.152  13.381  64.260  1.00  0.00    -0.374 OA 
HETATM   15  S   UNL     1     -11.912  14.516  64.721  1.00  0.00    -0.443 S  
HETATM   16  O   UNL     1     -13.344  13.963  65.227  1.00  0.00    -0.732 OA 
HETATM   17  O   UNL     1     -12.237  15.635  63.867  1.00  0.00    -0.619 OA 
BRANCH  13  18
HETATM   18  C   UNL     1      -9.993  15.745  66.053  1.00  0.00    -0.332 C  
HETATM   19  O   UNL     1      -8.922  15.154  66.053  1.00  0.00    -0.259 OA 
BRANCH  18  20
HETATM   20  O   UNL     1     -10.128  17.101  66.030  1.00  0.00    -0.395 OA 
BRANCH  20  21
HETATM   21  C   UNL     1      -8.946  17.835  66.394  1.00  0.00    -0.229 C  
HETATM   22  C   UNL     1      -9.066  19.361  66.232  1.00  0.00    -0.380 C  
HETATM   23  C   UNL     1     -10.258  19.945  67.022  1.00  0.00    -0.588 C  
HETATM   24  C   UNL     1      -7.745  20.077  66.599  1.00  0.00    -0.326 C  
HETATM   25  C   UNL     1     -10.163  19.810  68.536  1.00  0.00    -0.547 C  
BRANCH  24  26
HETATM   26  C   UNL     1      -6.546  19.627  65.760  1.00  0.00    -0.264 C  
BRANCH  26  27
HETATM   27  C   UNL     1      -6.334  20.536  64.548  1.00  0.00    -0.341 C  
HETATM   28  C   UNL     1      -5.685  19.770  63.403  1.00  0.00    -0.322 C  
ENDBRANCH  26  27
ENDBRANCH  24  26
ENDBRANCH  20  21
ENDBRANCH  18  20
ENDBRANCH  13  18
ENDBRANCH  12  13
ENDBRANCH  10  12
ENDBRANCH   9  10
ENDBRANCH   7   9
ENDBRANCH   3   4
ENDBRANCH   2   3
TORSDOF 11
ENDMDL
MODEL       11
REMARK 921   NORMALIZED FREE ENERGY PREDICTED BY IDOCK:   -5.62 KCAL/MOL
REMARK 922        TOTAL FREE ENERGY PREDICTED BY IDOCK:  -11.48 KCAL/MOL
REMARK 923 INTER-LIGAND FREE ENERGY PREDICTED BY IDOCK:   -9.96 KCAL/MOL
REMARK 924 INTRA-LIGAND FREE ENERGY PREDICTED BY IDOCK:   -1.53 KCAL/MOL
REMARK 927      BINDING AFFINITY PREDICTED BY RF-SCORE:    0.00 PKD
ROOT
HETATM    1  C   UNL     1     -12.437   7.322  71.299  1.00  0.00    -0.402 C  
HETATM    2  C   UNL     1     -10.955   7.580  71.070  1.00  0.00    -0.266 C  
ENDROOT
BRANCH   2   3
HETATM    3  C   UNL     1     -10.600   9.038  71.361  1.00  0.00    -0.393 C  
BRANCH   3   4
HETATM    4  C   UNL     1      -9.830   9.689  70.206  1.00  0.00    -0.321 C  
HETATM    5  C   UNL     1     -10.696   9.930  68.950  1.00  0.00    -0.244 C  
HETATM    6  C   UNL     1     -11.975  10.760  69.207  1.00  0.00    -0.334 C  
HETATM    7  C   UNL     1      -9.839  10.536  67.818  1.00  0.00    -0.165 C  
HETATM    8  C   UNL     1     -11.727  12.212  69.592  1.00  0.00    -0.396 C  
BRANCH   7   9
HETATM    9  O   UNL     1     -10.681  10.774  66.674  1.00  0.00    -0.249 OA 
BRANCH   9  10
HETATM   10  C   UNL     1     -10.046  10.828  65.474  1.00  0.00    -0.274 C  
HETATM   11  O   UNL     1      -9.484   9.886  64.935  1.00  0.00    -0.259 OA 
BRANCH  10  12
HETATM   12  C   UNL     1     -10.291  12.146  64.789  1.00  0.00    -0.320 C  
BRANCH  12  13
HETATM   13  C   UNL     1     -11.198  13.091  65.573  1.00  0.00    -0.288 C  
HETATM   14  O   UNL     1     -12.217  14.034  63.314  1.00  0.00    -0.588 OA 
HETATM   15  S   UNL     1     -12.607  13.574  64.624  1.00  0.00    -0.195 S  
HETATM   16  O   UNL     1     -13.258  12.104  64.445  1.00  0.00    -0.758 OA 
HETATM   17  O   UNL     1     -13.551  14.289  65.452  1.00  0.00    -0.516 OA 
BRANCH  13  18
HETATM   18  C   UNL     1     -10.457  14.334  65.952  1.00  0.00    -0.307 C  
HETATM   19  O   UNL     1     -10.084  15.182  65.153  1.00  0.00    -0.347 OA 
BRANCH  18  20
HETATM   20  O   UNL     1     -10.097  14.299  67.266  1.00  0.00    -0.248 OA 
BRANCH  20  21
HETATM   21  C   UNL     1      -9.613  15.545  67.797  1.00  0.00    -0.209 C  
HETATM   22  C   UNL     1     -10.718  16.511  68.264  1.00  0.00    -0.345 C  
HETATM   23  C   UNL     1     -11.654  15.872  69.313  1.00  0.00    -0.372 C  
HETATM   24  C   UNL     1     -10.125  17.844  68.779  1.00  0.00    -0.384 C  
HETATM   25  C   UNL     1     -10.995  15.506  70.636  1.00  0.00    -0.370 C  
BRANCH  24  26
HETATM   26  C   UNL     1      -9.284  18.589  67.738  1.00  0.00    -0.295 C  
BRANCH  26  27
HETATM   27  C   UNL     1      -9.951  19.895  67.306  1.00  0.00    -0.556 C  
HETATM   28  C   UNL     1     -10.547  19.766  65.911  1.00  0.00    -0.557 C  
ENDBRANCH  26  27
ENDBRANCH  24  26
ENDBRANCH  20  21
ENDBRANCH  18  20
ENDBRANCH  13  18
ENDBRANCH  12  13
ENDBRANCH  10  12
ENDBRANCH   9  10
ENDBRANCH   7   9
ENDBRANCH   3   4
ENDBRANCH   2   3
TORSDOF 11
ENDMDL
MODEL       12
REMARK 921   NORMALIZED FREE ENERGY PREDICTED BY IDOCK:   -5.55 KCAL/MOL
REMARK 922        TOTAL FREE ENERGY PREDICTED BY IDOCK:  -11.37 KCAL/MOL
REMARK 923 INTER-LIGAND FREE ENERGY PREDICTED BY IDOCK:   -9.79 KCAL/MOL
REMARK 924 INTRA-LIGAND FREE ENERGY PREDICTED BY IDOCK:   -1.58 KCAL/MOL
REMARK 927      BINDING AFFINITY PREDICTED BY RF-SCORE:    0.00 PKD
ROOT
HETATM    1  C   UNL     1     -11.045   6.337  70.529  1.00  0.00    -0.399 C  
HETATM    2  C   UNL     1     -10.364   5.812  69.273  1.00  0.00    -0.326 C  
ENDROOT
BRANCH   2   3
HETATM    3  C   UNL     1     -10.991   6.416  68.016  1.00  0.00    -0.400 C  
BRANCH   3   4
HETATM    4  C   UNL     1      -9.972   7.197  67.178  1.00  0.00    -0.270 C  
HETATM    5  C   UNL     1     -10.458   8.608  66.779  1.00  0.00    -0.298 C  
HETATM    6  C   UNL     1     -10.886   9.496  67.970  1.00  0.00    -0.225 C  
HETATM    7  C   UNL     1      -9.403   9.307  65.895  1.00  0.00    -0.236 C  
HETATM    8  C   UNL     1      -9.753   9.903  68.901  1.00  0.00    -0.176 C  
BRANCH   7   9
HETATM    9  O   UNL     1      -9.873  10.626  65.565  1.00  0.00    -0.226 OA 
BRANCH   9  10
HETATM   10  C   UNL     1      -9.668  11.024  64.281  1.00  0.00    -0.284 C  
HETATM   11  O   UNL     1      -9.252  10.306  63.383  1.00  0.00    -0.244 OA 
BRANCH  10  12
HETATM   12  C   UNL     1     -10.206  12.411  64.049  1.00  0.00    -0.401 C  
BRANCH  12  13
HETATM   13  C   UNL     1     -11.055  12.944  65.199  1.00  0.00    -0.292 C  
HETATM   14  O   UNL     1     -12.434  14.460  63.517  1.00  0.00    -0.770 OA 
HETATM   15  S   UNL     1     -12.610  13.558  64.628  1.00  0.00    -0.195 S  
HETATM   16  O   UNL     1     -13.183  12.168  64.034  1.00  0.00    -0.728 OA 
HETATM   17  O   UNL     1     -13.475  13.858  65.746  1.00  0.00    -0.464 OA 
BRANCH  13  18
HETATM   18  C   UNL     1     -10.351  14.066  65.894  1.00  0.00    -0.318 C  
HETATM   19  O   UNL     1      -9.794  14.990  65.316  1.00  0.00    -0.323 OA 
BRANCH  18  20
HETATM   20  O   UNL     1     -10.255  13.821  67.231  1.00  0.00    -0.249 OA 
BRANCH  20  21
HETATM   21  C   UNL     1     -11.012  14.712  68.068  1.00  0.00    -0.267 C  
HETATM   22  C   UNL     1     -10.294  15.137  69.362  1.00  0.00    -0.259 C  
HETATM   23  C   UNL     1      -8.919  15.785  69.087  1.00  0.00    -0.256 C  
HETATM   24  C   UNL     1     -11.184  16.057  70.229  1.00  0.00    -0.397 C  
HETATM   25  C   UNL     1      -8.962  17.101  68.321  1.00  0.00    -0.248 C  
BRANCH  24  26
HETATM   26  C   UNL     1     -12.515  15.420  70.640  1.00  0.00    -0.478 C  
BRANCH  26  27
HETATM   27  C   UNL     1     -12.300  14.137  71.444  1.00  0.00    -0.425 C  
HETATM   28  C   UNL     1     -13.600  13.678  72.092  1.00  0.00    -0.632 C  
ENDBRANCH  26  27
ENDBRANCH  24  26
ENDBRANCH  20  21
ENDBRANCH  18  20
ENDBRANCH  13  18
ENDBRANCH  12  13
ENDBRANCH  10  12
ENDBRANCH   9  10
ENDBRANCH   7   9
ENDBRANCH   3   4
ENDBRANCH   2   3
TORSDOF 11
ENDMDL
MODEL       13
REMARK 921   NORMALIZED FREE ENERGY PREDICTED BY IDOCK:   -5.54 KCAL/MOL
REMARK 922        TOTAL FREE ENERGY PREDICTED BY IDOCK:  -11.35 KCAL/MOL
REMARK 923 INTER-LIGAND FREE ENERGY PREDICTED BY IDOCK:   -9.81 KCAL/MOL
REMARK 924 INTRA-LIGAND FREE ENERGY PREDICTED BY IDOCK:   -1.54 KCAL/MOL
REMARK 927      BINDING AFFINITY PREDICTED BY RF-SCORE:    0.00 PKD
ROOT
HETATM    1  C   UNL     1      -7.187  19.469  65.931  1.00  0.00    -0.312 C  
HETATM    2  C   UNL     1      -7.615  20.254  67.164  1.00  0.00    -0.354 C  
ENDROOT
BRANCH   2   3
HETATM    3  C   UNL     1      -9.100  20.043  67.459  1.00  0.00    -0.457 C  
BRANCH   3   4
HETATM    4  C   UNL     1      -9.351  18.779  68.290  1.00  0.00    -0.374 C  
HETATM    5  C   UNL     1     -10.519  17.918  67.760  1.00  0.00    -0.409 C  
HETATM    6  C   UNL     1     -10.382  17.502  66.277  1.00  0.00    -0.335 C  
HETATM    7  C   UNL     1     -10.743  16.698  68.678  1.00  0.00    -0.349 C  
HETATM    8  C   UNL     1      -9.242  16.538  65.988  1.00  0.00    -0.295 C  
BRANCH   7   9
HETATM    9  O   UNL     1     -11.817  15.903  68.141  1.00  0.00    -0.231 OA 
BRANCH   9  10
HETATM   10  C   UNL     1     -11.649  14.556  68.212  1.00  0.00    -0.329 C  
HETATM   11  O   UNL     1     -11.191  13.956  69.173  1.00  0.00    -0.253 OA 
BRANCH  10  12
HETATM   12  C   UNL     1     -12.285  13.867  67.034  1.00  0.00    -0.392 C  
BRANCH  12  13
HETATM   13  C   UNL     1     -11.291  13.449  65.953  1.00  0.00    -0.309 C  
HETATM   14  O   UNL     1     -13.248  12.361  64.533  1.00  0.00    -0.834 OA 
HETATM   15  S   UNL     1     -12.089  13.208  64.396  1.00  0.00    -0.421 S  
HETATM   16  O   UNL     1     -12.620  14.721  64.191  1.00  0.00    -0.784 OA 
HETATM   17  O   UNL     1     -11.109  13.023  63.350  1.00  0.00    -0.266 OA 
BRANCH  13  18
HETATM   18  C   UNL     1     -10.622  12.164  66.326  1.00  0.00    -0.250 C  
HETATM   19  O   UNL     1      -9.565  11.777  65.848  1.00  0.00    -0.224 OA 
BRANCH  18  20
HETATM   20  O   UNL     1     -11.435  11.409  67.118  1.00  0.00    -0.450 OA 
BRANCH  20  21
HETATM   21  C   UNL     1     -10.781  10.782  68.235  1.00  0.00    -0.213 C  
HETATM   22  C   UNL     1     -11.028   9.266  68.350  1.00  0.00    -0.038 C  
HETATM   23  C   UNL     1     -10.627   8.506  67.067  1.00  0.00    -0.305 C  
HETATM   24  C   UNL     1     -10.332   8.671  69.596  1.00  0.00    -0.213 C  
HETATM   25  C   UNL     1      -9.143   8.544  66.725  1.00  0.00    -0.186 C  
BRANCH  24  26
HETATM   26  C   UNL     1     -10.783   9.303  70.916  1.00  0.00    -0.371 C  
BRANCH  26  27
HETATM   27  C   UNL     1     -12.061   8.650  71.444  1.00  0.00    -0.351 C  
HETATM   28  C   UNL     1     -13.151   9.691  71.664  1.00  0.00    -0.503 C  
ENDBRANCH  26  27
ENDBRANCH  24  26
ENDBRANCH  20  21
ENDBRANCH  18  20
ENDBRANCH  13  18
ENDBRANCH  12  13
ENDBRANCH  10  12
ENDBRANCH   9  10
ENDBRANCH   7   9
ENDBRANCH   3   4
ENDBRANCH   2   3
TORSDOF 11
ENDMDL
MODEL       14
REMARK 921   NORMALIZED FREE ENERGY PREDICTED BY IDOCK:   -5.49 KCAL/MOL
REMARK 922        TOTAL FREE ENERGY PREDICTED BY IDOCK:  -11.27 KCAL/MOL
REMARK 923 INTER-LIGAND FREE ENERGY PREDICTED BY IDOCK:  -10.23 KCAL/MOL
REMARK 924 INTRA-LIGAND FREE ENERGY PREDICTED BY IDOCK:   -1.04 KCAL/MOL
REMARK 927      BINDING AFFINITY PREDICTED BY RF-SCORE:    0.00 PKD
ROOT
HETATM    1  C   UNL     1      -5.722  19.820  70.465  1.00  0.00    -0.307 C  
HETATM    2  C   UNL     1      -5.906  19.582  68.973  1.00  0.00    -0.259 C  
ENDROOT
BRANCH   2   3
HETATM    3  C   UNL     1      -7.385  19.621  68.589  1.00  0.00    -0.375 C  
BRANCH   3   4
HETATM    4  C   UNL     1      -7.715  18.644  67.455  1.00  0.00    -0.237 C  
HETATM    5  C   UNL     1      -9.163  18.108  67.508  1.00  0.00    -0.257 C  
HETATM    6  C   UNL     1     -10.249  19.208  67.530  1.00  0.00    -0.493 C  
HETATM    7  C   UNL     1      -9.399  17.093  66.369  1.00  0.00    -0.262 C  
HETATM    8  C   UNL     1     -10.357  20.023  66.250  1.00  0.00    -0.570 C  
BRANCH   7   9
HETATM    9  O   UNL     1     -10.763  16.635  66.430  1.00  0.00    -0.245 OA 
BRANCH   9  10
HETATM   10  C   UNL     1     -11.299  16.216  65.254  1.00  0.00     0.060 C  
HETATM   11  O   UNL     1     -11.122  16.753  64.171  1.00  0.00    -1.061 OA 
BRANCH  10  12
HETATM   12  C   UNL     1     -11.983  14.884  65.414  1.00  0.00    -0.131 C  
BRANCH  12  13
HETATM   13  C   UNL     1     -11.153  13.700  64.925  1.00  0.00    -0.351 C  
HETATM   14  O   UNL     1     -13.346  12.239  64.641  1.00  0.00    -0.717 OA 
HETATM   15  S   UNL     1     -12.121  12.581  63.962  1.00  0.00    -0.514 S  
HETATM   16  O   UNL     1     -12.501  13.601  62.767  1.00  0.00    -0.437 OA 
HETATM   17  O   UNL     1     -11.274  11.590  63.338  1.00  0.00    -0.387 OA 
BRANCH  13  18
HETATM   18  C   UNL     1     -10.594  12.938  66.085  1.00  0.00    -0.271 C  
HETATM   19  O   UNL     1      -9.462  12.477  66.123  1.00  0.00    -0.237 OA 
BRANCH  18  20
HETATM   20  O   UNL     1     -11.568  12.671  67.001  1.00  0.00    -0.325 OA 
BRANCH  20  21
HETATM   21  C   UNL     1     -11.387  13.301  68.281  1.00  0.00    -0.300 C  
HETATM   22  C   UNL     1     -12.281  12.739  69.401  1.00  0.00    -0.131 C  
HETATM   23  C   UNL     1     -12.107  11.215  69.585  1.00  0.00    -0.406 C  
HETATM   24  C   UNL     1     -12.062  13.493  70.734  1.00  0.00    -0.351 C  
HETATM   25  C   UNL     1     -10.727  10.769  70.049  1.00  0.00    -0.140 C  
BRANCH  24  26
HETATM   26  C   UNL     1     -12.341  14.996  70.646  1.00  0.00    -0.404 C  
BRANCH  26  27
HETATM   27  C   UNL     1     -13.157  15.488  71.841  1.00  0.00    -0.539 C  
HETATM   28  C   UNL     1     -14.010  14.365  72.415  1.00  0.00    -0.585 C  
ENDBRANCH  26  27
ENDBRANCH  24  26
ENDBRANCH  20  21
ENDBRANCH  18  20
ENDBRANCH  13  18
ENDBRANCH  12  13
ENDBRANCH  10  12
ENDBRANCH   9  10
ENDBRANCH   7   9
ENDBRANCH   3   4
ENDBRANCH   2   3
TORSDOF 11
ENDMDL
MODEL       15
REMARK 921   NORMALIZED FREE ENERGY PREDICTED BY IDOCK:   -5.47 KCAL/MOL
REMARK 922        TOTAL FREE ENERGY PREDICTED BY IDOCK:  -11.24 KCAL/MOL
REMARK 923 INTER-LIGAND FREE ENERGY PREDICTED BY IDOCK:   -9.40 KCAL/MOL
REMARK 924 INTRA-LIGAND FREE ENERGY PREDICTED BY IDOCK:   -1.84 KCAL/MOL
REMARK 927      BINDING AFFINITY PREDICTED BY RF-SCORE:    0.00 PKD
ROOT
HETATM    1  C   UNL     1      -5.426  19.226  69.513  1.00  0.00    -0.225 C  
HETATM    2  C   UNL     1      -6.253  20.180  68.662  1.00  0.00    -0.327 C  
ENDROOT
BRANCH   2   3
HETATM    3  C   UNL     1      -7.688  19.676  68.510  1.00  0.00    -0.369 C  
BRANCH   3   4
HETATM    4  C   UNL     1      -7.853  18.752  67.298  1.00  0.00    -0.243 C  
HETATM    5  C   UNL     1      -9.184  17.969  67.300  1.00  0.00    -0.255 C  
HETATM    6  C   UNL     1     -10.446  18.856  67.406  1.00  0.00    -0.520 C  
HETATM    7  C   UNL     1      -9.250  17.025  66.080  1.00  0.00    -0.210 C  
HETATM    8  C   UNL     1     -10.707  19.741  66.196  1.00  0.00    -0.492 C  
BRANCH   7   9
HETATM    9  O   UNL     1     -10.512  16.332  66.097  1.00  0.00    -0.321 OA 
BRANCH   9  10
HETATM   10  C   UNL     1     -10.952  15.875  64.895  1.00  0.00    -0.411 C  
HETATM   11  O   UNL     1     -11.443  16.571  64.017  1.00  0.00    -1.137 OA 
BRANCH  10  12
HETATM   12  C   UNL     1     -10.578  14.431  64.692  1.00  0.00    -0.331 C  
BRANCH  12  13
HETATM   13  C   UNL     1     -10.974  13.522  65.852  1.00  0.00    -0.278 C  
HETATM   14  O   UNL     1     -11.457  11.532  64.168  1.00  0.00    -0.320 OA 
HETATM   15  S   UNL     1     -10.811  11.816  65.425  1.00  0.00    -0.286 S  
HETATM   16  O   UNL     1      -9.216  11.814  65.159  1.00  0.00    -0.088 OA 
HETATM   17  O   UNL     1     -10.984  10.984  66.595  1.00  0.00    -0.258 OA 
BRANCH  13  18
HETATM   18  C   UNL     1     -12.399  13.759  66.241  1.00  0.00    -0.433 C  
HETATM   19  O   UNL     1     -13.320  13.868  65.443  1.00  0.00    -0.710 OA 
BRANCH  18  20
HETATM   20  O   UNL     1     -12.497  14.020  67.576  1.00  0.00    -0.181 OA 
BRANCH  20  21
HETATM   21  C   UNL     1     -11.247  14.033  68.286  1.00  0.00    -0.268 C  
HETATM   22  C   UNL     1     -10.990  15.313  69.103  1.00  0.00    -0.251 C  
HETATM   23  C   UNL     1     -12.121  15.602  70.114  1.00  0.00    -0.400 C  
HETATM   24  C   UNL     1      -9.610  15.273  69.801  1.00  0.00    -0.140 C  
HETATM   25  C   UNL     1     -12.286  14.567  71.219  1.00  0.00    -0.418 C  
BRANCH  24  26
HETATM   26  C   UNL     1      -8.434  15.111  68.834  1.00  0.00    -0.199 C  
BRANCH  26  27
HETATM   27  C   UNL     1      -7.196  15.863  69.324  1.00  0.00    -0.217 C  
HETATM   28  C   UNL     1      -6.098  15.847  68.269  1.00  0.00    -0.113 C  
ENDBRANCH  26  27
ENDBRANCH  24  26
ENDBRANCH  20  21
ENDBRANCH  18  20
ENDBRANCH  13  18
ENDBRANCH  12  13
ENDBRANCH  10  12
ENDBRANCH   9  10
ENDBRANCH   7   9
ENDBRANCH   3   4
ENDBRANCH   2   3
TORSDOF 11
ENDMDL
MODEL       16
REMARK 921   NORMALIZED FREE ENERGY PREDICTED BY IDOCK:   -5.45 KCAL/MOL
REMARK 922        TOTAL FREE ENERGY PREDICTED BY IDOCK:  -11.21 KCAL/MOL
REMARK 923 INTER-LIGAND FREE ENERGY PREDICTED BY IDOCK:   -9.90 KCAL/MOL
REMARK 924 INTRA-LIGAND FREE ENERGY PREDICTED BY IDOCK:   -1.30 KCAL/MOL
REMARK 927      BINDING AFFINITY PREDICTED BY RF-SCORE:    0.00 PKD
ROOT
HETATM    1  C   UNL     1     -12.500  15.764  74.358  1.00  0.00    -0.790 C  
HETATM    2  C   UNL     1     -11.793  15.155  73.155  1.00  0.00    -0.438 C  
ENDROOT
BRANCH   2   3
HETATM    3  C   UNL     1     -11.857  16.093  71.949  1.00  0.00    -0.605 C  
BRANCH   3   4
HETATM    4  C   UNL     1     -12.027  15.330  70.630  1.00  0.00    -0.386 C  
HETATM    5  C   UNL     1     -11.448  16.078  69.409  1.00  0.00    -0.336 C  
HETATM    6  C   UNL     1      -9.960  16.473  69.551  1.00  0.00    -0.119 C  
HETATM    7  C   UNL     1     -11.706  15.273  68.118  1.00  0.00    -0.279 C  
HETATM    8  C   UNL     1      -8.989  15.302  69.579  1.00  0.00    -0.183 C  
BRANCH   7   9
HETATM    9  O   UNL     1     -11.130  15.982  67.005  1.00  0.00    -0.222 OA 
BRANCH   9  10
HETATM   10  C   UNL     1     -11.387  15.463  65.776  1.00  0.00    -0.115 C  
HETATM   11  O   UNL     1     -10.900  15.865  64.729  1.00  0.00    -0.533 OA 
BRANCH  10  12
HETATM   12  C   UNL     1     -12.196  14.197  65.878  1.00  0.00    -0.458 C  
BRANCH  12  13
HETATM   13  C   UNL     1     -11.486  12.964  65.327  1.00  0.00    -0.313 C  
HETATM   14  O   UNL     1     -13.766  12.066  64.316  1.00  0.00    -0.285 OA 
HETATM   15  S   UNL     1     -12.376  12.250  63.979  1.00  0.00    -0.455 S  
HETATM   16  O   UNL     1     -12.287  13.512  62.972  1.00  0.00    -0.661 OA 
HETATM   17  O   UNL     1     -11.586  11.222  63.341  1.00  0.00    -0.184 OA 
BRANCH  13  18
HETATM   18  C   UNL     1     -11.352  11.918  66.389  1.00  0.00    -0.339 C  
HETATM   19  O   UNL     1     -12.105  11.812  67.347  1.00  0.00    -0.595 OA 
BRANCH  18  20
HETATM   20  O   UNL     1     -10.185  11.229  66.242  1.00  0.00    -0.221 OA 
BRANCH  20  21
HETATM   21  C   UNL     1      -9.699  10.598  67.440  1.00  0.00    -0.167 C  
HETATM   22  C   UNL     1     -10.415   9.284  67.805  1.00  0.00    -0.313 C  
HETATM   23  C   UNL     1     -10.364   8.249  66.660  1.00  0.00    -0.293 C  
HETATM   24  C   UNL     1      -9.869   8.688  69.124  1.00  0.00    -0.185 C  
HETATM   25  C   UNL     1      -8.973   7.744  66.300  1.00  0.00    -0.209 C  
BRANCH  24  26
HETATM   26  C   UNL     1     -10.005   9.626  70.327  1.00  0.00    -0.326 C  
BRANCH  26  27
HETATM   27  C   UNL     1     -11.358   9.459  71.021  1.00  0.00    -0.407 C  
HETATM   28  C   UNL     1     -12.185  10.733  70.911  1.00  0.00    -0.487 C  
ENDBRANCH  26  27
ENDBRANCH  24  26
ENDBRANCH  20  21
ENDBRANCH  18  20
ENDBRANCH  13  18
ENDBRANCH  12  13
ENDBRANCH  10  12
ENDBRANCH   9  10
ENDBRANCH   7   9
ENDBRANCH   3   4
ENDBRANCH   2   3
TORSDOF 11
ENDMDL
MODEL       17
REMARK 921   NORMALIZED FREE ENERGY PREDICTED BY IDOCK:   -5.45 KCAL/MOL
REMARK 922        TOTAL FREE ENERGY PREDICTED BY IDOCK:  -11.20 KCAL/MOL
REMARK 923 INTER-LIGAND FREE ENERGY PREDICTED BY IDOCK:  -10.35 KCAL/MOL
REMARK 924 INTRA-LIGAND FREE ENERGY PREDICTED BY IDOCK:   -0.85 KCAL/MOL
REMARK 927      BINDING AFFINITY PREDICTED BY RF-SCORE:    0.00 PKD
ROOT
HETATM    1  C   UNL     1      -5.648  18.234  70.293  1.00  0.00    -0.229 C  
HETATM    2  C   UNL     1      -5.732  19.264  69.175  1.00  0.00    -0.237 C  
ENDROOT
BRANCH   2   3
HETATM    3  C   UNL     1      -7.183  19.502  68.756  1.00  0.00    -0.391 C  
BRANCH   3   4
HETATM    4  C   UNL     1      -7.595  18.625  67.569  1.00  0.00    -0.239 C  
HETATM    5  C   UNL     1      -9.059  18.139  67.643  1.00  0.00    -0.260 C  
HETATM    6  C   UNL     1     -10.100  19.272  67.790  1.00  0.00    -0.488 C  
HETATM    7  C   UNL     1      -9.379  17.221  66.445  1.00  0.00    -0.258 C  
HETATM    8  C   UNL     1     -10.226  20.184  66.578  1.00  0.00    -0.558 C  
BRANCH   7   9
HETATM    9  O   UNL     1     -10.756  16.809  66.529  1.00  0.00    -0.234 OA 
BRANCH   9  10
HETATM   10  C   UNL     1     -11.264  16.209  65.420  1.00  0.00    -0.006 C  
HETATM   11  O   UNL     1     -11.166  16.643  64.281  1.00  0.00    -1.098 OA 
BRANCH  10  12
HETATM   12  C   UNL     1     -11.792  14.836  65.739  1.00  0.00    -0.202 C  
BRANCH  12  13
HETATM   13  C   UNL     1     -11.031  13.706  65.050  1.00  0.00    -0.346 C  
HETATM   14  O   UNL     1     -13.283  12.343  64.732  1.00  0.00    -0.784 OA 
HETATM   15  S   UNL     1     -12.093  12.741  64.021  1.00  0.00    -0.483 S  
HETATM   16  O   UNL     1     -12.516  13.913  62.992  1.00  0.00    -0.689 OA 
HETATM   17  O   UNL     1     -11.319  11.819  63.221  1.00  0.00    -0.359 OA 
BRANCH  13  18
HETATM   18  C   UNL     1     -10.425  12.789  66.065  1.00  0.00    -0.274 C  
HETATM   19  O   UNL     1      -9.224  12.708  66.286  1.00  0.00    -0.205 OA 
BRANCH  18  20
HETATM   20  O   UNL     1     -11.363  11.937  66.567  1.00  0.00    -0.327 OA 
BRANCH  20  21
HETATM   21  C   UNL     1     -11.363  11.811  68.000  1.00  0.00    -0.288 C  
HETATM   22  C   UNL     1     -11.399  10.359  68.513  1.00  0.00    -0.283 C  
HETATM   23  C   UNL     1     -10.237   9.509  67.954  1.00  0.00    -0.251 C  
HETATM   24  C   UNL     1     -11.442  10.304  70.058  1.00  0.00    -0.367 C  
HETATM   25  C   UNL     1      -8.844   9.947  68.387  1.00  0.00    -0.120 C  
BRANCH  24  26
HETATM   26  C   UNL     1     -12.646  11.029  70.668  1.00  0.00    -0.427 C  
BRANCH  26  27
HETATM   27  C   UNL     1     -13.217  10.264  71.862  1.00  0.00    -0.550 C  
HETATM   28  C   UNL     1     -13.208   8.763  71.600  1.00  0.00    -0.399 C  
ENDBRANCH  26  27
ENDBRANCH  24  26
ENDBRANCH  20  21
ENDBRANCH  18  20
ENDBRANCH  13  18
ENDBRANCH  12  13
ENDBRANCH  10  12
ENDBRANCH   9  10
ENDBRANCH   7   9
ENDBRANCH   3   4
ENDBRANCH   2   3
TORSDOF 11
ENDMDL
MODEL       18
REMARK 921   NORMALIZED FREE ENERGY PREDICTED BY IDOCK:   -5.45 KCAL/MOL
REMARK 922        TOTAL FREE ENERGY PREDICTED BY IDOCK:  -11.20 KCAL/MOL
REMARK 923 INTER-LIGAND FREE ENERGY PREDICTED BY IDOCK:   -9.70 KCAL/MOL
REMARK 924 INTRA-LIGAND FREE ENERGY PREDICTED BY IDOCK:   -1.49 KCAL/MOL
REMARK 927      BINDING AFFINITY PREDICTED BY RF-SCORE:    0.00 PKD
ROOT
HETATM    1  C   UNL     1     -11.083   5.917  71.040  1.00  0.00    -0.315 C  
HETATM    2  C   UNL     1     -10.763   5.919  69.551  1.00  0.00    -0.414 C  
ENDROOT
BRANCH   2   3
HETATM    3  C   UNL     1      -9.276   6.182  69.311  1.00  0.00    -0.134 C  
BRANCH   3   4
HETATM    4  C   UNL     1      -9.042   7.382  68.385  1.00  0.00    -0.132 C  
HETATM    5  C   UNL     1      -9.719   8.679  68.879  1.00  0.00    -0.171 C  
HETATM    6  C   UNL     1      -9.328   9.095  70.316  1.00  0.00    -0.253 C  
HETATM    7  C   UNL     1      -9.483   9.823  67.869  1.00  0.00    -0.130 C  
HETATM    8  C   UNL     1      -7.876   9.519  70.485  1.00  0.00    -0.182 C  
BRANCH   7   9
HETATM    9  O   UNL     1     -10.100  11.022  68.371  1.00  0.00    -0.170 OA 
BRANCH   9  10
HETATM   10  C   UNL     1     -11.306  11.338  67.830  1.00  0.00    -0.285 C  
HETATM   11  O   UNL     1     -12.337  11.507  68.464  1.00  0.00    -0.459 OA 
BRANCH  10  12
HETATM   12  C   UNL     1     -11.177  11.653  66.363  1.00  0.00    -0.349 C  
BRANCH  12  13
HETATM   13  C   UNL     1     -11.551  13.089  66.004  1.00  0.00    -0.365 C  
HETATM   14  O   UNL     1     -11.105  12.595  63.438  1.00  0.00    -0.450 OA 
HETATM   15  S   UNL     1     -12.058  13.225  64.318  1.00  0.00    -0.417 S  
HETATM   16  O   UNL     1     -13.349  12.256  64.403  1.00  0.00    -0.786 OA 
HETATM   17  O   UNL     1     -12.606  14.538  64.061  1.00  0.00    -0.797 OA 
BRANCH  13  18
HETATM   18  C   UNL     1     -10.382  14.000  66.204  1.00  0.00    -0.297 C  
HETATM   19  O   UNL     1      -9.227  13.618  66.334  1.00  0.00    -0.222 OA 
BRANCH  18  20
HETATM   20  O   UNL     1     -10.799  15.282  66.404  1.00  0.00    -0.315 OA 
BRANCH  20  21
HETATM   21  C   UNL     1     -11.473  15.514  67.654  1.00  0.00    -0.209 C  
HETATM   22  C   UNL     1     -10.548  15.524  68.885  1.00  0.00    -0.240 C  
HETATM   23  C   UNL     1      -9.406  16.556  68.755  1.00  0.00    -0.247 C  
HETATM   24  C   UNL     1     -11.347  15.733  70.193  1.00  0.00    -0.361 C  
HETATM   25  C   UNL     1      -9.850  18.012  68.699  1.00  0.00    -0.383 C  
BRANCH  24  26
HETATM   26  C   UNL     1     -12.416  14.665  70.441  1.00  0.00    -0.410 C  
BRANCH  26  27
HETATM   27  C   UNL     1     -13.427  15.115  71.495  1.00  0.00    -0.549 C  
HETATM   28  C   UNL     1     -13.912  13.932  72.323  1.00  0.00    -0.663 C  
ENDBRANCH  26  27
ENDBRANCH  24  26
ENDBRANCH  20  21
ENDBRANCH  18  20
ENDBRANCH  13  18
ENDBRANCH  12  13
ENDBRANCH  10  12
ENDBRANCH   9  10
ENDBRANCH   7   9
ENDBRANCH   3   4
ENDBRANCH   2   3
TORSDOF 11
ENDMDL
MODEL       19
REMARK 921   NORMALIZED FREE ENERGY PREDICTED BY IDOCK:   -5.43 KCAL/MOL
REMARK 922        TOTAL FREE ENERGY PREDICTED BY IDOCK:  -11.18 KCAL/MOL
REMARK 923 INTER-LIGAND FREE ENERGY PREDICTED BY IDOCK:   -9.05 KCAL/MOL
REMARK 924 INTRA-LIGAND FREE ENERGY PREDICTED BY IDOCK:   -2.13 KCAL/MOL
REMARK 927      BINDING AFFINITY PREDICTED BY RF-SCORE:    0.00 PKD
ROOT
HETATM    1  C   UNL     1     -10.223  11.422  63.741  1.00  0.00    -0.433 C  
HETATM    2  C   UNL     1      -9.493  10.104  63.958  1.00  0.00    -0.341 C  
ENDROOT
BRANCH   2   3
HETATM    3  C   UNL     1      -9.689   9.597  65.387  1.00  0.00    -0.365 C  
BRANCH   3   4
HETATM    4  C   UNL     1     -10.655  10.480  66.187  1.00  0.00    -0.182 C  
HETATM    5  C   UNL     1     -10.511  10.316  67.716  1.00  0.00    -0.269 C  
HETATM    6  C   UNL     1      -9.081  10.557  68.251  1.00  0.00    -0.146 C  
HETATM    7  C   UNL     1     -11.550  11.194  68.448  1.00  0.00    -0.306 C  
HETATM    8  C   UNL     1      -8.587  11.991  68.131  1.00  0.00    -0.173 C  
BRANCH   7   9
HETATM    9  O   UNL     1     -11.371  11.040  69.868  1.00  0.00    -0.268 OA 
BRANCH   9  10
HETATM   10  C   UNL     1     -12.371  11.531  70.647  1.00  0.00    -0.364 C  
HETATM   11  O   UNL     1     -12.790  11.001  71.665  1.00  0.00    -0.430 OA 
BRANCH  10  12
HETATM   12  C   UNL     1     -12.769  12.916  70.212  1.00  0.00     0.051 C  
BRANCH  12  13
HETATM   13  C   UNL     1     -12.061  14.031  70.977  1.00  0.00    -0.305 C  
HETATM   14  O   UNL     1     -14.263  15.506  70.923  1.00  0.00    -0.423 OA 
HETATM   15  S   UNL     1     -13.213  15.077  71.813  1.00  0.00    -0.408 S  
HETATM   16  O   UNL     1     -13.842  13.959  72.797  1.00  0.00    -0.701 OA 
HETATM   17  O   UNL     1     -12.519  15.987  72.695  1.00  0.00    -0.430 OA 
BRANCH  13  18
HETATM   18  C   UNL     1     -11.266  14.886  70.041  1.00  0.00    -0.259 C  
HETATM   19  O   UNL     1     -10.350  15.618  70.390  1.00  0.00    -0.279 OA 
BRANCH  18  20
HETATM   20  O   UNL     1     -11.816  14.877  68.795  1.00  0.00    -0.314 OA 
BRANCH  20  21
HETATM   21  C   UNL     1     -11.282  15.858  67.889  1.00  0.00    -0.297 C  
HETATM   22  C   UNL     1     -10.245  15.310  66.892  1.00  0.00    -0.268 C  
HETATM   23  C   UNL     1     -10.796  14.132  66.058  1.00  0.00    -0.297 C  
HETATM   24  C   UNL     1      -9.684  16.428  65.983  1.00  0.00    -0.356 C  
HETATM   25  C   UNL     1     -11.951  14.478  65.128  1.00  0.00    -0.369 C  
BRANCH  24  26
HETATM   26  C   UNL     1      -9.012  17.569  66.751  1.00  0.00    -0.272 C  
BRANCH  26  27
HETATM   27  C   UNL     1      -9.632  18.923  66.403  1.00  0.00    -0.377 C  
HETATM   28  C   UNL     1      -9.335  19.951  67.487  1.00  0.00    -0.465 C  
ENDBRANCH  26  27
ENDBRANCH  24  26
ENDBRANCH  20  21
ENDBRANCH  18  20
ENDBRANCH  13  18
ENDBRANCH  12  13
ENDBRANCH  10  12
ENDBRANCH   9  10
ENDBRANCH   7   9
ENDBRANCH   3   4
ENDBRANCH   2   3
TORSDOF 11
ENDMDL
MODEL       20
REMARK 921   NORMALIZED FREE ENERGY PREDICTED BY IDOCK:   -5.42 KCAL/MOL
REMARK 922        TOTAL FREE ENERGY PREDICTED BY IDOCK:  -11.15 KCAL/MOL
REMARK 923 INTER-LIGAND FREE ENERGY PREDICTED BY IDOCK:   -8.61 KCAL/MOL
REMARK 924 INTRA-LIGAND FREE ENERGY PREDICTED BY IDOCK:   -2.54 KCAL/MOL
REMARK 927      BINDING AFFINITY PREDICTED BY RF-SCORE:    0.00 PKD
ROOT
HETATM    1  C   UNL     1      -6.664  19.831  68.986  1.00  0.00    -0.372 C  
HETATM    2  C   UNL     1      -7.375  20.511  67.823  1.00  0.00    -0.302 C  
ENDROOT
BRANCH   2   3
HETATM    3  C   UNL     1      -8.787  19.954  67.643  1.00  0.00    -0.406 C  
BRANCH   3   4
HETATM    4  C   UNL     1      -9.025  18.696  68.486  1.00  0.00    -0.364 C  
HETATM    5  C   UNL     1     -10.292  17.913  68.076  1.00  0.00    -0.394 C  
HETATM    6  C   UNL     1     -10.337  17.511  66.583  1.00  0.00    -0.319 C  
HETATM    7  C   UNL     1     -10.491  16.694  69.002  1.00  0.00    -0.328 C  
HETATM    8  C   UNL     1      -9.293  16.485  66.167  1.00  0.00    -0.339 C  
BRANCH   7   9
HETATM    9  O   UNL     1     -11.661  15.973  68.576  1.00  0.00    -0.375 OA 
BRANCH   9  10
HETATM   10  C   UNL     1     -11.542  14.619  68.541  1.00  0.00    -0.317 C  
HETATM   11  O   UNL     1     -11.090  13.932  69.445  1.00  0.00    -0.242 OA 
BRANCH  10  12
HETATM   12  C   UNL     1     -12.221  14.045  67.326  1.00  0.00    -0.325 C  
BRANCH  12  13
HETATM   13  C   UNL     1     -11.272  13.330  66.368  1.00  0.00    -0.302 C  
HETATM   14  O   UNL     1     -13.282  12.808  64.720  1.00  0.00    -0.812 OA 
HETATM   15  S   UNL     1     -11.922  13.284  64.726  1.00  0.00    -0.413 S  
HETATM   16  O   UNL     1     -11.969  14.879  64.469  1.00  0.00    -0.447 OA 
HETATM   17  O   UNL     1     -10.922  12.798  63.802  1.00  0.00    -0.409 OA 
BRANCH  13  18
HETATM   18  C   UNL     1     -11.048  11.919  66.808  1.00  0.00    -0.308 C  
HETATM   19  O   UNL     1     -11.842  11.273  67.479  1.00  0.00    -0.613 OA 
BRANCH  18  20
HETATM   20  O   UNL     1      -9.775  11.521  66.523  1.00  0.00    -0.195 OA 
BRANCH  20  21
HETATM   21  C   UNL     1      -8.747  12.444  66.923  1.00  0.00    -0.191 C  
HETATM   22  C   UNL     1      -8.150  12.171  68.316  1.00  0.00    -0.166 C  
HETATM   23  C   UNL     1      -7.589  10.737  68.445  1.00  0.00    -0.102 C  
HETATM   24  C   UNL     1      -7.086  13.226  68.694  1.00  0.00    -0.103 C  
HETATM   25  C   UNL     1      -6.404  10.420  67.542  1.00  0.00    -0.058 C  
BRANCH  24  26
HETATM   26  C   UNL     1      -7.617  14.663  68.705  1.00  0.00    -0.129 C  
BRANCH  26  27
HETATM   27  C   UNL     1      -6.565  15.648  69.214  1.00  0.00    -0.152 C  
HETATM   28  C   UNL     1      -5.994  16.473  68.068  1.00  0.00    -0.129 C  
ENDBRANCH  26  27
ENDBRANCH  24  26
ENDBRANCH  20  21
ENDBRANCH  18  20
ENDBRANCH  13  18
ENDBRANCH  12  13
ENDBRANCH  10  12
ENDBRANCH   9  10
ENDBRANCH   7   9
ENDBRANCH   3   4
ENDBRANCH   2   3
TORSDOF 11
ENDMDL
MODEL       21
REMARK 921   NORMALIZED FREE ENERGY PREDICTED BY IDOCK:   -5.36 KCAL/MOL
REMARK 922        TOTAL FREE ENERGY PREDICTED BY IDOCK:  -11.06 KCAL/MOL
REMARK 923 INTER-LIGAND FREE ENERGY PREDICTED BY IDOCK:   -9.84 KCAL/MOL
REMARK 924 INTRA-LIGAND FREE ENERGY PREDICTED BY IDOCK:   -1.22 KCAL/MOL
REMARK 927      BINDING AFFINITY PREDICTED BY RF-SCORE:    0.00 PKD
ROOT
HETATM    1  C   UNL     1      -6.641  21.006  67.051  1.00  0.00    -0.413 C  
HETATM    2  C   UNL     1      -6.085  20.618  68.414  1.00  0.00    -0.373 C  
ENDROOT
BRANCH   2   3
HETATM    3  C   UNL     1      -7.048  19.690  69.155  1.00  0.00    -0.378 C  
BRANCH   3   4
HETATM    4  C   UNL     1      -7.546  18.544  68.266  1.00  0.00    -0.305 C  
HETATM    5  C   UNL     1      -9.028  18.179  68.509  1.00  0.00    -0.309 C  
HETATM    6  C   UNL     1     -10.008  19.366  68.362  1.00  0.00    -0.527 C  
HETATM    7  C   UNL     1      -9.437  16.986  67.618  1.00  0.00    -0.236 C  
HETATM    8  C   UNL     1     -10.139  19.914  66.949  1.00  0.00    -0.579 C  
BRANCH   7   9
HETATM    9  O   UNL     1     -10.827  16.691  67.847  1.00  0.00    -0.347 OA 
BRANCH   9  10
HETATM   10  C   UNL     1     -11.090  15.485  68.416  1.00  0.00    -0.315 C  
HETATM   11  O   UNL     1     -10.859  15.193  69.580  1.00  0.00    -0.261 OA 
BRANCH  10  12
HETATM   12  C   UNL     1     -11.888  14.609  67.487  1.00  0.00    -0.375 C  
BRANCH  12  13
HETATM   13  C   UNL     1     -11.034  13.696  66.612  1.00  0.00    -0.292 C  
HETATM   14  O   UNL     1     -12.909  13.688  64.738  1.00  0.00    -0.680 OA 
HETATM   15  S   UNL     1     -11.484  13.823  64.909  1.00  0.00    -0.361 S  
HETATM   16  O   UNL     1     -11.120  15.385  64.707  1.00  0.00    -0.416 OA 
HETATM   17  O   UNL     1     -10.530  13.120  64.082  1.00  0.00    -0.421 OA 
BRANCH  13  18
HETATM   18  C   UNL     1     -11.203  12.268  67.022  1.00  0.00    -0.310 C  
HETATM   19  O   UNL     1     -12.283  11.744  67.258  1.00  0.00    -0.471 OA 
BRANCH  18  20
HETATM   20  O   UNL     1      -9.994  11.692  67.274  1.00  0.00    -0.190 OA 
BRANCH  20  21
HETATM   21  C   UNL     1      -9.879  11.058  68.560  1.00  0.00    -0.192 C  
HETATM   22  C   UNL     1     -10.402   9.610  68.607  1.00  0.00    -0.226 C  
HETATM   23  C   UNL     1      -9.717   8.704  67.560  1.00  0.00    -0.212 C  
HETATM   24  C   UNL     1     -10.287   9.011  70.028  1.00  0.00    -0.226 C  
HETATM   25  C   UNL     1      -8.223   8.491  67.762  1.00  0.00    -0.122 C  
BRANCH  24  26
HETATM   26  C   UNL     1     -11.052   9.801  71.095  1.00  0.00    -0.414 C  
BRANCH  26  27
HETATM   27  C   UNL     1     -12.033   8.912  71.859  1.00  0.00    -0.441 C  
HETATM   28  C   UNL     1     -11.294   7.827  72.631  1.00  0.00    -0.449 C  
ENDBRANCH  26  27
ENDBRANCH  24  26
ENDBRANCH  20  21
ENDBRANCH  18  20
ENDBRANCH  13  18
ENDBRANCH  12  13
ENDBRANCH  10  12
ENDBRANCH   9  10
ENDBRANCH   7   9
ENDBRANCH   3   4
ENDBRANCH   2   3
TORSDOF 11
ENDMDL
MODEL       22
REMARK 921   NORMALIZED FREE ENERGY PREDICTED BY IDOCK:   -5.35 KCAL/MOL
REMARK 922        TOTAL FREE ENERGY PREDICTED BY IDOCK:  -11.04 KCAL/MOL
REMARK 923 INTER-LIGAND FREE ENERGY PREDICTED BY IDOCK:   -9.87 KCAL/MOL
REMARK 924 INTRA-LIGAND FREE ENERGY PREDICTED BY IDOCK:   -1.17 KCAL/MOL
REMARK 927      BINDING AFFINITY PREDICTED BY RF-SCORE:    0.00 PKD
ROOT
HETATM    1  C   UNL     1      -9.626   3.893  68.167  1.00  0.00    -0.182 C  
HETATM    2  C   UNL     1      -9.905   4.351  66.742  1.00  0.00    -0.241 C  
ENDROOT
BRANCH   2   3
HETATM    3  C   UNL     1     -10.783   5.601  66.729  1.00  0.00    -0.358 C  
BRANCH   3   4
HETATM    4  C   UNL     1      -9.957   6.889  66.622  1.00  0.00    -0.211 C  
HETATM    5  C   UNL     1     -10.501   8.041  67.495  1.00  0.00    -0.331 C  
HETATM    6  C   UNL     1     -10.655   7.689  68.992  1.00  0.00    -0.186 C  
HETATM    7  C   UNL     1      -9.651   9.313  67.291  1.00  0.00    -0.155 C  
HETATM    8  C   UNL     1      -9.346   7.448  69.729  1.00  0.00    -0.146 C  
BRANCH   7   9
HETATM    9  O   UNL     1     -10.166  10.357  68.137  1.00  0.00    -0.151 OA 
BRANCH   9  10
HETATM   10  C   UNL     1     -11.265  11.008  67.673  1.00  0.00    -0.305 C  
HETATM   11  O   UNL     1     -12.271  11.241  68.327  1.00  0.00    -0.611 OA 
BRANCH  10  12
HETATM   12  C   UNL     1     -11.016  11.587  66.305  1.00  0.00    -0.328 C  
BRANCH  12  13
HETATM   13  C   UNL     1     -11.480  13.032  66.152  1.00  0.00    -0.340 C  
HETATM   14  O   UNL     1     -11.065  12.920  63.536  1.00  0.00    -0.398 OA 
HETATM   15  S   UNL     1     -12.032  13.366  64.508  1.00  0.00    -0.428 S  
HETATM   16  O   UNL     1     -13.263  12.319  64.478  1.00  0.00    -0.799 OA 
HETATM   17  O   UNL     1     -12.661  14.666  64.441  1.00  0.00    -0.662 OA 
BRANCH  13  18
HETATM   18  C   UNL     1     -10.361  13.977  66.457  1.00  0.00    -0.285 C  
HETATM   19  O   UNL     1      -9.755  14.620  65.611  1.00  0.00    -0.328 OA 
BRANCH  18  20
HETATM   20  O   UNL     1      -9.993  13.882  67.766  1.00  0.00    -0.232 OA 
BRANCH  20  21
HETATM   21  C   UNL     1     -10.882  14.527  68.695  1.00  0.00    -0.251 C  
HETATM   22  C   UNL     1     -10.249  15.689  69.483  1.00  0.00    -0.277 C  
HETATM   23  C   UNL     1      -9.651  16.771  68.557  1.00  0.00    -0.245 C  
HETATM   24  C   UNL     1     -11.249  16.303  70.490  1.00  0.00    -0.327 C  
HETATM   25  C   UNL     1     -10.658  17.511  67.687  1.00  0.00    -0.355 C  
BRANCH  24  26
HETATM   26  C   UNL     1     -11.785  15.300  71.517  1.00  0.00    -0.450 C  
BRANCH  26  27
HETATM   27  C   UNL     1     -12.636  15.989  72.584  1.00  0.00    -0.551 C  
HETATM   28  C   UNL     1     -12.221  15.543  73.980  1.00  0.00    -0.740 C  
ENDBRANCH  26  27
ENDBRANCH  24  26
ENDBRANCH  20  21
ENDBRANCH  18  20
ENDBRANCH  13  18
ENDBRANCH  12  13
ENDBRANCH  10  12
ENDBRANCH   9  10
ENDBRANCH   7   9
ENDBRANCH   3   4
ENDBRANCH   2   3
TORSDOF 11
ENDMDL
MODEL       23
REMARK 921   NORMALIZED FREE ENERGY PREDICTED BY IDOCK:   -5.34 KCAL/MOL
REMARK 922        TOTAL FREE ENERGY PREDICTED BY IDOCK:  -11.02 KCAL/MOL
REMARK 923 INTER-LIGAND FREE ENERGY PREDICTED BY IDOCK:   -9.36 KCAL/MOL
REMARK 924 INTRA-LIGAND FREE ENERGY PREDICTED BY IDOCK:   -1.66 KCAL/MOL
REMARK 927      BINDING AFFINITY PREDICTED BY RF-SCORE:    0.00 PKD
ROOT
HETATM    1  C   UNL     1      -9.827  10.292  63.252  1.00  0.00    -0.118 C  
HETATM    2  C   UNL     1     -10.785  11.467  63.391  1.00  0.00    -0.405 C  
ENDROOT
BRANCH   2   3
HETATM    3  C   UNL     1     -10.090  12.669  64.028  1.00  0.00    -0.280 C  
BRANCH   3   4
HETATM    4  C   UNL     1     -10.844  13.191  65.257  1.00  0.00    -0.314 C  
HETATM    5  C   UNL     1     -11.117  12.102  66.318  1.00  0.00    -0.353 C  
HETATM    6  C   UNL     1      -9.853  11.357  66.807  1.00  0.00    -0.232 C  
HETATM    7  C   UNL     1     -11.924  12.691  67.494  1.00  0.00    -0.250 C  
HETATM    8  C   UNL     1      -8.879  12.211  67.606  1.00  0.00    -0.172 C  
BRANCH   7   9
HETATM    9  O   UNL     1     -12.136  11.660  68.475  1.00  0.00    -0.491 OA 
BRANCH   9  10
HETATM   10  C   UNL     1     -12.155  12.070  69.771  1.00  0.00    -0.248 C  
HETATM   11  O   UNL     1     -11.771  11.406  70.723  1.00  0.00    -0.241 OA 
BRANCH  10  12
HETATM   12  C   UNL     1     -12.522  13.527  69.874  1.00  0.00    -0.194 C  
BRANCH  12  13
HETATM   13  C   UNL     1     -12.043  14.195  71.160  1.00  0.00    -0.314 C  
HETATM   14  O   UNL     1     -14.406  15.355  71.473  1.00  0.00    -0.508 OA 
HETATM   15  S   UNL     1     -13.396  14.634  72.207  1.00  0.00    -0.434 S  
HETATM   16  O   UNL     1     -13.961  13.141  72.463  1.00  0.00    -0.676 OA 
HETATM   17  O   UNL     1     -12.914  15.066  73.499  1.00  0.00    -0.510 OA 
BRANCH  13  18
HETATM   18  C   UNL     1     -11.284  15.445  70.849  1.00  0.00    -0.358 C  
HETATM   19  O   UNL     1     -11.421  16.501  71.452  1.00  0.00    -0.340 OA 
BRANCH  18  20
HETATM   20  O   UNL     1     -10.566  15.300  69.699  1.00  0.00    -0.247 OA 
BRANCH  20  21
HETATM   21  C   UNL     1     -10.284  16.526  69.001  1.00  0.00    -0.285 C  
HETATM   22  C   UNL     1      -8.786  16.859  68.874  1.00  0.00    -0.216 C  
HETATM   23  C   UNL     1      -7.987  15.723  68.197  1.00  0.00    -0.136 C  
HETATM   24  C   UNL     1      -8.564  18.208  68.153  1.00  0.00    -0.282 C  
HETATM   25  C   UNL     1      -8.356  15.443  66.747  1.00  0.00    -0.285 C  
BRANCH  24  26
HETATM   26  C   UNL     1      -9.233  19.398  68.848  1.00  0.00    -0.391 C  
BRANCH  26  27
HETATM   27  C   UNL     1     -10.117  20.189  67.884  1.00  0.00    -0.533 C  
HETATM   28  C   UNL     1      -9.969  19.668  66.460  1.00  0.00    -0.545 C  
ENDBRANCH  26  27
ENDBRANCH  24  26
ENDBRANCH  20  21
ENDBRANCH  18  20
ENDBRANCH  13  18
ENDBRANCH  12  13
ENDBRANCH  10  12
ENDBRANCH   9  10
ENDBRANCH   7   9
ENDBRANCH   3   4
ENDBRANCH   2   3
TORSDOF 11
ENDMDL
MODEL       24
REMARK 921   NORMALIZED FREE ENERGY PREDICTED BY IDOCK:   -5.33 KCAL/MOL
REMARK 922        TOTAL FREE ENERGY PREDICTED BY IDOCK:  -11.00 KCAL/MOL
REMARK 923 INTER-LIGAND FREE ENERGY PREDICTED BY IDOCK:  -10.04 KCAL/MOL
REMARK 924 INTRA-LIGAND FREE ENERGY PREDICTED BY IDOCK:   -0.96 KCAL/MOL
REMARK 927      BINDING AFFINITY PREDICTED BY RF-SCORE:    0.00 PKD
ROOT
HETATM    1  C   UNL     1     -11.374   5.949  72.488  1.00  0.00    -0.352 C  
HETATM    2  C   UNL     1     -11.750   6.381  71.077  1.00  0.00    -0.358 C  
ENDROOT
BRANCH   2   3
HETATM    3  C   UNL     1     -10.880   5.676  70.037  1.00  0.00    -0.366 C  
BRANCH   3   4
HETATM    4  C   UNL     1     -10.870   6.415  68.694  1.00  0.00    -0.379 C  
HETATM    5  C   UNL     1     -10.457   7.898  68.812  1.00  0.00    -0.198 C  
HETATM    6  C   UNL     1      -9.091   8.126  69.499  1.00  0.00    -0.151 C  
HETATM    7  C   UNL     1     -10.523   8.584  67.430  1.00  0.00    -0.280 C  
HETATM    8  C   UNL     1      -7.889   7.619  68.714  1.00  0.00    -0.120 C  
BRANCH   7   9
HETATM    9  O   UNL     1     -10.105   9.954  67.570  1.00  0.00    -0.175 OA 
BRANCH   9  10
HETATM   10  C   UNL     1     -11.104  10.875  67.619  1.00  0.00    -0.313 C  
HETATM   11  O   UNL     1     -12.042  10.851  68.403  1.00  0.00    -0.559 OA 
BRANCH  10  12
HETATM   12  C   UNL     1     -10.809  12.045  66.718  1.00  0.00    -0.307 C  
BRANCH  12  13
HETATM   13  C   UNL     1     -11.935  12.372  65.742  1.00  0.00    -0.372 C  
HETATM   14  O   UNL     1     -10.174  13.199  63.941  1.00  0.00    -0.365 OA 
HETATM   15  S   UNL     1     -11.361  12.392  64.072  1.00  0.00    -0.440 S  
HETATM   16  O   UNL     1     -10.903  10.844  63.985  1.00  0.00    -0.297 OA 
HETATM   17  O   UNL     1     -12.475  12.491  63.157  1.00  0.00    -0.561 OA 
BRANCH  13  18
HETATM   18  C   UNL     1     -12.512  13.719  66.041  1.00  0.00    -0.445 C  
HETATM   19  O   UNL     1     -13.284  14.315  65.302  1.00  0.00    -0.704 OA 
BRANCH  18  20
HETATM   20  O   UNL     1     -11.922  14.263  67.143  1.00  0.00    -0.405 OA 
BRANCH  20  21
HETATM   21  C   UNL     1     -11.051  15.376  66.878  1.00  0.00    -0.256 C  
HETATM   22  C   UNL     1     -11.011  16.436  67.995  1.00  0.00    -0.327 C  
HETATM   23  C   UNL     1     -10.622  15.834  69.363  1.00  0.00    -0.255 C  
HETATM   24  C   UNL     1     -10.091  17.620  67.621  1.00  0.00    -0.339 C  
HETATM   25  C   UNL     1      -9.214  15.259  69.443  1.00  0.00    -0.233 C  
BRANCH  24  26
HETATM   26  C   UNL     1     -10.502  18.339  66.332  1.00  0.00    -0.387 C  
BRANCH  26  27
HETATM   27  C   UNL     1     -10.162  19.829  66.386  1.00  0.00    -0.614 C  
HETATM   28  C   UNL     1      -9.318  20.150  67.612  1.00  0.00    -0.487 C  
ENDBRANCH  26  27
ENDBRANCH  24  26
ENDBRANCH  20  21
ENDBRANCH  18  20
ENDBRANCH  13  18
ENDBRANCH  12  13
ENDBRANCH  10  12
ENDBRANCH   9  10
ENDBRANCH   7   9
ENDBRANCH   3   4
ENDBRANCH   2   3
TORSDOF 11
ENDMDL
MODEL       25
REMARK 921   NORMALIZED FREE ENERGY PREDICTED BY IDOCK:   -5.31 KCAL/MOL
REMARK 922        TOTAL FREE ENERGY PREDICTED BY IDOCK:  -10.98 KCAL/MOL
REMARK 923 INTER-LIGAND FREE ENERGY PREDICTED BY IDOCK:   -8.35 KCAL/MOL
REMARK 924 INTRA-LIGAND FREE ENERGY PREDICTED BY IDOCK:   -2.63 KCAL/MOL
REMARK 927      BINDING AFFINITY PREDICTED BY RF-SCORE:    0.00 PKD
ROOT
HETATM    1  C   UNL     1     -12.284  15.093  73.722  1.00  0.00    -0.678 C  
HETATM    2  C   UNL     1     -13.439  15.831  73.058  1.00  0.00    -0.672 C  
ENDROOT
BRANCH   2   3
HETATM    3  C   UNL     1     -14.030  15.009  71.914  1.00  0.00    -0.604 C  
BRANCH   3   4
HETATM    4  C   UNL     1     -13.051  13.949  71.396  1.00  0.00    -0.413 C  
HETATM    5  C   UNL     1     -12.647  14.156  69.919  1.00  0.00    -0.205 C  
HETATM    6  C   UNL     1     -12.057  15.551  69.609  1.00  0.00    -0.352 C  
HETATM    7  C   UNL     1     -11.705  13.022  69.459  1.00  0.00    -0.317 C  
HETATM    8  C   UNL     1     -10.707  15.831  70.253  1.00  0.00    -0.342 C  
BRANCH   7   9
HETATM    9  O   UNL     1     -11.326  13.259  68.091  1.00  0.00    -0.255 OA 
BRANCH   9  10
HETATM   10  C   UNL     1     -11.732  12.323  67.193  1.00  0.00    -0.326 C  
HETATM   11  O   UNL     1     -12.377  12.554  66.181  1.00  0.00    -0.596 OA 
BRANCH  10  12
HETATM   12  C   UNL     1     -11.117  10.981  67.493  1.00  0.00    -0.366 C  
BRANCH  12  13
HETATM   13  C   UNL     1      -9.614  10.918  67.235  1.00  0.00    -0.164 C  
HETATM   14  O   UNL     1      -9.771   8.311  66.781  1.00  0.00    -0.197 OA 
HETATM   15  S   UNL     1      -9.183   9.516  66.252  1.00  0.00    -0.187 S  
HETATM   16  O   UNL     1     -10.018   9.918  64.927  1.00  0.00    -0.306 OA 
HETATM   17  O   UNL     1      -7.799   9.593  65.844  1.00  0.00    -0.099 OA 
BRANCH  13  18
HETATM   18  C   UNL     1      -8.865  10.818  68.525  1.00  0.00    -0.149 C  
HETATM   19  O   UNL     1      -9.204  10.109  69.463  1.00  0.00    -0.206 OA 
BRANCH  18  20
HETATM   20  O   UNL     1      -7.873  11.751  68.580  1.00  0.00    -0.135 OA 
BRANCH  20  21
HETATM   21  C   UNL     1      -7.955  12.785  67.584  1.00  0.00    -0.165 C  
HETATM   22  C   UNL     1      -8.102  14.208  68.152  1.00  0.00    -0.148 C  
HETATM   23  C   UNL     1      -6.963  14.572  69.131  1.00  0.00    -0.131 C  
HETATM   24  C   UNL     1      -8.229  15.259  67.025  1.00  0.00    -0.267 C  
HETATM   25  C   UNL     1      -5.572  14.635  68.514  1.00  0.00    -0.101 C  
BRANCH  24  26
HETATM   26  C   UNL     1      -9.420  15.021  66.091  1.00  0.00    -0.347 C  
BRANCH  26  27
HETATM   27  C   UNL     1     -10.516  16.067  66.300  1.00  0.00    -0.326 C  
HETATM   28  C   UNL     1      -9.947  17.333  66.927  1.00  0.00    -0.294 C  
ENDBRANCH  26  27
ENDBRANCH  24  26
ENDBRANCH  20  21
ENDBRANCH  18  20
ENDBRANCH  13  18
ENDBRANCH  12  13
ENDBRANCH  10  12
ENDBRANCH   9  10
ENDBRANCH   7   9
ENDBRANCH   3   4
ENDBRANCH   2   3
TORSDOF 11
ENDMDL
MODEL       26
REMARK 921   NORMALIZED FREE ENERGY PREDICTED BY IDOCK:   -5.31 KCAL/MOL
REMARK 922        TOTAL FREE ENERGY PREDICTED BY IDOCK:  -10.97 KCAL/MOL
REMARK 923 INTER-LIGAND FREE ENERGY PREDICTED BY IDOCK:   -9.20 KCAL/MOL
REMARK 924 INTRA-LIGAND FREE ENERGY PREDICTED BY IDOCK:   -1.77 KCAL/MOL
REMARK 927      BINDING AFFINITY PREDICTED BY RF-SCORE:    0.00 PKD
ROOT
HETATM    1  C   UNL     1      -6.485   9.841  64.700  1.00  0.00    -0.111 C  
HETATM    2  C   UNL     1      -7.123   8.472  64.891  1.00  0.00    -0.080 C  
ENDROOT
BRANCH   2   3
HETATM    3  C   UNL     1      -8.644   8.584  64.986  1.00  0.00    -0.162 C  
BRANCH   3   4
HETATM    4  C   UNL     1      -9.150   9.972  64.575  1.00  0.00    -0.285 C  
HETATM    5  C   UNL     1     -10.343  10.466  65.422  1.00  0.00    -0.270 C  
HETATM    6  C   UNL     1     -10.081  10.479  66.946  1.00  0.00    -0.265 C  
HETATM    7  C   UNL     1     -10.826  11.841  64.914  1.00  0.00    -0.298 C  
HETATM    8  C   UNL     1      -9.043  11.492  67.406  1.00  0.00    -0.166 C  
BRANCH   7   9
HETATM    9  O   UNL     1     -11.918  12.285  65.740  1.00  0.00    -0.521 OA 
BRANCH   9  10
HETATM   10  C   UNL     1     -12.087  13.631  65.825  1.00  0.00    -0.428 C  
HETATM   11  O   UNL     1     -13.153  14.214  65.692  1.00  0.00    -0.617 OA 
BRANCH  10  12
HETATM   12  C   UNL     1     -10.829  14.308  66.303  1.00  0.00    -0.310 C  
BRANCH  12  13
HETATM   13  C   UNL     1     -11.051  15.723  66.829  1.00  0.00    -0.116 C  
HETATM   14  O   UNL     1      -8.955  16.592  65.458  1.00  0.00    -0.376 OA 
HETATM   15  S   UNL     1     -10.321  16.931  65.767  1.00  0.00    -0.206 S  
HETATM   16  O   UNL     1     -11.205  16.620  64.450  1.00  0.00    -1.033 OA 
HETATM   17  O   UNL     1     -10.723  18.261  66.166  1.00  0.00    -0.333 OA 
BRANCH  13  18
HETATM   18  C   UNL     1     -10.439  15.880  68.185  1.00  0.00    -0.270 C  
HETATM   19  O   UNL     1     -10.028  16.941  68.635  1.00  0.00    -0.250 OA 
BRANCH  18  20
HETATM   20  O   UNL     1     -10.236  14.664  68.766  1.00  0.00    -0.231 OA 
BRANCH  20  21
HETATM   21  C   UNL     1     -10.832  14.504  70.065  1.00  0.00     0.007 C  
HETATM   22  C   UNL     1     -12.229  13.857  70.051  1.00  0.00    -0.408 C  
HETATM   23  C   UNL     1     -12.234  12.482  69.347  1.00  0.00    -0.117 C  
HETATM   24  C   UNL     1     -12.823  13.759  71.476  1.00  0.00    -0.445 C  
HETATM   25  C   UNL     1     -11.407  11.400  70.028  1.00  0.00    -0.260 C  
BRANCH  24  26
HETATM   26  C   UNL     1     -12.960  15.111  72.182  1.00  0.00    -0.440 C  
BRANCH  26  27
HETATM   27  C   UNL     1     -12.705  14.989  73.684  1.00  0.00    -0.650 C  
HETATM   28  C   UNL     1     -12.212  16.310  74.260  1.00  0.00    -0.558 C  
ENDBRANCH  26  27
ENDBRANCH  24  26
ENDBRANCH  20  21
ENDBRANCH  18  20
ENDBRANCH  13  18
ENDBRANCH  12  13
ENDBRANCH  10  12
ENDBRANCH   9  10
ENDBRANCH   7   9
ENDBRANCH   3   4
ENDBRANCH   2   3
TORSDOF 11
ENDMDL
MODEL       27
REMARK 921   NORMALIZED FREE ENERGY PREDICTED BY IDOCK:   -5.30 KCAL/MOL
REMARK 922        TOTAL FREE ENERGY PREDICTED BY IDOCK:  -10.96 KCAL/MOL
REMARK 923 INTER-LIGAND FREE ENERGY PREDICTED BY IDOCK:   -9.33 KCAL/MOL
REMARK 924 INTRA-LIGAND FREE ENERGY PREDICTED BY IDOCK:   -1.62 KCAL/MOL
REMARK 927      BINDING AFFINITY PREDICTED BY RF-SCORE:    0.00 PKD
ROOT
HETATM    1  C   UNL     1     -12.419  15.604  74.312  1.00  0.00    -0.804 C  
HETATM    2  C   UNL     1     -12.117  16.175  72.933  1.00  0.00    -0.643 C  
ENDROOT
BRANCH   2   3
HETATM    3  C   UNL     1     -13.092  15.632  71.889  1.00  0.00    -0.545 C  
BRANCH   3   4
HETATM    4  C   UNL     1     -12.544  14.391  71.175  1.00  0.00    -0.422 C  
HETATM    5  C   UNL     1     -12.472  14.547  69.640  1.00  0.00    -0.208 C  
HETATM    6  C   UNL     1     -11.664  15.775  69.162  1.00  0.00    -0.398 C  
HETATM    7  C   UNL     1     -11.964  13.241  68.993  1.00  0.00    -0.293 C  
HETATM    8  C   UNL     1     -10.172  15.709  69.452  1.00  0.00    -0.261 C  
BRANCH   7   9
HETATM    9  O   UNL     1     -11.882  13.429  67.569  1.00  0.00    -0.347 OA 
BRANCH   9  10
HETATM   10  C   UNL     1     -11.043  12.588  66.908  1.00  0.00    -0.278 C  
HETATM   11  O   UNL     1     -10.152  12.941  66.149  1.00  0.00    -0.265 OA 
BRANCH  10  12
HETATM   12  C   UNL     1     -11.213  11.168  67.380  1.00  0.00    -0.363 C  
BRANCH  12  13
HETATM   13  C   UNL     1      -9.899  10.466  67.713  1.00  0.00    -0.168 C  
HETATM   14  O   UNL     1     -10.873   8.163  66.833  1.00  0.00    -0.250 OA 
HETATM   15  S   UNL     1      -9.694   8.990  66.766  1.00  0.00    -0.238 S  
HETATM   16  O   UNL     1      -9.670   9.676  65.302  1.00  0.00    -0.300 OA 
HETATM   17  O   UNL     1      -8.360   8.461  66.939  1.00  0.00    -0.105 OA 
BRANCH  13  18
HETATM   18  C   UNL     1      -9.860  10.088  69.160  1.00  0.00    -0.205 C  
HETATM   19  O   UNL     1      -8.839  10.055  69.833  1.00  0.00    -0.205 OA 
BRANCH  18  20
HETATM   20  O   UNL     1     -11.071   9.613  69.567  1.00  0.00    -0.229 OA 
BRANCH  20  21
HETATM   21  C   UNL     1     -11.012   8.552  70.536  1.00  0.00    -0.241 C  
HETATM   22  C   UNL     1     -11.427   8.963  71.960  1.00  0.00    -0.431 C  
HETATM   23  C   UNL     1     -12.843   9.579  72.006  1.00  0.00    -0.499 C  
HETATM   24  C   UNL     1     -11.297   7.785  72.953  1.00  0.00    -0.406 C  
HETATM   25  C   UNL     1     -13.975   8.636  71.623  1.00  0.00    -0.459 C  
BRANCH  24  26
HETATM   26  C   UNL     1      -9.880   7.209  73.044  1.00  0.00    -0.233 C  
BRANCH  26  27
HETATM   27  C   UNL     1      -9.880   5.688  72.893  1.00  0.00    -0.183 C  
HETATM   28  C   UNL     1     -11.303   5.144  72.869  1.00  0.00    -0.354 C  
ENDBRANCH  26  27
ENDBRANCH  24  26
ENDBRANCH  20  21
ENDBRANCH  18  20
ENDBRANCH  13  18
ENDBRANCH  12  13
ENDBRANCH  10  12
ENDBRANCH   9  10
ENDBRANCH   7   9
ENDBRANCH   3   4
ENDBRANCH   2   3
TORSDOF 11
ENDMDL
MODEL       28
REMARK 921   NORMALIZED FREE ENERGY PREDICTED BY IDOCK:   -5.23 KCAL/MOL
REMARK 922        TOTAL FREE ENERGY PREDICTED BY IDOCK:  -10.84 KCAL/MOL
REMARK 923 INTER-LIGAND FREE ENERGY PREDICTED BY IDOCK:   -9.72 KCAL/MOL
REMARK 924 INTRA-LIGAND FREE ENERGY PREDICTED BY IDOCK:   -1.12 KCAL/MOL
REMARK 927      BINDING AFFINITY PREDICTED BY RF-SCORE:    0.00 PKD
ROOT
HETATM    1  C   UNL     1     -11.843   6.015  71.980  1.00  0.00    -0.284 C  
HETATM    2  C   UNL     1     -11.128   6.760  73.099  1.00  0.00    -0.220 C  
ENDROOT
BRANCH   2   3
HETATM    3  C   UNL     1     -10.447   8.022  72.569  1.00  0.00    -0.383 C  
BRANCH   3   4
HETATM    4  C   UNL     1     -11.368   8.836  71.652  1.00  0.00    -0.390 C  
HETATM    5  C   UNL     1     -10.603   9.729  70.650  1.00  0.00    -0.382 C  
HETATM    6  C   UNL     1      -9.588   8.969  69.765  1.00  0.00    -0.182 C  
HETATM    7  C   UNL     1     -11.595  10.553  69.803  1.00  0.00    -0.294 C  
HETATM    8  C   UNL     1     -10.209   7.998  68.772  1.00  0.00    -0.220 C  
BRANCH   7   9
HETATM    9  O   UNL     1     -10.853  11.352  68.863  1.00  0.00    -0.196 OA 
BRANCH   9  10
HETATM   10  C   UNL     1     -11.513  12.420  68.344  1.00  0.00    -0.310 C  
HETATM   11  O   UNL     1     -11.974  13.345  68.997  1.00  0.00    -0.319 OA 
BRANCH  10  12
HETATM   12  C   UNL     1     -11.434  12.429  66.840  1.00  0.00    -0.423 C  
BRANCH  12  13
HETATM   13  C   UNL     1     -11.738  13.787  66.213  1.00  0.00    -0.376 C  
HETATM   14  O   UNL     1     -11.033  12.876  63.825  1.00  0.00    -0.413 OA 
HETATM   15  S   UNL     1     -12.060  13.645  64.482  1.00  0.00    -0.419 S  
HETATM   16  O   UNL     1     -13.373  12.708  64.586  1.00  0.00    -0.767 OA 
HETATM   17  O   UNL     1     -12.551  14.899  63.957  1.00  0.00    -0.832 OA 
BRANCH  13  18
HETATM   18  C   UNL     1     -10.578  14.715  66.385  1.00  0.00    -0.301 C  
HETATM   19  O   UNL     1      -9.406  14.369  66.323  1.00  0.00    -0.283 OA 
BRANCH  18  20
HETATM   20  O   UNL     1     -11.000  15.943  66.801  1.00  0.00    -0.271 OA 
BRANCH  20  21
HETATM   21  C   UNL     1     -10.136  16.593  67.749  1.00  0.00    -0.275 C  
HETATM   22  C   UNL     1      -9.193  17.646  67.137  1.00  0.00    -0.245 C  
HETATM   23  C   UNL     1      -9.958  18.736  66.355  1.00  0.00    -0.426 C  
HETATM   24  C   UNL     1      -8.267  18.269  68.207  1.00  0.00    -0.312 C  
HETATM   25  C   UNL     1     -10.882  19.610  67.193  1.00  0.00    -0.526 C  
BRANCH  24  26
HETATM   26  C   UNL     1      -7.389  17.246  68.935  1.00  0.00    -0.243 C  
BRANCH  26  27
HETATM   27  C   UNL     1      -6.214  17.917  69.646  1.00  0.00    -0.209 C  
HETATM   28  C   UNL     1      -5.351  16.886  70.361  1.00  0.00    -0.223 C  
ENDBRANCH  26  27
ENDBRANCH  24  26
ENDBRANCH  20  21
ENDBRANCH  18  20
ENDBRANCH  13  18
ENDBRANCH  12  13
ENDBRANCH  10  12
ENDBRANCH   9  10
ENDBRANCH   7   9
ENDBRANCH   3   4
ENDBRANCH   2   3
TORSDOF 11
ENDMDL
MODEL       29
REMARK 921   NORMALIZED FREE ENERGY PREDICTED BY IDOCK:   -5.23 KCAL/MOL
REMARK 922        TOTAL FREE ENERGY PREDICTED BY IDOCK:  -10.84 KCAL/MOL
REMARK 923 INTER-LIGAND FREE ENERGY PREDICTED BY IDOCK:   -8.79 KCAL/MOL
REMARK 924 INTRA-LIGAND FREE ENERGY PREDICTED BY IDOCK:   -2.05 KCAL/MOL
REMARK 927      BINDING AFFINITY PREDICTED BY RF-SCORE:    0.00 PKD
ROOT
HETATM    1  C   UNL     1     -10.837   6.525  72.859  1.00  0.00    -0.288 C  
HETATM    2  C   UNL     1     -11.406   7.927  72.692  1.00  0.00    -0.468 C  
ENDROOT
BRANCH   2   3
HETATM    3  C   UNL     1     -12.249   8.029  71.421  1.00  0.00    -0.335 C  
BRANCH   3   4
HETATM    4  C   UNL     1     -13.048   9.337  71.359  1.00  0.00    -0.387 C  
HETATM    5  C   UNL     1     -12.158  10.595  71.249  1.00  0.00    -0.401 C  
HETATM    6  C   UNL     1     -11.171  10.575  70.059  1.00  0.00    -0.386 C  
HETATM    7  C   UNL     1     -13.031  11.868  71.246  1.00  0.00    -0.236 C  
HETATM    8  C   UNL     1     -11.825  10.640  68.687  1.00  0.00    -0.135 C  
BRANCH   7   9
HETATM    9  O   UNL     1     -12.175  13.018  71.114  1.00  0.00    -0.268 OA 
BRANCH   9  10
HETATM   10  C   UNL     1     -12.715  14.087  70.472  1.00  0.00    -0.280 C  
HETATM   11  O   UNL     1     -13.478  14.897  70.978  1.00  0.00    -0.387 OA 
BRANCH  10  12
HETATM   12  C   UNL     1     -12.101  14.269  69.109  1.00  0.00    -0.337 C  
BRANCH  12  13
HETATM   13  C   UNL     1     -10.590  14.484  69.136  1.00  0.00    -0.234 C  
HETATM   14  O   UNL     1     -10.846  16.676  67.668  1.00  0.00    -0.324 OA 
HETATM   15  S   UNL     1     -10.169  16.173  68.837  1.00  0.00    -0.262 S  
HETATM   16  O   UNL     1     -10.903  16.808  70.130  1.00  0.00    -0.257 OA 
HETATM   17  O   UNL     1      -8.761  16.391  69.077  1.00  0.00    -0.248 OA 
BRANCH  13  18
HETATM   18  C   UNL     1      -9.925  13.656  68.083  1.00  0.00    -0.246 C  
HETATM   19  O   UNL     1      -8.816  13.153  68.202  1.00  0.00    -0.185 OA 
BRANCH  18  20
HETATM   20  O   UNL     1     -10.635  13.694  66.920  1.00  0.00    -0.269 OA 
BRANCH  20  21
HETATM   21  C   UNL     1     -10.104  12.882  65.858  1.00  0.00    -0.289 C  
HETATM   22  C   UNL     1     -11.093  11.846  65.290  1.00  0.00    -0.354 C  
HETATM   23  C   UNL     1     -12.403  12.495  64.792  1.00  0.00    -0.544 C  
HETATM   24  C   UNL     1     -10.439  10.983  64.186  1.00  0.00    -0.434 C  
HETATM   25  C   UNL     1     -12.251  13.444  63.611  1.00  0.00    -0.480 C  
BRANCH  24  26
HETATM   26  C   UNL     1      -9.201  10.214  64.656  1.00  0.00    -0.300 C  
BRANCH  26  27
HETATM   27  C   UNL     1      -9.548   9.198  65.744  1.00  0.00    -0.323 C  
HETATM   28  C   UNL     1      -8.528   9.243  66.874  1.00  0.00    -0.128 C  
ENDBRANCH  26  27
ENDBRANCH  24  26
ENDBRANCH  20  21
ENDBRANCH  18  20
ENDBRANCH  13  18
ENDBRANCH  12  13
ENDBRANCH  10  12
ENDBRANCH   9  10
ENDBRANCH   7   9
ENDBRANCH   3   4
ENDBRANCH   2   3
TORSDOF 11
ENDMDL
MODEL       30
REMARK 921   NORMALIZED FREE ENERGY PREDICTED BY IDOCK:   -5.22 KCAL/MOL
REMARK 922        TOTAL FREE ENERGY PREDICTED BY IDOCK:  -10.83 KCAL/MOL
REMARK 923 INTER-LIGAND FREE ENERGY PREDICTED BY IDOCK:   -9.22 KCAL/MOL
REMARK 924 INTRA-LIGAND FREE ENERGY PREDICTED BY IDOCK:   -1.61 KCAL/MOL
REMARK 927      BINDING AFFINITY PREDICTED BY RF-SCORE:    0.00 PKD
ROOT
HETATM    1  C   UNL     1      -9.931  19.370  69.038  1.00  0.00    -0.477 C  
HETATM    2  C   UNL     1     -10.345  19.869  67.660  1.00  0.00    -0.557 C  
ENDROOT
BRANCH   2   3
HETATM    3  C   UNL     1      -9.609  19.109  66.557  1.00  0.00    -0.399 C  
BRANCH   3   4
HETATM    4  C   UNL     1     -10.521  18.110  65.834  1.00  0.00    -0.292 C  
HETATM    5  C   UNL     1      -9.989  16.661  65.862  1.00  0.00    -0.320 C  
HETATM    6  C   UNL     1      -9.703  16.114  67.280  1.00  0.00    -0.233 C  
HETATM    7  C   UNL     1     -10.931  15.730  65.070  1.00  0.00    -0.417 C  
HETATM    8  C   UNL     1     -10.936  15.918  68.149  1.00  0.00    -0.335 C  
BRANCH   7   9
HETATM    9  O   UNL     1     -10.423  14.385  65.140  1.00  0.00    -0.363 OA 
BRANCH   9  10
HETATM   10  C   UNL     1     -11.333  13.423  65.448  1.00  0.00    -0.291 C  
HETATM   11  O   UNL     1     -12.545  13.550  65.358  1.00  0.00    -0.470 OA 
BRANCH  10  12
HETATM   12  C   UNL     1     -10.658  12.107  65.728  1.00  0.00    -0.295 C  
BRANCH  12  13
HETATM   13  C   UNL     1     -10.227  11.929  67.181  1.00  0.00    -0.208 C  
HETATM   14  O   UNL     1      -7.999  10.721  66.404  1.00  0.00    -0.139 OA 
HETATM   15  S   UNL     1      -8.478  11.726  67.319  1.00  0.00    -0.167 S  
HETATM   16  O   UNL     1      -8.048  13.166  66.722  1.00  0.00     0.008 OA 
HETATM   17  O   UNL     1      -8.073  11.774  68.706  1.00  0.00    -0.129 OA 
BRANCH  13  18
HETATM   18  C   UNL     1     -10.874  10.719  67.775  1.00  0.00    -0.269 C  
HETATM   19  O   UNL     1     -10.428   9.583  67.677  1.00  0.00    -0.232 OA 
BRANCH  18  20
HETATM   20  O   UNL     1     -12.106  11.025  68.271  1.00  0.00    -0.604 OA 
BRANCH  20  21
HETATM   21  C   UNL     1     -12.097  11.775  69.498  1.00  0.00    -0.250 C  
HETATM   22  C   UNL     1     -12.827  11.093  70.670  1.00  0.00    -0.271 C  
HETATM   23  C   UNL     1     -12.276   9.681  70.965  1.00  0.00    -0.409 C  
HETATM   24  C   UNL     1     -12.814  11.977  71.939  1.00  0.00    -0.338 C  
HETATM   25  C   UNL     1     -10.831   9.634  71.443  1.00  0.00    -0.294 C  
BRANCH  24  26
HETATM   26  C   UNL     1     -13.462  13.350  71.741  1.00  0.00    -0.452 C  
BRANCH  26  27
HETATM   27  C   UNL     1     -12.620  14.465  72.363  1.00  0.00    -0.356 C  
HETATM   28  C   UNL     1     -13.473  15.693  72.653  1.00  0.00    -0.655 C  
ENDBRANCH  26  27
ENDBRANCH  24  26
ENDBRANCH  20  21
ENDBRANCH  18  20
ENDBRANCH  13  18
ENDBRANCH  12  13
ENDBRANCH  10  12
ENDBRANCH   9  10
ENDBRANCH   7   9
ENDBRANCH   3   4
ENDBRANCH   2   3
TORSDOF 11
ENDMDL
MODEL       31
REMARK 921   NORMALIZED FREE ENERGY PREDICTED BY IDOCK:   -5.22 KCAL/MOL
REMARK 922        TOTAL FREE ENERGY PREDICTED BY IDOCK:  -10.82 KCAL/MOL
REMARK 923 INTER-LIGAND FREE ENERGY PREDICTED BY IDOCK:   -9.76 KCAL/MOL
REMARK 924 INTRA-LIGAND FREE ENERGY PREDICTED BY IDOCK:   -1.06 KCAL/MOL
REMARK 927      BINDING AFFINITY PREDICTED BY RF-SCORE:    0.00 PKD
ROOT
HETATM    1  C   UNL     1      -6.036  18.035  69.675  1.00  0.00    -0.247 C  
HETATM    2  C   UNL     1      -6.378  19.490  69.389  1.00  0.00    -0.355 C  
ENDROOT
BRANCH   2   3
HETATM    3  C   UNL     1      -7.710  19.605  68.647  1.00  0.00    -0.363 C  
BRANCH   3   4
HETATM    4  C   UNL     1      -7.987  18.384  67.762  1.00  0.00    -0.258 C  
HETATM    5  C   UNL     1      -9.457  17.914  67.808  1.00  0.00    -0.263 C  
HETATM    6  C   UNL     1     -10.489  19.010  67.456  1.00  0.00    -0.537 C  
HETATM    7  C   UNL     1      -9.642  16.653  66.936  1.00  0.00    -0.249 C  
HETATM    8  C   UNL     1     -10.449  19.483  66.010  1.00  0.00    -0.611 C  
BRANCH   7   9
HETATM    9  O   UNL     1     -11.026  16.258  66.979  1.00  0.00    -0.231 OA 
BRANCH   9  10
HETATM   10  C   UNL     1     -11.318  15.213  67.797  1.00  0.00    -0.328 C  
HETATM   11  O   UNL     1     -11.208  15.222  69.014  1.00  0.00    -0.248 OA 
BRANCH  10  12
HETATM   12  C   UNL     1     -11.987  14.098  67.037  1.00  0.00    -0.471 C  
BRANCH  12  13
HETATM   13  C   UNL     1     -11.154  13.552  65.881  1.00  0.00    -0.284 C  
HETATM   14  O   UNL     1     -13.312  12.443  64.811  1.00  0.00    -0.718 OA 
HETATM   15  S   UNL     1     -12.151  13.223  64.460  1.00  0.00    -0.419 S  
HETATM   16  O   UNL     1     -12.651  14.738  64.196  1.00  0.00    -0.784 OA 
HETATM   17  O   UNL     1     -11.319  12.913  63.320  1.00  0.00    -0.392 OA 
BRANCH  13  18
HETATM   18  C   UNL     1     -10.488  12.272  66.274  1.00  0.00    -0.238 C  
HETATM   19  O   UNL     1      -9.735  11.637  65.548  1.00  0.00    -0.226 OA 
BRANCH  18  20
HETATM   20  O   UNL     1     -10.974  11.822  67.466  1.00  0.00    -0.228 OA 
BRANCH  20  21
HETATM   21  C   UNL     1     -11.201  10.403  67.531  1.00  0.00    -0.179 C  
HETATM   22  C   UNL     1     -10.207   9.638  68.424  1.00  0.00    -0.214 C  
HETATM   23  C   UNL     1     -10.168  10.187  69.867  1.00  0.00    -0.284 C  
HETATM   24  C   UNL     1     -10.486   8.117  68.410  1.00  0.00    -0.205 C  
HETATM   25  C   UNL     1     -11.461  10.033  70.656  1.00  0.00    -0.425 C  
BRANCH  24  26
HETATM   26  C   UNL     1     -10.415   7.489  67.015  1.00  0.00    -0.409 C  
BRANCH  26  27
HETATM   27  C   UNL     1     -11.083   6.114  66.982  1.00  0.00    -0.332 C  
HETATM   28  C   UNL     1     -10.253   5.127  66.171  1.00  0.00    -0.258 C  
ENDBRANCH  26  27
ENDBRANCH  24  26
ENDBRANCH  20  21
ENDBRANCH  18  20
ENDBRANCH  13  18
ENDBRANCH  12  13
ENDBRANCH  10  12
ENDBRANCH   9  10
ENDBRANCH   7   9
ENDBRANCH   3   4
ENDBRANCH   2   3
TORSDOF 11
ENDMDL
MODEL       32
REMARK 921   NORMALIZED FREE ENERGY PREDICTED BY IDOCK:   -5.21 KCAL/MOL
REMARK 922        TOTAL FREE ENERGY PREDICTED BY IDOCK:  -10.81 KCAL/MOL
REMARK 923 INTER-LIGAND FREE ENERGY PREDICTED BY IDOCK:   -8.73 KCAL/MOL
REMARK 924 INTRA-LIGAND FREE ENERGY PREDICTED BY IDOCK:   -2.08 KCAL/MOL
REMARK 927      BINDING AFFINITY PREDICTED BY RF-SCORE:    0.00 PKD
ROOT
HETATM    1  C   UNL     1     -10.601  17.325  67.847  1.00  0.00    -0.384 C  
HETATM    2  C   UNL     1     -10.004  16.617  69.055  1.00  0.00    -0.280 C  
ENDROOT
BRANCH   2   3
HETATM    3  C   UNL     1     -11.013  16.543  70.201  1.00  0.00    -0.215 C  
BRANCH   3   4
HETATM    4  C   UNL     1     -12.059  15.443  69.980  1.00  0.00    -0.388 C  
HETATM    5  C   UNL     1     -12.120  14.415  71.131  1.00  0.00    -0.410 C  
HETATM    6  C   UNL     1     -12.357  15.033  72.528  1.00  0.00    -0.445 C  
HETATM    7  C   UNL     1     -13.155  13.315  70.810  1.00  0.00     0.076 C  
HETATM    8  C   UNL     1     -13.726  15.668  72.721  1.00  0.00    -0.662 C  
BRANCH   7   9
HETATM    9  O   UNL     1     -13.207  12.390  71.912  1.00  0.00    -0.464 OA 
BRANCH   9  10
HETATM   10  C   UNL     1     -12.875  11.104  71.622  1.00  0.00    -0.419 C  
HETATM   11  O   UNL     1     -13.557  10.126  71.892  1.00  0.00    -0.337 OA 
BRANCH  10  12
HETATM   12  C   UNL     1     -11.652  11.043  70.746  1.00  0.00    -0.159 C  
BRANCH  12  13
HETATM   13  C   UNL     1     -11.488   9.718  70.007  1.00  0.00    -0.180 C  
HETATM   14  O   UNL     1      -8.882   9.736  70.493  1.00  0.00    -0.182 OA 
HETATM   15  S   UNL     1     -10.029   8.864  70.521  1.00  0.00    -0.217 S  
HETATM   16  O   UNL     1     -10.439   8.657  72.071  1.00  0.00    -0.307 OA 
HETATM   17  O   UNL     1     -10.007   7.528  69.971  1.00  0.00    -0.183 OA 
BRANCH  13  18
HETATM   18  C   UNL     1     -11.383   9.949  68.533  1.00  0.00     0.013 C  
HETATM   19  O   UNL     1     -10.684   9.285  67.781  1.00  0.00    -0.259 OA 
BRANCH  18  20
HETATM   20  O   UNL     1     -12.020  11.102  68.180  1.00  0.00    -0.615 OA 
BRANCH  20  21
HETATM   21  C   UNL     1     -11.534  11.719  66.974  1.00  0.00    -0.298 C  
HETATM   22  C   UNL     1     -10.907  13.110  67.177  1.00  0.00    -0.271 C  
HETATM   23  C   UNL     1      -9.755  13.092  68.207  1.00  0.00    -0.223 C  
HETATM   24  C   UNL     1     -10.449  13.728  65.835  1.00  0.00    -0.300 C  
HETATM   25  C   UNL     1      -8.538  12.269  67.807  1.00  0.00    -0.170 C  
BRANCH  24  26
HETATM   26  C   UNL     1     -11.578  13.886  64.812  1.00  0.00    -0.383 C  
BRANCH  26  27
HETATM   27  C   UNL     1     -11.429  12.900  63.653  1.00  0.00    -0.506 C  
HETATM   28  C   UNL     1     -12.705  12.090  63.462  1.00  0.00    -0.567 C  
ENDBRANCH  26  27
ENDBRANCH  24  26
ENDBRANCH  20  21
ENDBRANCH  18  20
ENDBRANCH  13  18
ENDBRANCH  12  13
ENDBRANCH  10  12
ENDBRANCH   9  10
ENDBRANCH   7   9
ENDBRANCH   3   4
ENDBRANCH   2   3
TORSDOF 11
ENDMDL
MODEL       33
REMARK 921   NORMALIZED FREE ENERGY PREDICTED BY IDOCK:   -5.19 KCAL/MOL
REMARK 922        TOTAL FREE ENERGY PREDICTED BY IDOCK:  -10.78 KCAL/MOL
REMARK 923 INTER-LIGAND FREE ENERGY PREDICTED BY IDOCK:   -9.79 KCAL/MOL
REMARK 924 INTRA-LIGAND FREE ENERGY PREDICTED BY IDOCK:   -1.00 KCAL/MOL
REMARK 927      BINDING AFFINITY PREDICTED BY RF-SCORE:    0.00 PKD
ROOT
HETATM    1  C   UNL     1      -5.706  18.305  69.735  1.00  0.00    -0.235 C  
HETATM    2  C   UNL     1      -6.037  19.750  69.389  1.00  0.00    -0.338 C  
ENDROOT
BRANCH   2   3
HETATM    3  C   UNL     1      -7.378  19.847  68.662  1.00  0.00    -0.297 C  
BRANCH   3   4
HETATM    4  C   UNL     1      -7.515  18.791  67.558  1.00  0.00    -0.241 C  
HETATM    5  C   UNL     1      -8.914  18.141  67.501  1.00  0.00    -0.257 C  
HETATM    6  C   UNL     1     -10.079  19.147  67.355  1.00  0.00    -0.465 C  
HETATM    7  C   UNL     1      -8.956  17.056  66.404  1.00  0.00    -0.275 C  
HETATM    8  C   UNL     1     -10.121  19.887  66.026  1.00  0.00    -0.589 C  
BRANCH   7   9
HETATM    9  O   UNL     1     -10.279  16.490  66.358  1.00  0.00    -0.292 OA 
BRANCH   9  10
HETATM   10  C   UNL     1     -10.692  16.048  65.142  1.00  0.00    -0.409 C  
HETATM   11  O   UNL     1     -11.169  16.753  64.264  1.00  0.00    -1.163 OA 
BRANCH  10  12
HETATM   12  C   UNL     1     -10.306  14.608  64.927  1.00  0.00    -0.382 C  
BRANCH  12  13
HETATM   13  C   UNL     1     -10.812  13.664  66.014  1.00  0.00    -0.275 C  
HETATM   14  O   UNL     1     -11.408  11.835  64.190  1.00  0.00    -0.351 OA 
HETATM   15  S   UNL     1     -10.779  11.981  65.479  1.00  0.00    -0.286 S  
HETATM   16  O   UNL     1      -9.183  11.860  65.254  1.00  0.00    -0.076 OA 
HETATM   17  O   UNL     1     -11.057  11.095  66.587  1.00  0.00    -0.270 OA 
BRANCH  13  18
HETATM   18  C   UNL     1     -12.223  13.998  66.382  1.00  0.00    -0.460 C  
HETATM   19  O   UNL     1     -13.135  14.110  65.574  1.00  0.00    -0.691 OA 
BRANCH  18  20
HETATM   20  O   UNL     1     -12.311  14.337  67.699  1.00  0.00    -0.265 OA 
BRANCH  20  21
HETATM   21  C   UNL     1     -12.643  13.254  68.585  1.00  0.00     0.678 C  
HETATM   22  C   UNL     1     -11.897  13.278  69.931  1.00  0.00    -0.380 C  
HETATM   23  C   UNL     1     -12.104  14.606  70.694  1.00  0.00    -0.385 C  
HETATM   24  C   UNL     1     -12.271  12.062  70.810  1.00  0.00    -0.382 C  
HETATM   25  C   UNL     1     -13.534  14.885  71.137  1.00  0.00    -0.474 C  
BRANCH  24  26
HETATM   26  C   UNL     1     -11.973  10.711  70.153  1.00  0.00    -0.417 C  
BRANCH  26  27
HETATM   27  C   UNL     1     -10.946   9.910  70.955  1.00  0.00    -0.392 C  
HETATM   28  C   UNL     1     -11.624   8.811  71.761  1.00  0.00    -0.416 C  
ENDBRANCH  26  27
ENDBRANCH  24  26
ENDBRANCH  20  21
ENDBRANCH  18  20
ENDBRANCH  13  18
ENDBRANCH  12  13
ENDBRANCH  10  12
ENDBRANCH   9  10
ENDBRANCH   7   9
ENDBRANCH   3   4
ENDBRANCH   2   3
TORSDOF 11
ENDMDL
MODEL       34
REMARK 921   NORMALIZED FREE ENERGY PREDICTED BY IDOCK:   -5.16 KCAL/MOL
REMARK 922        TOTAL FREE ENERGY PREDICTED BY IDOCK:  -10.73 KCAL/MOL
REMARK 923 INTER-LIGAND FREE ENERGY PREDICTED BY IDOCK:   -9.34 KCAL/MOL
REMARK 924 INTRA-LIGAND FREE ENERGY PREDICTED BY IDOCK:   -1.39 KCAL/MOL
REMARK 927      BINDING AFFINITY PREDICTED BY RF-SCORE:    0.00 PKD
ROOT
HETATM    1  C   UNL     1      -9.313   3.078  67.355  1.00  0.00    -0.216 C  
HETATM    2  C   UNL     1      -9.402   4.358  66.535  1.00  0.00    -0.165 C  
ENDROOT
BRANCH   2   3
HETATM    3  C   UNL     1     -10.419   5.326  67.139  1.00  0.00    -0.261 C  
BRANCH   3   4
HETATM    4  C   UNL     1     -10.186   6.771  66.681  1.00  0.00    -0.211 C  
HETATM    5  C   UNL     1     -10.568   7.822  67.746  1.00  0.00    -0.254 C  
HETATM    6  C   UNL     1      -9.869   7.629  69.112  1.00  0.00    -0.171 C  
HETATM    7  C   UNL     1     -10.356   9.247  67.192  1.00  0.00    -0.260 C  
HETATM    8  C   UNL     1      -8.365   7.861  69.097  1.00  0.00    -0.133 C  
BRANCH   7   9
HETATM    9  O   UNL     1     -10.694  10.200  68.217  1.00  0.00    -0.208 OA 
BRANCH   9  10
HETATM   10  C   UNL     1     -11.496  11.226  67.829  1.00  0.00    -0.275 C  
HETATM   11  O   UNL     1     -12.240  11.853  68.569  1.00  0.00    -0.391 OA 
BRANCH  10  12
HETATM   12  C   UNL     1     -11.209  11.633  66.408  1.00  0.00    -0.349 C  
BRANCH  12  13
HETATM   13  C   UNL     1     -11.727  13.023  66.047  1.00  0.00    -0.393 C  
HETATM   14  O   UNL     1     -10.787  12.765  63.582  1.00  0.00    -0.412 OA 
HETATM   15  S   UNL     1     -11.957  13.197  64.305  1.00  0.00    -0.434 S  
HETATM   16  O   UNL     1     -13.086  12.055  64.123  1.00  0.00    -0.661 OA 
HETATM   17  O   UNL     1     -12.643  14.434  64.008  1.00  0.00    -0.764 OA 
BRANCH  13  18
HETATM   18  C   UNL     1     -10.757  14.074  66.486  1.00  0.00    -0.281 C  
HETATM   19  O   UNL     1      -9.541  13.956  66.420  1.00  0.00    -0.279 OA 
BRANCH  18  20
HETATM   20  O   UNL     1     -11.402  15.087  67.130  1.00  0.00    -0.338 OA 
BRANCH  20  21
HETATM   21  C   UNL     1     -10.686  16.334  67.170  1.00  0.00    -0.247 C  
HETATM   22  C   UNL     1     -10.647  17.004  68.556  1.00  0.00    -0.370 C  
HETATM   23  C   UNL     1     -10.057  16.076  69.641  1.00  0.00    -0.244 C  
HETATM   24  C   UNL     1      -9.901  18.358  68.510  1.00  0.00    -0.402 C  
HETATM   25  C   UNL     1      -8.595  15.696  69.448  1.00  0.00    -0.248 C  
BRANCH  24  26
HETATM   26  C   UNL     1     -10.516  19.369  67.538  1.00  0.00    -0.577 C  
BRANCH  26  27
HETATM   27  C   UNL     1      -9.524  19.778  66.450  1.00  0.00    -0.496 C  
HETATM   28  C   UNL     1      -8.196  19.052  66.624  1.00  0.00    -0.301 C  
ENDBRANCH  26  27
ENDBRANCH  24  26
ENDBRANCH  20  21
ENDBRANCH  18  20
ENDBRANCH  13  18
ENDBRANCH  12  13
ENDBRANCH  10  12
ENDBRANCH   9  10
ENDBRANCH   7   9
ENDBRANCH   3   4
ENDBRANCH   2   3
TORSDOF 11
ENDMDL
MODEL       35
REMARK 921   NORMALIZED FREE ENERGY PREDICTED BY IDOCK:   -5.16 KCAL/MOL
REMARK 922        TOTAL FREE ENERGY PREDICTED BY IDOCK:  -10.73 KCAL/MOL
REMARK 923 INTER-LIGAND FREE ENERGY PREDICTED BY IDOCK:   -9.27 KCAL/MOL
REMARK 924 INTRA-LIGAND FREE ENERGY PREDICTED BY IDOCK:   -1.46 KCAL/MOL
REMARK 927      BINDING AFFINITY PREDICTED BY RF-SCORE:    0.00 PKD
ROOT
HETATM    1  C   UNL     1     -12.431  15.714  74.404  1.00  0.00    -0.790 C  
HETATM    2  C   UNL     1     -13.000  15.798  72.994  1.00  0.00    -0.628 C  
ENDROOT
BRANCH   2   3
HETATM    3  C   UNL     1     -11.885  15.973  71.963  1.00  0.00    -0.623 C  
BRANCH   3   4
HETATM    4  C   UNL     1     -11.798  14.785  70.997  1.00  0.00    -0.383 C  
HETATM    5  C   UNL     1     -12.152  15.152  69.539  1.00  0.00    -0.316 C  
HETATM    6  C   UNL     1     -11.317  16.314  68.953  1.00  0.00    -0.317 C  
HETATM    7  C   UNL     1     -12.094  13.897  68.642  1.00  0.00    -0.302 C  
HETATM    8  C   UNL     1      -9.841  16.001  68.754  1.00  0.00    -0.223 C  
BRANCH   7   9
HETATM    9  O   UNL     1     -12.401  14.278  67.289  1.00  0.00    -0.337 OA 
BRANCH   9  10
HETATM   10  C   UNL     1     -11.562  13.796  66.334  1.00  0.00    -0.360 C  
HETATM   11  O   UNL     1     -10.949  14.481  65.528  1.00  0.00    -0.308 OA 
BRANCH  10  12
HETATM   12  C   UNL     1     -11.323  12.321  66.515  1.00  0.00    -0.403 C  
BRANCH  12  13
HETATM   13  C   UNL     1      -9.855  11.953  66.711  1.00  0.00    -0.197 C  
HETATM   14  O   UNL     1     -10.222   9.673  65.409  1.00  0.00    -0.192 OA 
HETATM   15  S   UNL     1      -9.311  10.786  65.502  1.00  0.00    -0.219 S  
HETATM   16  O   UNL     1      -9.544  11.709  64.195  1.00  0.00    -0.202 OA 
HETATM   17  O   UNL     1      -7.878  10.616  65.574  1.00  0.00    -0.154 OA 
BRANCH  13  18
HETATM   18  C   UNL     1      -9.644  11.341  68.060  1.00  0.00    -0.180 C  
HETATM   19  O   UNL     1      -8.638  11.502  68.738  1.00  0.00    -0.139 OA 
BRANCH  18  20
HETATM   20  O   UNL     1     -10.631  10.445  68.343  1.00  0.00    -0.183 OA 
BRANCH  20  21
HETATM   21  C   UNL     1     -11.073  10.440  69.712  1.00  0.00    -0.295 C  
HETATM   22  C   UNL     1     -11.145   9.043  70.355  1.00  0.00    -0.279 C  
HETATM   23  C   UNL     1      -9.798   8.291  70.281  1.00  0.00    -0.186 C  
HETATM   24  C   UNL     1     -11.669   9.113  71.808  1.00  0.00    -0.456 C  
HETATM   25  C   UNL     1      -8.656   8.924  71.064  1.00  0.00    -0.255 C  
BRANCH  24  26
HETATM   26  C   UNL     1     -13.061   9.740  71.932  1.00  0.00    -0.544 C  
BRANCH  26  27
HETATM   27  C   UNL     1     -14.142   8.830  71.346  1.00  0.00    -0.311 C  
HETATM   28  C   UNL     1     -13.844   7.368  71.649  1.00  0.00    -0.490 C  
ENDBRANCH  26  27
ENDBRANCH  24  26
ENDBRANCH  20  21
ENDBRANCH  18  20
ENDBRANCH  13  18
ENDBRANCH  12  13
ENDBRANCH  10  12
ENDBRANCH   9  10
ENDBRANCH   7   9
ENDBRANCH   3   4
ENDBRANCH   2   3
TORSDOF 11
ENDMDL
MODEL       36
REMARK 921   NORMALIZED FREE ENERGY PREDICTED BY IDOCK:   -5.15 KCAL/MOL
REMARK 922        TOTAL FREE ENERGY PREDICTED BY IDOCK:  -10.71 KCAL/MOL
REMARK 923 INTER-LIGAND FREE ENERGY PREDICTED BY IDOCK:   -8.36 KCAL/MOL
REMARK 924 INTRA-LIGAND FREE ENERGY PREDICTED BY IDOCK:   -2.35 KCAL/MOL
REMARK 927      BINDING AFFINITY PREDICTED BY RF-SCORE:    0.00 PKD
ROOT
HETATM    1  C   UNL     1      -8.542  10.757  62.617  1.00  0.00    -0.266 C  
HETATM    2  C   UNL     1      -9.830  11.441  63.055  1.00  0.00    -0.373 C  
ENDROOT
BRANCH   2   3
HETATM    3  C   UNL     1     -10.384  10.801  64.328  1.00  0.00    -0.401 C  
BRANCH   3   4
HETATM    4  C   UNL     1      -9.445  10.987  65.526  1.00  0.00    -0.250 C  
HETATM    5  C   UNL     1      -9.525   9.836  66.552  1.00  0.00    -0.228 C  
HETATM    6  C   UNL     1      -9.275   8.432  65.956  1.00  0.00    -0.247 C  
HETATM    7  C   UNL     1      -8.595  10.122  67.750  1.00  0.00    -0.118 C  
HETATM    8  C   UNL     1      -7.857   8.193  65.460  1.00  0.00    -0.104 C  
BRANCH   7   9
HETATM    9  O   UNL     1      -8.671   9.020  68.673  1.00  0.00    -0.131 OA 
BRANCH   9  10
HETATM   10  C   UNL     1      -9.259   9.288  69.868  1.00  0.00    -0.195 C  
HETATM   11  O   UNL     1      -8.662   9.581  70.893  1.00  0.00    -0.243 OA 
BRANCH  10  12
HETATM   12  C   UNL     1     -10.756   9.377  69.730  1.00  0.00    -0.250 C  
BRANCH  12  13
HETATM   13  C   UNL     1     -11.354  10.662  70.294  1.00  0.00    -0.319 C  
HETATM   14  O   UNL     1     -13.703   9.471  70.599  1.00  0.00    -0.014 OA 
HETATM   15  S   UNL     1     -12.777  10.335  71.288  1.00  0.00    -0.456 S  
HETATM   16  O   UNL     1     -12.044   9.447  72.424  1.00  0.00    -0.214 OA 
HETATM   17  O   UNL     1     -13.195  11.533  71.980  1.00  0.00    -0.509 OA 
BRANCH  13  18
HETATM   18  C   UNL     1     -11.774  11.576  69.187  1.00  0.00    -0.329 C  
HETATM   19  O   UNL     1     -12.280  11.197  68.139  1.00  0.00    -0.612 OA 
BRANCH  18  20
HETATM   20  O   UNL     1     -11.349  12.849  69.424  1.00  0.00    -0.250 OA 
BRANCH  20  21
HETATM   21  C   UNL     1     -10.713  13.495  68.308  1.00  0.00    -0.258 C  
HETATM   22  C   UNL     1     -11.417  14.778  67.827  1.00  0.00    -0.363 C  
HETATM   23  C   UNL     1     -11.581  15.818  68.957  1.00  0.00    -0.406 C  
HETATM   24  C   UNL     1     -10.704  15.391  66.600  1.00  0.00    -0.309 C  
HETATM   25  C   UNL     1     -10.280  16.380  69.517  1.00  0.00    -0.244 C  
BRANCH  24  26
HETATM   26  C   UNL     1     -10.621  14.445  65.398  1.00  0.00    -0.380 C  
BRANCH  26  27
HETATM   27  C   UNL     1     -11.927  14.428  64.603  1.00  0.00    -0.475 C  
HETATM   28  C   UNL     1     -12.709  13.149  64.870  1.00  0.00    -0.421 C  
ENDBRANCH  26  27
ENDBRANCH  24  26
ENDBRANCH  20  21
ENDBRANCH  18  20
ENDBRANCH  13  18
ENDBRANCH  12  13
ENDBRANCH  10  12
ENDBRANCH   9  10
ENDBRANCH   7   9
ENDBRANCH   3   4
ENDBRANCH   2   3
TORSDOF 11
ENDMDL
MODEL       37
REMARK 921   NORMALIZED FREE ENERGY PREDICTED BY IDOCK:   -5.13 KCAL/MOL
REMARK 922        TOTAL FREE ENERGY PREDICTED BY IDOCK:  -10.68 KCAL/MOL
REMARK 923 INTER-LIGAND FREE ENERGY PREDICTED BY IDOCK:   -9.28 KCAL/MOL
REMARK 924 INTRA-LIGAND FREE ENERGY PREDICTED BY IDOCK:   -1.40 KCAL/MOL
REMARK 927      BINDING AFFINITY PREDICTED BY RF-SCORE:    0.00 PKD
ROOT
HETATM    1  C   UNL     1      -5.815  20.175  66.589  1.00  0.00    -0.193 C  
HETATM    2  C   UNL     1      -6.962  20.743  67.413  1.00  0.00    -0.418 C  
ENDROOT
BRANCH   2   3
HETATM    3  C   UNL     1      -8.311  20.253  66.888  1.00  0.00    -0.348 C  
BRANCH   3   4
HETATM    4  C   UNL     1      -8.980  19.261  67.846  1.00  0.00    -0.357 C  
HETATM    5  C   UNL     1      -9.485  17.978  67.149  1.00  0.00    -0.264 C  
HETATM    6  C   UNL     1      -8.402  17.220  66.347  1.00  0.00    -0.315 C  
HETATM    7  C   UNL     1     -10.191  17.058  68.167  1.00  0.00    -0.322 C  
HETATM    8  C   UNL     1      -7.301  16.598  67.193  1.00  0.00    -0.220 C  
BRANCH   7   9
HETATM    9  O   UNL     1     -10.624  15.863  67.492  1.00  0.00    -0.302 OA 
BRANCH   9  10
HETATM   10  C   UNL     1     -11.453  15.051  68.200  1.00  0.00    -0.339 C  
HETATM   11  O   UNL     1     -11.724  15.185  69.384  1.00  0.00    -0.295 OA 
BRANCH  10  12
HETATM   12  C   UNL     1     -12.159  14.075  67.296  1.00  0.00    -0.405 C  
BRANCH  12  13
HETATM   13  C   UNL     1     -11.219  13.131  66.552  1.00  0.00    -0.310 C  
HETATM   14  O   UNL     1     -13.146  12.515  64.838  1.00  0.00    -0.833 OA 
HETATM   15  S   UNL     1     -11.749  12.866  64.888  1.00  0.00    -0.371 S  
HETATM   16  O   UNL     1     -11.617  14.394  64.376  1.00  0.00    -0.380 OA 
HETATM   17  O   UNL     1     -10.738  12.147  64.146  1.00  0.00    -0.302 OA 
BRANCH  13  18
HETATM   18  C   UNL     1     -11.170  11.799  67.231  1.00  0.00    -0.305 C  
HETATM   19  O   UNL     1     -12.075  11.343  67.916  1.00  0.00    -0.646 OA 
BRANCH  18  20
HETATM   20  O   UNL     1      -9.923  11.256  67.137  1.00  0.00    -0.188 OA 
BRANCH  20  21
HETATM   21  C   UNL     1      -9.859   9.839  67.377  1.00  0.00    -0.174 C  
HETATM   22  C   UNL     1      -9.746   8.980  66.104  1.00  0.00    -0.354 C  
HETATM   23  C   UNL     1      -8.535   9.377  65.231  1.00  0.00    -0.161 C  
HETATM   24  C   UNL     1      -9.727   7.470  66.437  1.00  0.00    -0.180 C  
HETATM   25  C   UNL     1      -7.171   9.149  65.870  1.00  0.00    -0.093 C  
BRANCH  24  26
HETATM   26  C   UNL     1     -10.966   6.990  67.198  1.00  0.00    -0.393 C  
BRANCH  26  27
HETATM   27  C   UNL     1     -10.597   6.019  68.320  1.00  0.00    -0.325 C  
HETATM   28  C   UNL     1     -11.376   6.336  69.590  1.00  0.00    -0.492 C  
ENDBRANCH  26  27
ENDBRANCH  24  26
ENDBRANCH  20  21
ENDBRANCH  18  20
ENDBRANCH  13  18
ENDBRANCH  12  13
ENDBRANCH  10  12
ENDBRANCH   9  10
ENDBRANCH   7   9
ENDBRANCH   3   4
ENDBRANCH   2   3
TORSDOF 11
ENDMDL
MODEL       38
REMARK 921   NORMALIZED FREE ENERGY PREDICTED BY IDOCK:   -5.10 KCAL/MOL
REMARK 922        TOTAL FREE ENERGY PREDICTED BY IDOCK:  -10.63 KCAL/MOL
REMARK 923 INTER-LIGAND FREE ENERGY PREDICTED BY IDOCK:   -8.65 KCAL/MOL
REMARK 924 INTRA-LIGAND FREE ENERGY PREDICTED BY IDOCK:   -1.99 KCAL/MOL
REMARK 927      BINDING AFFINITY PREDICTED BY RF-SCORE:    0.00 PKD
ROOT
HETATM    1  C   UNL     1     -10.596  11.234  63.390  1.00  0.00    -0.393 C  
HETATM    2  C   UNL     1      -9.709  10.155  63.996  1.00  0.00    -0.273 C  
ENDROOT
BRANCH   2   3
HETATM    3  C   UNL     1      -8.921  10.698  65.188  1.00  0.00    -0.217 C  
BRANCH   3   4
HETATM    4  C   UNL     1      -9.773  11.612  66.077  1.00  0.00    -0.257 C  
HETATM    5  C   UNL     1     -10.616  10.844  67.118  1.00  0.00    -0.302 C  
HETATM    6  C   UNL     1      -9.798   9.905  68.034  1.00  0.00    -0.170 C  
HETATM    7  C   UNL     1     -11.483  11.826  67.934  1.00  0.00    -0.317 C  
HETATM    8  C   UNL     1      -8.850  10.614  68.991  1.00  0.00    -0.154 C  
BRANCH   7   9
HETATM    9  O   UNL     1     -12.233  11.083  68.912  1.00  0.00    -0.519 OA 
BRANCH   9  10
HETATM   10  C   UNL     1     -12.384  11.681  70.123  1.00  0.00    -0.219 C  
HETATM   11  O   UNL     1     -12.117  11.164  71.198  1.00  0.00    -0.301 OA 
BRANCH  10  12
HETATM   12  C   UNL     1     -12.733  13.138  69.970  1.00  0.00     0.141 C  
BRANCH  12  13
HETATM   13  C   UNL     1     -12.054  14.046  70.991  1.00  0.00    -0.305 C  
HETATM   14  O   UNL     1     -14.274  15.474  71.240  1.00  0.00    -0.544 OA 
HETATM   15  S   UNL     1     -13.235  14.856  72.025  1.00  0.00    -0.388 S  
HETATM   16  O   UNL     1     -13.867  13.533  72.705  1.00  0.00    -0.724 OA 
HETATM   17  O   UNL     1     -12.569  15.538  73.112  1.00  0.00    -0.372 OA 
BRANCH  13  18
HETATM   18  C   UNL     1     -11.253  15.104  70.300  1.00  0.00    -0.277 C  
HETATM   19  O   UNL     1     -10.310  15.693  70.809  1.00  0.00    -0.083 OA 
BRANCH  18  20
HETATM   20  O   UNL     1     -11.828  15.446  69.113  1.00  0.00    -0.330 OA 
BRANCH  20  21
HETATM   21  C   UNL     1     -10.993  15.258  67.957  1.00  0.00    -0.299 C  
HETATM   22  C   UNL     1     -11.015  16.428  66.956  1.00  0.00    -0.048 C  
HETATM   23  C   UNL     1     -10.632  17.773  67.615  1.00  0.00    -0.385 C  
HETATM   24  C   UNL     1     -10.130  16.137  65.722  1.00  0.00    -0.390 C  
HETATM   25  C   UNL     1      -9.207  17.855  68.143  1.00  0.00    -0.278 C  
BRANCH  24  26
HETATM   26  C   UNL     1     -10.540  14.877  64.953  1.00  0.00    -0.417 C  
BRANCH  26  27
HETATM   27  C   UNL     1     -12.037  14.870  64.642  1.00  0.00    -0.387 C  
HETATM   28  C   UNL     1     -12.652  13.515  64.964  1.00  0.00    -0.441 C  
ENDBRANCH  26  27
ENDBRANCH  24  26
ENDBRANCH  20  21
ENDBRANCH  18  20
ENDBRANCH  13  18
ENDBRANCH  12  13
ENDBRANCH  10  12
ENDBRANCH   9  10
ENDBRANCH   7   9
ENDBRANCH   3   4
ENDBRANCH   2   3
TORSDOF 11
ENDMDL
MODEL       39
REMARK 921   NORMALIZED FREE ENERGY PREDICTED BY IDOCK:   -5.09 KCAL/MOL
REMARK 922        TOTAL FREE ENERGY PREDICTED BY IDOCK:  -10.61 KCAL/MOL
REMARK 923 INTER-LIGAND FREE ENERGY PREDICTED BY IDOCK:   -9.27 KCAL/MOL
REMARK 924 INTRA-LIGAND FREE ENERGY PREDICTED BY IDOCK:   -1.34 KCAL/MOL
REMARK 927      BINDING AFFINITY PREDICTED BY RF-SCORE:    0.00 PKD
ROOT
HETATM    1  C   UNL     1     -11.029   5.900  70.593  1.00  0.00    -0.357 C  
HETATM    2  C   UNL     1     -10.382   6.542  71.812  1.00  0.00    -0.229 C  
ENDROOT
BRANCH   2   3
HETATM    3  C   UNL     1     -11.200   7.737  72.301  1.00  0.00    -0.365 C  
BRANCH   3   4
HETATM    4  C   UNL     1     -11.875   8.488  71.148  1.00  0.00    -0.322 C  
HETATM    5  C   UNL     1     -11.127   9.773  70.730  1.00  0.00    -0.415 C  
HETATM    6  C   UNL     1      -9.642   9.554  70.360  1.00  0.00    -0.326 C  
HETATM    7  C   UNL     1     -11.895  10.498  69.605  1.00  0.00    -0.234 C  
HETATM    8  C   UNL     1      -9.413   8.739  69.096  1.00  0.00    -0.157 C  
BRANCH   7   9
HETATM    9  O   UNL     1     -11.158  11.673  69.220  1.00  0.00    -0.240 OA 
BRANCH   9  10
HETATM   10  C   UNL     1     -11.902  12.716  68.766  1.00  0.00    -0.300 C  
HETATM   11  O   UNL     1     -12.462  13.539  69.475  1.00  0.00    -0.205 OA 
BRANCH  10  12
HETATM   12  C   UNL     1     -11.790  12.852  67.271  1.00  0.00    -0.416 C  
BRANCH  12  13
HETATM   13  C   UNL     1     -11.256  14.206  66.812  1.00  0.00    -0.323 C  
HETATM   14  O   UNL     1     -10.744  13.223  64.404  1.00  0.00    -0.382 OA 
HETATM   15  S   UNL     1     -11.325  14.370  65.055  1.00  0.00    -0.394 S  
HETATM   16  O   UNL     1     -12.929  14.256  64.893  1.00  0.00    -0.682 OA 
HETATM   17  O   UNL     1     -11.017  15.727  64.663  1.00  0.00    -0.446 OA 
BRANCH  13  18
HETATM   18  C   UNL     1      -9.829  14.374  67.229  1.00  0.00    -0.247 C  
HETATM   19  O   UNL     1      -8.913  13.659  66.847  1.00  0.00    -0.237 OA 
BRANCH  18  20
HETATM   20  O   UNL     1      -9.723  15.302  68.222  1.00  0.00    -0.205 OA 
BRANCH  20  21
HETATM   21  C   UNL     1      -9.504  16.650  67.773  1.00  0.00    -0.227 C  
HETATM   22  C   UNL     1      -8.351  17.382  68.485  1.00  0.00    -0.271 C  
HETATM   23  C   UNL     1      -7.014  16.615  68.379  1.00  0.00    -0.160 C  
HETATM   24  C   UNL     1      -8.205  18.836  67.982  1.00  0.00    -0.317 C  
HETATM   25  C   UNL     1      -6.455  16.473  66.970  1.00  0.00    -0.221 C  
BRANCH  24  26
HETATM   26  C   UNL     1      -9.465  19.686  68.174  1.00  0.00    -0.449 C  
BRANCH  26  27
HETATM   27  C   UNL     1      -9.839  20.434  66.895  1.00  0.00    -0.572 C  
HETATM   28  C   UNL     1     -10.546  19.510  65.912  1.00  0.00    -0.572 C  
ENDBRANCH  26  27
ENDBRANCH  24  26
ENDBRANCH  20  21
ENDBRANCH  18  20
ENDBRANCH  13  18
ENDBRANCH  12  13
ENDBRANCH  10  12
ENDBRANCH   9  10
ENDBRANCH   7   9
ENDBRANCH   3   4
ENDBRANCH   2   3
TORSDOF 11
ENDMDL
MODEL       40
REMARK 921   NORMALIZED FREE ENERGY PREDICTED BY IDOCK:   -5.09 KCAL/MOL
REMARK 922        TOTAL FREE ENERGY PREDICTED BY IDOCK:  -10.61 KCAL/MOL
REMARK 923 INTER-LIGAND FREE ENERGY PREDICTED BY IDOCK:   -7.97 KCAL/MOL
REMARK 924 INTRA-LIGAND FREE ENERGY PREDICTED BY IDOCK:   -2.64 KCAL/MOL
REMARK 927      BINDING AFFINITY PREDICTED BY RF-SCORE:    0.00 PKD
ROOT
HETATM    1  C   UNL     1      -9.186  15.496  68.297  1.00  0.00    -0.188 C  
HETATM    2  C   UNL     1      -9.997  15.386  69.581  1.00  0.00    -0.270 C  
ENDROOT
BRANCH   2   3
HETATM    3  C   UNL     1     -11.496  15.460  69.291  1.00  0.00    -0.344 C  
BRANCH   3   4
HETATM    4  C   UNL     1     -12.149  14.073  69.259  1.00  0.00    -0.380 C  
HETATM    5  C   UNL     1     -12.139  13.358  70.628  1.00  0.00    -0.374 C  
HETATM    6  C   UNL     1     -12.784  14.169  71.775  1.00  0.00    -0.420 C  
HETATM    7  C   UNL     1     -12.762  11.951  70.501  1.00  0.00    -0.023 C  
HETATM    8  C   UNL     1     -14.285  14.379  71.642  1.00  0.00    -0.512 C  
BRANCH   7   9
HETATM    9  O   UNL     1     -12.763  11.324  71.796  1.00  0.00    -0.364 OA 
BRANCH   9  10
HETATM   10  C   UNL     1     -12.667   9.969  71.798  1.00  0.00    -0.428 C  
HETATM   11  O   UNL     1     -13.598   9.200  71.989  1.00  0.00    -0.400 OA 
BRANCH  10  12
HETATM   12  C   UNL     1     -11.306   9.520  71.337  1.00  0.00    -0.462 C  
BRANCH  12  13
HETATM   13  C   UNL     1     -11.314   8.189  70.590  1.00  0.00    -0.249 C  
HETATM   14  O   UNL     1      -9.065   7.467  71.793  1.00  0.00    -0.130 OA 
HETATM   15  S   UNL     1     -10.368   6.963  71.439  1.00  0.00    -0.201 S  
HETATM   16  O   UNL     1     -11.250   6.913  72.794  1.00  0.00    -0.266 OA 
HETATM   17  O   UNL     1     -10.564   5.666  70.833  1.00  0.00    -0.244 OA 
BRANCH  13  18
HETATM   18  C   UNL     1     -10.727   8.351  69.224  1.00  0.00    -0.126 C  
HETATM   19  O   UNL     1     -10.685   7.463  68.384  1.00  0.00    -0.180 OA 
BRANCH  18  20
HETATM   20  O   UNL     1     -10.087   9.550  69.113  1.00  0.00    -0.180 OA 
BRANCH  20  21
HETATM   21  C   UNL     1     -10.287  10.232  67.863  1.00  0.00    -0.196 C  
HETATM   22  C   UNL     1      -9.857  11.710  67.865  1.00  0.00    -0.189 C  
HETATM   23  C   UNL     1      -8.381  11.893  68.283  1.00  0.00    -0.159 C  
HETATM   24  C   UNL     1     -10.142  12.387  66.505  1.00  0.00    -0.246 C  
HETATM   25  C   UNL     1      -7.356  11.283  67.336  1.00  0.00    -0.115 C  
BRANCH  24  26
HETATM   26  C   UNL     1     -11.617  12.347  66.092  1.00  0.00    -0.452 C  
BRANCH  26  27
HETATM   27  C   UNL     1     -12.095  13.706  65.582  1.00  0.00    -0.457 C  
HETATM   28  C   UNL     1     -10.980  14.431  64.839  1.00  0.00    -0.416 C  
ENDBRANCH  26  27
ENDBRANCH  24  26
ENDBRANCH  20  21
ENDBRANCH  18  20
ENDBRANCH  13  18
ENDBRANCH  12  13
ENDBRANCH  10  12
ENDBRANCH   9  10
ENDBRANCH   7   9
ENDBRANCH   3   4
ENDBRANCH   2   3
TORSDOF 11
ENDMDL
MODEL       41
REMARK 921   NORMALIZED FREE ENERGY PREDICTED BY IDOCK:   -5.09 KCAL/MOL
REMARK 922        TOTAL FREE ENERGY PREDICTED BY IDOCK:  -10.60 KCAL/MOL
REMARK 923 INTER-LIGAND FREE ENERGY PREDICTED BY IDOCK:   -9.20 KCAL/MOL
REMARK 924 INTRA-LIGAND FREE ENERGY PREDICTED BY IDOCK:   -1.40 KCAL/MOL
REMARK 927      BINDING AFFINITY PREDICTED BY RF-SCORE:    0.00 PKD
ROOT
HETATM    1  C   UNL     1      -5.128  18.677  67.137  1.00  0.00    -0.135 C  
HETATM    2  C   UNL     1      -5.671  19.890  66.395  1.00  0.00    -0.179 C  
ENDROOT
BRANCH   2   3
HETATM    3  C   UNL     1      -6.847  20.512  67.147  1.00  0.00    -0.341 C  
BRANCH   3   4
HETATM    4  C   UNL     1      -8.184  20.264  66.438  1.00  0.00    -0.228 C  
HETATM    5  C   UNL     1      -8.796  18.880  66.747  1.00  0.00    -0.315 C  
HETATM    6  C   UNL     1      -8.987  18.589  68.253  1.00  0.00    -0.332 C  
HETATM    7  C   UNL     1     -10.108  18.686  65.957  1.00  0.00    -0.297 C  
HETATM    8  C   UNL     1     -10.030  19.456  68.943  1.00  0.00    -0.519 C  
BRANCH   7   9
HETATM    9  O   UNL     1     -10.665  17.401  66.288  1.00  0.00    -0.227 OA 
BRANCH   9  10
HETATM   10  C   UNL     1     -10.878  16.561  65.242  1.00  0.00    -0.221 C  
HETATM   11  O   UNL     1     -11.271  16.903  64.136  1.00  0.00    -1.176 OA 
BRANCH  10  12
HETATM   12  C   UNL     1     -10.379  15.174  65.549  1.00  0.00    -0.399 C  
BRANCH  12  13
HETATM   13  C   UNL     1     -10.325  14.852  67.040  1.00  0.00    -0.264 C  
HETATM   14  O   UNL     1      -8.861  12.696  66.552  1.00  0.00    -0.172 OA 
HETATM   15  S   UNL     1      -8.937  13.834  67.434  1.00  0.00    -0.236 S  
HETATM   16  O   UNL     1      -7.778  14.869  66.986  1.00  0.00    -0.185 OA 
HETATM   17  O   UNL     1      -8.786  13.721  68.867  1.00  0.00    -0.021 OA 
BRANCH  13  18
HETATM   18  C   UNL     1     -11.559  14.122  67.464  1.00  0.00    -0.367 C  
HETATM   19  O   UNL     1     -12.273  13.481  66.704  1.00  0.00    -0.398 OA 
BRANCH  18  20
HETATM   20  O   UNL     1     -11.877  14.421  68.755  1.00  0.00    -0.309 OA 
BRANCH  20  21
HETATM   21  C   UNL     1     -12.638  13.412  69.442  1.00  0.00     0.298 C  
HETATM   22  C   UNL     1     -12.295  13.260  70.936  1.00  0.00    -0.413 C  
HETATM   23  C   UNL     1     -12.444  14.587  71.712  1.00  0.00    -0.420 C  
HETATM   24  C   UNL     1     -13.119  12.130  71.595  1.00  0.00    -0.413 C  
HETATM   25  C   UNL     1     -13.859  15.144  71.783  1.00  0.00    -0.605 C  
BRANCH  24  26
HETATM   26  C   UNL     1     -12.917  10.758  70.944  1.00  0.00    -0.385 C  
BRANCH  26  27
HETATM   27  C   UNL     1     -12.421   9.723  71.954  1.00  0.00    -0.451 C  
HETATM   28  C   UNL     1     -13.588   8.970  72.578  1.00  0.00    -0.492 C  
ENDBRANCH  26  27
ENDBRANCH  24  26
ENDBRANCH  20  21
ENDBRANCH  18  20
ENDBRANCH  13  18
ENDBRANCH  12  13
ENDBRANCH  10  12
ENDBRANCH   9  10
ENDBRANCH   7   9
ENDBRANCH   3   4
ENDBRANCH   2   3
TORSDOF 11
ENDMDL
MODEL       42
REMARK 921   NORMALIZED FREE ENERGY PREDICTED BY IDOCK:   -5.07 KCAL/MOL
REMARK 922        TOTAL FREE ENERGY PREDICTED BY IDOCK:  -10.58 KCAL/MOL
REMARK 923 INTER-LIGAND FREE ENERGY PREDICTED BY IDOCK:   -9.40 KCAL/MOL
REMARK 924 INTRA-LIGAND FREE ENERGY PREDICTED BY IDOCK:   -1.18 KCAL/MOL
REMARK 927      BINDING AFFINITY PREDICTED BY RF-SCORE:    0.00 PKD
ROOT
HETATM    1  C   UNL     1      -9.120   6.286  72.435  1.00  0.00    -0.138 C  
HETATM    2  C   UNL     1     -10.005   6.949  73.482  1.00  0.00    -0.293 C  
ENDROOT
BRANCH   2   3
HETATM    3  C   UNL     1     -11.019   7.887  72.828  1.00  0.00    -0.456 C  
BRANCH   3   4
HETATM    4  C   UNL     1     -10.354   8.885  71.872  1.00  0.00    -0.407 C  
HETATM    5  C   UNL     1     -11.191   9.174  70.606  1.00  0.00    -0.322 C  
HETATM    6  C   UNL     1     -12.629   9.664  70.891  1.00  0.00    -0.299 C  
HETATM    7  C   UNL     1     -10.432  10.141  69.673  1.00  0.00    -0.252 C  
HETATM    8  C   UNL     1     -12.718  11.038  71.539  1.00  0.00    -0.521 C  
BRANCH   7   9
HETATM    9  O   UNL     1     -11.249  10.411  68.519  1.00  0.00    -0.262 OA 
BRANCH   9  10
HETATM   10  C   UNL     1     -10.643  10.248  67.314  1.00  0.00    -0.267 C  
HETATM   11  O   UNL     1     -10.388   9.170  66.797  1.00  0.00    -0.258 OA 
BRANCH  10  12
HETATM   12  C   UNL     1     -10.503  11.563  66.594  1.00  0.00    -0.277 C  
BRANCH  12  13
HETATM   13  C   UNL     1     -11.736  12.456  66.692  1.00  0.00    -0.372 C  
HETATM   14  O   UNL     1     -10.950  13.828  64.564  1.00  0.00    -0.387 OA 
HETATM   15  S   UNL     1     -12.118  13.210  65.141  1.00  0.00    -0.449 S  
HETATM   16  O   UNL     1     -12.406  11.854  64.310  1.00  0.00    -0.303 OA 
HETATM   17  O   UNL     1     -13.400  13.874  65.206  1.00  0.00    -0.732 OA 
BRANCH  13  18
HETATM   18  C   UNL     1     -11.512  13.550  67.687  1.00  0.00    -0.318 C  
HETATM   19  O   UNL     1     -12.410  14.155  68.258  1.00  0.00    -0.246 OA 
BRANCH  18  20
HETATM   20  O   UNL     1     -10.196  13.902  67.729  1.00  0.00    -0.232 OA 
BRANCH  20  21
HETATM   21  C   UNL     1      -9.936  15.305  67.547  1.00  0.00    -0.226 C  
HETATM   22  C   UNL     1      -9.120  15.956  68.679  1.00  0.00    -0.206 C  
HETATM   23  C   UNL     1      -7.771  15.242  68.917  1.00  0.00    -0.167 C  
HETATM   24  C   UNL     1      -8.919  17.470  68.436  1.00  0.00    -0.276 C  
HETATM   25  C   UNL     1      -6.785  15.312  67.759  1.00  0.00    -0.188 C  
BRANCH  24  26
HETATM   26  C   UNL     1     -10.229  18.254  68.315  1.00  0.00    -0.405 C  
BRANCH  26  27
HETATM   27  C   UNL     1      -9.987  19.678  67.812  1.00  0.00    -0.514 C  
HETATM   28  C   UNL     1     -10.287  19.786  66.322  1.00  0.00    -0.626 C  
ENDBRANCH  26  27
ENDBRANCH  24  26
ENDBRANCH  20  21
ENDBRANCH  18  20
ENDBRANCH  13  18
ENDBRANCH  12  13
ENDBRANCH  10  12
ENDBRANCH   9  10
ENDBRANCH   7   9
ENDBRANCH   3   4
ENDBRANCH   2   3
TORSDOF 11
ENDMDL
MODEL       43
REMARK 921   NORMALIZED FREE ENERGY PREDICTED BY IDOCK:   -5.07 KCAL/MOL
REMARK 922        TOTAL FREE ENERGY PREDICTED BY IDOCK:  -10.58 KCAL/MOL
REMARK 923 INTER-LIGAND FREE ENERGY PREDICTED BY IDOCK:   -8.82 KCAL/MOL
REMARK 924 INTRA-LIGAND FREE ENERGY PREDICTED BY IDOCK:   -1.75 KCAL/MOL
REMARK 927      BINDING AFFINITY PREDICTED BY RF-SCORE:    0.00 PKD
ROOT
HETATM    1  C   UNL     1     -12.493  15.913  73.822  1.00  0.00    -0.728 C  
HETATM    2  C   UNL     1     -13.010  15.024  72.700  1.00  0.00    -0.493 C  
ENDROOT
BRANCH   2   3
HETATM    3  C   UNL     1     -12.641  15.596  71.332  1.00  0.00    -0.519 C  
BRANCH   3   4
HETATM    4  C   UNL     1     -11.141  15.474  71.039  1.00  0.00    -0.387 C  
HETATM    5  C   UNL     1     -10.833  15.041  69.588  1.00  0.00    -0.283 C  
HETATM    6  C   UNL     1     -11.465  15.945  68.505  1.00  0.00    -0.377 C  
HETATM    7  C   UNL     1      -9.310  14.889  69.388  1.00  0.00    -0.047 C  
HETATM    8  C   UNL     1     -10.901  17.357  68.443  1.00  0.00    -0.234 C  
BRANCH   7   9
HETATM    9  O   UNL     1      -9.055  14.513  68.022  1.00  0.00    -0.174 OA 
BRANCH   9  10
HETATM   10  C   UNL     1      -9.049  13.178  67.767  1.00  0.00    -0.200 C  
HETATM   11  O   UNL     1      -8.194  12.395  68.154  1.00  0.00    -0.157 OA 
BRANCH  10  12
HETATM   12  C   UNL     1     -10.334  12.743  67.114  1.00  0.00    -0.237 C  
BRANCH  12  13
HETATM   13  C   UNL     1     -10.142  11.734  65.985  1.00  0.00    -0.231 C  
HETATM   14  O   UNL     1     -12.593  12.219  65.096  1.00  0.00    -0.585 OA 
HETATM   15  S   UNL     1     -11.236  12.055  64.636  1.00  0.00    -0.321 S  
HETATM   16  O   UNL     1     -10.677  13.522  64.251  1.00  0.00    -0.403 OA 
HETATM   17  O   UNL     1     -10.893  11.228  63.501  1.00  0.00    -0.382 OA 
BRANCH  13  18
HETATM   18  C   UNL     1     -10.413  10.346  66.471  1.00  0.00    -0.196 C  
HETATM   19  O   UNL     1     -10.025   9.332  65.906  1.00  0.00    -0.307 OA 
BRANCH  18  20
HETATM   20  O   UNL     1     -11.296  10.363  67.509  1.00  0.00    -0.374 OA 
BRANCH  20  21
HETATM   21  C   UNL     1     -10.966   9.487  68.601  1.00  0.00    -0.072 C  
HETATM   22  C   UNL     1     -10.568  10.209  69.901  1.00  0.00    -0.331 C  
HETATM   23  C   UNL     1     -11.656  11.192  70.385  1.00  0.00    -0.355 C  
HETATM   24  C   UNL     1     -10.184   9.205  71.014  1.00  0.00    -0.372 C  
HETATM   25  C   UNL     1     -12.978  10.552  70.789  1.00  0.00    -0.413 C  
BRANCH  24  26
HETATM   26  C   UNL     1      -9.023   8.281  70.637  1.00  0.00    -0.161 C  
BRANCH  26  27
HETATM   27  C   UNL     1      -9.423   6.808  70.727  1.00  0.00    -0.167 C  
HETATM   28  C   UNL     1     -10.930   6.665  70.896  1.00  0.00    -0.315 C  
ENDBRANCH  26  27
ENDBRANCH  24  26
ENDBRANCH  20  21
ENDBRANCH  18  20
ENDBRANCH  13  18
ENDBRANCH  12  13
ENDBRANCH  10  12
ENDBRANCH   9  10
ENDBRANCH   7   9
ENDBRANCH   3   4
ENDBRANCH   2   3
TORSDOF 11
ENDMDL
MODEL       44
REMARK 921   NORMALIZED FREE ENERGY PREDICTED BY IDOCK:   -5.06 KCAL/MOL
REMARK 922        TOTAL FREE ENERGY PREDICTED BY IDOCK:  -10.56 KCAL/MOL
REMARK 923 INTER-LIGAND FREE ENERGY PREDICTED BY IDOCK:   -8.55 KCAL/MOL
REMARK 924 INTRA-LIGAND FREE ENERGY PREDICTED BY IDOCK:   -2.01 KCAL/MOL
REMARK 927      BINDING AFFINITY PREDICTED BY RF-SCORE:    0.00 PKD
ROOT
HETATM    1  C   UNL     1      -8.962   5.832  69.793  1.00  0.00    -0.137 C  
HETATM    2  C   UNL     1     -10.440   5.479  69.892  1.00  0.00    -0.386 C  
ENDROOT
BRANCH   2   3
HETATM    3  C   UNL     1     -11.286   6.414  69.029  1.00  0.00    -0.402 C  
BRANCH   3   4
HETATM    4  C   UNL     1     -10.457   7.108  67.941  1.00  0.00    -0.268 C  
HETATM    5  C   UNL     1     -10.785   8.609  67.783  1.00  0.00    -0.178 C  
HETATM    6  C   UNL     1     -10.655   9.430  69.087  1.00  0.00    -0.234 C  
HETATM    7  C   UNL     1      -9.950   9.221  66.638  1.00  0.00    -0.264 C  
HETATM    8  C   UNL     1      -9.236   9.564  69.619  1.00  0.00    -0.212 C  
BRANCH   7   9
HETATM    9  O   UNL     1     -10.258  10.623  66.536  1.00  0.00    -0.219 OA 
BRANCH   9  10
HETATM   10  C   UNL     1      -9.190  11.462  66.486  1.00  0.00    -0.189 C  
HETATM   11  O   UNL     1      -8.028  11.109  66.345  1.00  0.00    -0.159 OA 
BRANCH  10  12
HETATM   12  C   UNL     1      -9.630  12.900  66.427  1.00  0.00    -0.252 C  
BRANCH  12  13
HETATM   13  C   UNL     1     -11.146  13.083  66.431  1.00  0.00    -0.287 C  
HETATM   14  O   UNL     1     -10.937  15.094  64.716  1.00  0.00    -0.399 OA 
HETATM   15  S   UNL     1     -11.705  13.900  64.968  1.00  0.00    -0.380 S  
HETATM   16  O   UNL     1     -11.223  12.784  63.902  1.00  0.00    -0.386 OA 
HETATM   17  O   UNL     1     -13.148  13.871  64.895  1.00  0.00    -0.704 OA 
BRANCH  13  18
HETATM   18  C   UNL     1     -11.570  13.908  67.604  1.00  0.00    -0.348 C  
HETATM   19  O   UNL     1     -12.052  15.030  67.516  1.00  0.00    -0.186 OA 
BRANCH  18  20
HETATM   20  O   UNL     1     -11.180  13.323  68.771  1.00  0.00    -0.248 OA 
BRANCH  20  21
HETATM   21  C   UNL     1     -12.169  12.479  69.388  1.00  0.00    -0.062 C  
HETATM   22  C   UNL     1     -12.225  12.578  70.923  1.00  0.00    -0.277 C  
HETATM   23  C   UNL     1     -12.454  14.025  71.412  1.00  0.00    -0.438 C  
HETATM   24  C   UNL     1     -13.277  11.612  71.516  1.00  0.00    -0.301 C  
HETATM   25  C   UNL     1     -13.792  14.639  71.022  1.00  0.00    -0.232 C  
BRANCH  24  26
HETATM   26  C   UNL     1     -13.031  10.141  71.167  1.00  0.00    -0.488 C  
BRANCH  26  27
HETATM   27  C   UNL     1     -13.058   9.255  72.412  1.00  0.00    -0.481 C  
HETATM   28  C   UNL     1     -11.979   8.183  72.340  1.00  0.00    -0.431 C  
ENDBRANCH  26  27
ENDBRANCH  24  26
ENDBRANCH  20  21
ENDBRANCH  18  20
ENDBRANCH  13  18
ENDBRANCH  12  13
ENDBRANCH  10  12
ENDBRANCH   9  10
ENDBRANCH   7   9
ENDBRANCH   3   4
ENDBRANCH   2   3
TORSDOF 11
ENDMDL
MODEL       45
REMARK 921   NORMALIZED FREE ENERGY PREDICTED BY IDOCK:   -5.04 KCAL/MOL
REMARK 922        TOTAL FREE ENERGY PREDICTED BY IDOCK:  -10.53 KCAL/MOL
REMARK 923 INTER-LIGAND FREE ENERGY PREDICTED BY IDOCK:   -9.02 KCAL/MOL
REMARK 924 INTRA-LIGAND FREE ENERGY PREDICTED BY IDOCK:   -1.51 KCAL/MOL
REMARK 927      BINDING AFFINITY PREDICTED BY RF-SCORE:    0.00 PKD
ROOT
HETATM    1  C   UNL     1     -11.550   4.665  73.211  1.00  0.00    -0.274 C  
HETATM    2  C   UNL     1     -11.310   6.080  72.702  1.00  0.00    -0.320 C  
ENDROOT
BRANCH   2   3
HETATM    3  C   UNL     1     -10.648   6.061  71.324  1.00  0.00    -0.302 C  
BRANCH   3   4
HETATM    4  C   UNL     1     -11.168   7.184  70.417  1.00  0.00    -0.320 C  
HETATM    5  C   UNL     1     -11.116   8.579  71.077  1.00  0.00    -0.306 C  
HETATM    6  C   UNL     1      -9.718   8.987  71.598  1.00  0.00    -0.347 C  
HETATM    7  C   UNL     1     -11.703   9.643  70.125  1.00  0.00    -0.089 C  
HETATM    8  C   UNL     1      -8.674   9.211  70.514  1.00  0.00    -0.258 C  
BRANCH   7   9
HETATM    9  O   UNL     1     -11.614  10.933  70.757  1.00  0.00    -0.312 OA 
BRANCH   9  10
HETATM   10  C   UNL     1     -12.766  11.406  71.302  1.00  0.00    -0.393 C  
HETATM   11  O   UNL     1     -13.331  10.925  72.273  1.00  0.00    -0.380 OA 
BRANCH  10  12
HETATM   12  C   UNL     1     -13.159  12.722  70.685  1.00  0.00     0.248 C  
BRANCH  12  13
HETATM   13  C   UNL     1     -12.234  13.878  71.052  1.00  0.00    -0.342 C  
HETATM   14  O   UNL     1     -14.293  15.546  71.114  1.00  0.00    -0.516 OA 
HETATM   15  S   UNL     1     -13.112  15.182  71.857  1.00  0.00    -0.407 S  
HETATM   16  O   UNL     1     -13.596  14.346  73.153  1.00  0.00    -0.602 OA 
HETATM   17  O   UNL     1     -12.189  16.162  72.382  1.00  0.00    -0.469 OA 
BRANCH  13  18
HETATM   18  C   UNL     1     -11.595  14.448  69.826  1.00  0.00    -0.298 C  
HETATM   19  O   UNL     1     -10.917  15.466  69.814  1.00  0.00    -0.246 OA 
BRANCH  18  20
HETATM   20  O   UNL     1     -12.022  13.791  68.710  1.00  0.00    -0.346 OA 
BRANCH  20  21
HETATM   21  C   UNL     1     -10.989  13.122  67.967  1.00  0.00    -0.247 C  
HETATM   22  C   UNL     1     -11.461  12.489  66.645  1.00  0.00    -0.417 C  
HETATM   23  C   UNL     1     -12.138  13.515  65.710  1.00  0.00    -0.473 C  
HETATM   24  C   UNL     1     -10.308  11.751  65.925  1.00  0.00    -0.280 C  
HETATM   25  C   UNL     1     -11.233  14.631  65.204  1.00  0.00    -0.374 C  
BRANCH  24  26
HETATM   26  C   UNL     1      -9.674  10.634  66.760  1.00  0.00    -0.222 C  
BRANCH  26  27
HETATM   27  C   UNL     1      -9.817   9.273  66.078  1.00  0.00    -0.363 C  
HETATM   28  C   UNL     1     -10.177   8.193  67.090  1.00  0.00    -0.366 C  
ENDBRANCH  26  27
ENDBRANCH  24  26
ENDBRANCH  20  21
ENDBRANCH  18  20
ENDBRANCH  13  18
ENDBRANCH  12  13
ENDBRANCH  10  12
ENDBRANCH   9  10
ENDBRANCH   7   9
ENDBRANCH   3   4
ENDBRANCH   2   3
TORSDOF 11
ENDMDL
MODEL       46
REMARK 921   NORMALIZED FREE ENERGY PREDICTED BY IDOCK:   -5.03 KCAL/MOL
REMARK 922        TOTAL FREE ENERGY PREDICTED BY IDOCK:  -10.52 KCAL/MOL
REMARK 923 INTER-LIGAND FREE ENERGY PREDICTED BY IDOCK:   -9.42 KCAL/MOL
REMARK 924 INTRA-LIGAND FREE ENERGY PREDICTED BY IDOCK:   -1.09 KCAL/MOL
REMARK 927      BINDING AFFINITY PREDICTED BY RF-SCORE:    0.00 PKD
ROOT
HETATM    1  C   UNL     1     -11.107   4.759  73.309  1.00  0.00    -0.411 C  
HETATM    2  C   UNL     1     -11.351   6.054  72.547  1.00  0.00    -0.344 C  
ENDROOT
BRANCH   2   3
HETATM    3  C   UNL     1     -10.771   5.977  71.135  1.00  0.00    -0.323 C  
BRANCH   3   4
HETATM    4  C   UNL     1     -11.196   7.169  70.268  1.00  0.00    -0.309 C  
HETATM    5  C   UNL     1     -11.117   8.523  71.006  1.00  0.00    -0.306 C  
HETATM    6  C   UNL     1      -9.730   8.837  71.614  1.00  0.00    -0.366 C  
HETATM    7  C   UNL     1     -11.609   9.662  70.087  1.00  0.00    -0.141 C  
HETATM    8  C   UNL     1      -8.624   9.071  70.595  1.00  0.00    -0.245 C  
BRANCH   7   9
HETATM    9  O   UNL     1     -11.496  10.911  70.794  1.00  0.00    -0.268 OA 
BRANCH   9  10
HETATM   10  C   UNL     1     -12.667  11.468  71.201  1.00  0.00    -0.356 C  
HETATM   11  O   UNL     1     -13.362  11.051  72.116  1.00  0.00    -0.451 OA 
BRANCH  10  12
HETATM   12  C   UNL     1     -12.907  12.788  70.517  1.00  0.00     0.057 C  
BRANCH  12  13
HETATM   13  C   UNL     1     -12.175  13.961  71.162  1.00  0.00    -0.308 C  
HETATM   14  O   UNL     1     -14.361  15.452  71.001  1.00  0.00    -0.447 OA 
HETATM   15  S   UNL     1     -13.302  15.096  71.911  1.00  0.00    -0.444 S  
HETATM   16  O   UNL     1     -13.927  14.085  73.007  1.00  0.00    -0.499 OA 
HETATM   17  O   UNL     1     -12.584  16.077  72.693  1.00  0.00    -0.435 OA 
BRANCH  13  18
HETATM   18  C   UNL     1     -11.386  14.713  70.138  1.00  0.00    -0.225 C  
HETATM   19  O   UNL     1     -10.526  15.542  70.405  1.00  0.00    -0.313 OA 
BRANCH  18  20
HETATM   20  O   UNL     1     -11.879  14.487  68.887  1.00  0.00    -0.310 OA 
BRANCH  20  21
HETATM   21  C   UNL     1     -11.528  15.480  67.908  1.00  0.00    -0.272 C  
HETATM   22  C   UNL     1     -10.623  14.966  66.773  1.00  0.00    -0.305 C  
HETATM   23  C   UNL     1     -11.236  13.755  66.034  1.00  0.00    -0.307 C  
HETATM   24  C   UNL     1     -10.253  16.097  65.785  1.00  0.00    -0.397 C  
HETATM   25  C   UNL     1     -12.529  14.039  65.282  1.00  0.00    -0.495 C  
BRANCH  24  26
HETATM   26  C   UNL     1      -9.528  17.276  66.441  1.00  0.00    -0.282 C  
BRANCH  26  27
HETATM   27  C   UNL     1     -10.085  18.616  65.960  1.00  0.00    -0.326 C  
HETATM   28  C   UNL     1     -10.781  19.354  67.096  1.00  0.00    -0.593 C  
ENDBRANCH  26  27
ENDBRANCH  24  26
ENDBRANCH  20  21
ENDBRANCH  18  20
ENDBRANCH  13  18
ENDBRANCH  12  13
ENDBRANCH  10  12
ENDBRANCH   9  10
ENDBRANCH   7   9
ENDBRANCH   3   4
ENDBRANCH   2   3
TORSDOF 11
ENDMDL
MODEL       47
REMARK 921   NORMALIZED FREE ENERGY PREDICTED BY IDOCK:   -5.01 KCAL/MOL
REMARK 922        TOTAL FREE ENERGY PREDICTED BY IDOCK:  -10.48 KCAL/MOL
REMARK 923 INTER-LIGAND FREE ENERGY PREDICTED BY IDOCK:   -8.63 KCAL/MOL
REMARK 924 INTRA-LIGAND FREE ENERGY PREDICTED BY IDOCK:   -1.85 KCAL/MOL
REMARK 927      BINDING AFFINITY PREDICTED BY RF-SCORE:    0.00 PKD
ROOT
HETATM    1  C   UNL     1     -13.824  13.579  72.384  1.00  0.00    -0.687 C  
HETATM    2  C   UNL     1     -14.015  15.042  72.011  1.00  0.00    -0.605 C  
ENDROOT
BRANCH   2   3
HETATM    3  C   UNL     1     -13.110  15.433  70.843  1.00  0.00    -0.528 C  
BRANCH   3   4
HETATM    4  C   UNL     1     -12.283  14.248  70.329  1.00  0.00    -0.407 C  
HETATM    5  C   UNL     1     -11.841  14.401  68.857  1.00  0.00    -0.355 C  
HETATM    6  C   UNL     1     -11.060  15.701  68.558  1.00  0.00    -0.322 C  
HETATM    7  C   UNL     1     -11.063  13.149  68.399  1.00  0.00    -0.268 C  
HETATM    8  C   UNL     1      -9.690  15.788  69.215  1.00  0.00    -0.263 C  
BRANCH   7   9
HETATM    9  O   UNL     1     -10.642  13.336  67.035  1.00  0.00    -0.257 OA 
BRANCH   9  10
HETATM   10  C   UNL     1     -11.021  12.367  66.161  1.00  0.00    -0.286 C  
HETATM   11  O   UNL     1     -12.155  12.216  65.729  1.00  0.00    -0.572 OA 
BRANCH  10  12
HETATM   12  C   UNL     1      -9.828  11.617  65.630  1.00  0.00    -0.270 C  
BRANCH  12  13
HETATM   13  C   UNL     1      -9.203  10.657  66.638  1.00  0.00    -0.164 C  
HETATM   14  O   UNL     1      -6.914  10.697  65.301  1.00  0.00    -0.090 OA 
HETATM   15  S   UNL     1      -7.441  10.776  66.641  1.00  0.00    -0.140 S  
HETATM   16  O   UNL     1      -7.331  12.319  67.111  1.00  0.00    -0.148 OA 
HETATM   17  O   UNL     1      -6.886  10.021  67.742  1.00  0.00    -0.074 OA 
BRANCH  13  18
HETATM   18  C   UNL     1      -9.563   9.243  66.309  1.00  0.00    -0.248 C  
HETATM   19  O   UNL     1      -9.265   8.685  65.261  1.00  0.00    -0.117 OA 
BRANCH  18  20
HETATM   20  O   UNL     1     -10.416   8.733  67.242  1.00  0.00    -0.270 OA 
BRANCH  20  21
HETATM   21  C   UNL     1     -10.479   9.470  68.475  1.00  0.00    -0.217 C  
HETATM   22  C   UNL     1     -10.775   8.612  69.718  1.00  0.00    -0.215 C  
HETATM   23  C   UNL     1      -9.759   7.462  69.895  1.00  0.00    -0.171 C  
HETATM   24  C   UNL     1     -10.872   9.477  70.996  1.00  0.00    -0.423 C  
HETATM   25  C   UNL     1      -8.325   7.898  70.166  1.00  0.00    -0.127 C  
BRANCH  24  26
HETATM   26  C   UNL     1     -11.952  10.561  70.927  1.00  0.00    -0.481 C  
BRANCH  26  27
HETATM   27  C   UNL     1     -13.284  10.063  71.490  1.00  0.00    -0.497 C  
HETATM   28  C   UNL     1     -13.066   8.919  72.471  1.00  0.00    -0.426 C  
ENDBRANCH  26  27
ENDBRANCH  24  26
ENDBRANCH  20  21
ENDBRANCH  18  20
ENDBRANCH  13  18
ENDBRANCH  12  13
ENDBRANCH  10  12
ENDBRANCH   9  10
ENDBRANCH   7   9
ENDBRANCH   3   4
ENDBRANCH   2   3
TORSDOF 11
ENDMDL
MODEL       48
REMARK 921   NORMALIZED FREE ENERGY PREDICTED BY IDOCK:   -5.01 KCAL/MOL
REMARK 922        TOTAL FREE ENERGY PREDICTED BY IDOCK:  -10.47 KCAL/MOL
REMARK 923 INTER-LIGAND FREE ENERGY PREDICTED BY IDOCK:   -9.19 KCAL/MOL
REMARK 924 INTRA-LIGAND FREE ENERGY PREDICTED BY IDOCK:   -1.28 KCAL/MOL
REMARK 927      BINDING AFFINITY PREDICTED BY RF-SCORE:    0.00 PKD
ROOT
HETATM    1  C   UNL     1      -6.214   7.637  70.792  1.00  0.00    -0.034 C  
HETATM    2  C   UNL     1      -7.194   8.735  71.178  1.00  0.00    -0.097 C  
ENDROOT
BRANCH   2   3
HETATM    3  C   UNL     1      -8.479   8.145  71.758  1.00  0.00    -0.186 C  
BRANCH   3   4
HETATM    4  C   UNL     1      -9.716   8.972  71.387  1.00  0.00    -0.369 C  
HETATM    5  C   UNL     1      -9.860   9.212  69.868  1.00  0.00    -0.206 C  
HETATM    6  C   UNL     1      -9.869   7.922  69.016  1.00  0.00    -0.171 C  
HETATM    7  C   UNL     1     -11.095  10.094  69.581  1.00  0.00    -0.263 C  
HETATM    8  C   UNL     1     -11.085   7.030  69.220  1.00  0.00    -0.166 C  
BRANCH   7   9
HETATM    9  O   UNL     1     -11.216  10.275  68.158  1.00  0.00    -0.278 OA 
BRANCH   9  10
HETATM   10  C   UNL     1     -11.699  11.479  67.754  1.00  0.00    -0.227 C  
HETATM   11  O   UNL     1     -12.289  12.275  68.470  1.00  0.00    -0.149 OA 
BRANCH  10  12
HETATM   12  C   UNL     1     -11.243  11.806  66.356  1.00  0.00    -0.382 C  
BRANCH  12  13
HETATM   13  C   UNL     1     -11.695  13.178  65.864  1.00  0.00    -0.384 C  
HETATM   14  O   UNL     1     -11.092  12.515  63.370  1.00  0.00    -0.459 OA 
HETATM   15  S   UNL     1     -12.126  13.144  64.152  1.00  0.00    -0.435 S  
HETATM   16  O   UNL     1     -13.352  12.096  64.261  1.00  0.00    -0.761 OA 
HETATM   17  O   UNL     1     -12.748  14.389  63.764  1.00  0.00    -0.785 OA 
BRANCH  13  18
HETATM   18  C   UNL     1     -10.601  14.183  66.038  1.00  0.00    -0.297 C  
HETATM   19  O   UNL     1      -9.415  13.898  66.135  1.00  0.00    -0.255 OA 
BRANCH  18  20
HETATM   20  O   UNL     1     -11.118  15.425  66.257  1.00  0.00    -0.311 OA 
BRANCH  20  21
HETATM   21  C   UNL     1     -10.303  16.287  67.072  1.00  0.00    -0.292 C  
HETATM   22  C   UNL     1     -11.049  16.952  68.242  1.00  0.00    -0.213 C  
HETATM   23  C   UNL     1     -11.733  15.921  69.167  1.00  0.00    -0.369 C  
HETATM   24  C   UNL     1     -10.122  17.896  69.044  1.00  0.00    -0.292 C  
HETATM   25  C   UNL     1     -10.788  14.983  69.906  1.00  0.00    -0.266 C  
BRANCH  24  26
HETATM   26  C   UNL     1      -9.508  19.019  68.203  1.00  0.00    -0.387 C  
BRANCH  26  27
HETATM   27  C   UNL     1     -10.583  19.837  67.486  1.00  0.00    -0.544 C  
HETATM   28  C   UNL     1     -10.403  19.765  65.976  1.00  0.00    -0.612 C  
ENDBRANCH  26  27
ENDBRANCH  24  26
ENDBRANCH  20  21
ENDBRANCH  18  20
ENDBRANCH  13  18
ENDBRANCH  12  13
ENDBRANCH  10  12
ENDBRANCH   9  10
ENDBRANCH   7   9
ENDBRANCH   3   4
ENDBRANCH   2   3
TORSDOF 11
ENDMDL
MODEL       49
REMARK 921   NORMALIZED FREE ENERGY PREDICTED BY IDOCK:   -4.98 KCAL/MOL
REMARK 922        TOTAL FREE ENERGY PREDICTED BY IDOCK:  -10.43 KCAL/MOL
REMARK 923 INTER-LIGAND FREE ENERGY PREDICTED BY IDOCK:   -8.14 KCAL/MOL
REMARK 924 INTRA-LIGAND FREE ENERGY PREDICTED BY IDOCK:   -2.29 KCAL/MOL
REMARK 927      BINDING AFFINITY PREDICTED BY RF-SCORE:    0.00 PKD
ROOT
HETATM    1  C   UNL     1      -9.466  11.110  63.001  1.00  0.00    -0.386 C  
HETATM    2  C   UNL     1     -10.323  12.101  63.775  1.00  0.00    -0.465 C  
ENDROOT
BRANCH   2   3
HETATM    3  C   UNL     1     -10.851  11.478  65.067  1.00  0.00    -0.336 C  
BRANCH   3   4
HETATM    4  C   UNL     1      -9.795  11.467  66.179  1.00  0.00    -0.250 C  
HETATM    5  C   UNL     1      -9.806  10.174  67.023  1.00  0.00    -0.238 C  
HETATM    6  C   UNL     1      -9.654   8.874  66.200  1.00  0.00    -0.335 C  
HETATM    7  C   UNL     1      -8.755  10.263  68.150  1.00  0.00    -0.123 C  
HETATM    8  C   UNL     1      -8.298   8.696  65.532  1.00  0.00    -0.157 C  
BRANCH   7   9
HETATM    9  O   UNL     1      -8.771   9.033  68.899  1.00  0.00    -0.133 OA 
BRANCH   9  10
HETATM   10  C   UNL     1      -9.330   9.101  70.136  1.00  0.00    -0.209 C  
HETATM   11  O   UNL     1      -8.727   9.377  71.163  1.00  0.00    -0.284 OA 
BRANCH  10  12
HETATM   12  C   UNL     1     -10.830   8.990  70.062  1.00  0.00    -0.247 C  
BRANCH  12  13
HETATM   13  C   UNL     1     -11.568  10.092  70.817  1.00  0.00    -0.360 C  
HETATM   14  O   UNL     1     -13.784   8.637  70.831  1.00  0.00     0.039 OA 
HETATM   15  S   UNL     1     -12.966   9.455  71.690  1.00  0.00    -0.419 S  
HETATM   16  O   UNL     1     -12.164   8.461  72.682  1.00  0.00    -0.380 OA 
HETATM   17  O   UNL     1     -13.519  10.467  72.562  1.00  0.00    -0.157 OA 
BRANCH  13  18
HETATM   18  C   UNL     1     -12.062  11.137  69.868  1.00  0.00    -0.344 C  
HETATM   19  O   UNL     1     -12.427  10.908  68.723  1.00  0.00    -0.431 OA 
BRANCH  18  20
HETATM   20  O   UNL     1     -11.874  12.385  70.385  1.00  0.00    -0.299 OA 
BRANCH  20  21
HETATM   21  C   UNL     1     -11.290  13.336  69.478  1.00  0.00    -0.170 C  
HETATM   22  C   UNL     1     -12.157  14.580  69.212  1.00  0.00    -0.325 C  
HETATM   23  C   UNL     1     -12.535  15.323  70.512  1.00  0.00    -0.454 C  
HETATM   24  C   UNL     1     -11.485  15.533  68.196  1.00  0.00    -0.332 C  
HETATM   25  C   UNL     1     -11.367  15.929  71.278  1.00  0.00    -0.425 C  
BRANCH  24  26
HETATM   26  C   UNL     1     -11.197  14.885  66.839  1.00  0.00    -0.343 C  
BRANCH  26  27
HETATM   27  C   UNL     1      -9.874  15.376  66.251  1.00  0.00    -0.320 C  
HETATM   28  C   UNL     1      -8.691  14.784  67.005  1.00  0.00    -0.258 C  
ENDBRANCH  26  27
ENDBRANCH  24  26
ENDBRANCH  20  21
ENDBRANCH  18  20
ENDBRANCH  13  18
ENDBRANCH  12  13
ENDBRANCH  10  12
ENDBRANCH   9  10
ENDBRANCH   7   9
ENDBRANCH   3   4
ENDBRANCH   2   3
TORSDOF 11
ENDMDL
MODEL       50
REMARK 921   NORMALIZED FREE ENERGY PREDICTED BY IDOCK:   -4.97 KCAL/MOL
REMARK 922        TOTAL FREE ENERGY PREDICTED BY IDOCK:  -10.41 KCAL/MOL
REMARK 923 INTER-LIGAND FREE ENERGY PREDICTED BY IDOCK:   -7.97 KCAL/MOL
REMARK 924 INTRA-LIGAND FREE ENERGY PREDICTED BY IDOCK:   -2.44 KCAL/MOL
REMARK 927      BINDING AFFINITY PREDICTED BY RF-SCORE:    0.00 PKD
ROOT
HETATM    1  C   UNL     1     -12.095  11.998  63.546  1.00  0.00    -0.628 C  
HETATM    2  C   UNL     1     -10.801  12.673  63.980  1.00  0.00    -0.452 C  
ENDROOT
BRANCH   2   3
HETATM    3  C   UNL     1     -10.906  13.190  65.414  1.00  0.00    -0.299 C  
BRANCH   3   4
HETATM    4  C   UNL     1     -11.699  12.237  66.317  1.00  0.00    -0.431 C  
HETATM    5  C   UNL     1     -11.068  12.047  67.714  1.00  0.00    -0.303 C  
HETATM    6  C   UNL     1     -10.831  13.363  68.490  1.00  0.00    -0.285 C  
HETATM    7  C   UNL     1     -11.892  11.036  68.540  1.00  0.00    -0.216 C  
HETATM    8  C   UNL     1     -12.099  14.091  68.913  1.00  0.00    -0.351 C  
BRANCH   7   9
HETATM    9  O   UNL     1     -11.295  10.904  69.843  1.00  0.00    -0.268 OA 
BRANCH   9  10
HETATM   10  C   UNL     1     -12.065  10.304  70.789  1.00  0.00    -0.353 C  
HETATM   11  O   UNL     1     -13.284  10.370  70.845  1.00  0.00    -0.377 OA 
BRANCH  10  12
HETATM   12  C   UNL     1     -11.246   9.380  71.650  1.00  0.00    -0.431 C  
BRANCH  12  13
HETATM   13  C   UNL     1     -10.600   8.230  70.882  1.00  0.00    -0.207 C  
HETATM   14  O   UNL     1     -10.703   6.691  73.038  1.00  0.00    -0.238 OA 
HETATM   15  S   UNL     1     -10.966   6.669  71.621  1.00  0.00    -0.251 S  
HETATM   16  O   UNL     1     -12.571   6.712  71.428  1.00  0.00    -0.325 OA 
HETATM   17  O   UNL     1     -10.527   5.590  70.764  1.00  0.00    -0.240 OA 
BRANCH  13  18
HETATM   18  C   UNL     1      -9.112   8.385  70.860  1.00  0.00    -0.160 C  
HETATM   19  O   UNL     1      -8.472   8.995  71.706  1.00  0.00    -0.351 OA 
BRANCH  18  20
HETATM   20  O   UNL     1      -8.596   7.921  69.687  1.00  0.00    -0.131 OA 
BRANCH  20  21
HETATM   21  C   UNL     1      -9.036   8.622  68.510  1.00  0.00    -0.139 C  
HETATM   22  C   UNL     1      -8.814   7.858  67.192  1.00  0.00    -0.137 C  
HETATM   23  C   UNL     1      -9.481   6.464  67.200  1.00  0.00    -0.145 C  
HETATM   24  C   UNL     1      -9.270   8.690  65.970  1.00  0.00    -0.276 C  
HETATM   25  C   UNL     1     -11.001   6.471  67.292  1.00  0.00    -0.475 C  
BRANCH  24  26
HETATM   26  C   UNL     1      -8.551  10.036  65.838  1.00  0.00    -0.150 C  
BRANCH  26  27
HETATM   27  C   UNL     1      -8.095  10.292  64.401  1.00  0.00    -0.149 C  
HETATM   28  C   UNL     1      -8.967   9.531  63.411  1.00  0.00    -0.205 C  
ENDBRANCH  26  27
ENDBRANCH  24  26
ENDBRANCH  20  21
ENDBRANCH  18  20
ENDBRANCH  13  18
ENDBRANCH  12  13
ENDBRANCH  10  12
ENDBRANCH   9  10
ENDBRANCH   7   9
ENDBRANCH   3   4
ENDBRANCH   2   3
TORSDOF 11
ENDMDL
MODEL       51
REMARK 921   NORMALIZED FREE ENERGY PREDICTED BY IDOCK:   -4.96 KCAL/MOL
REMARK 922        TOTAL FREE ENERGY PREDICTED BY IDOCK:  -10.40 KCAL/MOL
REMARK 923 INTER-LIGAND FREE ENERGY PREDICTED BY IDOCK:   -9.76 KCAL/MOL
REMARK 924 INTRA-LIGAND FREE ENERGY PREDICTED BY IDOCK:   -0.64 KCAL/MOL
REMARK 927      BINDING AFFINITY PREDICTED BY RF-SCORE:    0.00 PKD
ROOT
HETATM    1  C   UNL     1      -6.058  20.590  65.203  1.00  0.00    -0.289 C  
HETATM    2  C   UNL     1      -5.343  20.233  66.499  1.00  0.00    -0.187 C  
ENDROOT
BRANCH   2   3
HETATM    3  C   UNL     1      -6.266  19.459  67.440  1.00  0.00    -0.201 C  
BRANCH   3   4
HETATM    4  C   UNL     1      -7.342  18.674  66.679  1.00  0.00    -0.249 C  
HETATM    5  C   UNL     1      -8.551  18.282  67.557  1.00  0.00    -0.253 C  
HETATM    6  C   UNL     1      -9.234  19.473  68.268  1.00  0.00    -0.412 C  
HETATM    7  C   UNL     1      -9.560  17.451  66.737  1.00  0.00    -0.277 C  
HETATM    8  C   UNL     1      -9.937  20.453  67.340  1.00  0.00    -0.556 C  
BRANCH   7   9
HETATM    9  O   UNL     1     -10.685  17.127  67.574  1.00  0.00    -0.342 OA 
BRANCH   9  10
HETATM   10  C   UNL     1     -10.688  15.876  68.103  1.00  0.00    -0.302 C  
HETATM   11  O   UNL     1     -10.161  15.560  69.160  1.00  0.00    -0.212 OA 
BRANCH  10  12
HETATM   12  C   UNL     1     -11.595  14.959  67.326  1.00  0.00    -0.337 C  
BRANCH  12  13
HETATM   13  C   UNL     1     -10.853  13.914  66.497  1.00  0.00    -0.295 C  
HETATM   14  O   UNL     1     -12.600  14.196  64.524  1.00  0.00    -0.643 OA 
HETATM   15  S   UNL     1     -11.184  14.099  64.772  1.00  0.00    -0.378 S  
HETATM   16  O   UNL     1     -10.561  15.581  64.594  1.00  0.00    -0.365 OA 
HETATM   17  O   UNL     1     -10.313  13.245  63.997  1.00  0.00    -0.354 OA 
BRANCH  13  18
HETATM   18  C   UNL     1     -11.274  12.535  66.895  1.00  0.00    -0.303 C  
HETATM   19  O   UNL     1     -12.279  11.976  66.478  1.00  0.00    -0.548 OA 
BRANCH  18  20
HETATM   20  O   UNL     1     -10.495  12.068  67.912  1.00  0.00    -0.193 OA 
BRANCH  20  21
HETATM   21  C   UNL     1     -10.929  12.443  69.231  1.00  0.00    -0.087 C  
HETATM   22  C   UNL     1     -12.104  11.612  69.777  1.00  0.00    -0.357 C  
HETATM   23  C   UNL     1     -11.801  10.097  69.783  1.00  0.00    -0.158 C  
HETATM   24  C   UNL     1     -12.543  12.101  71.177  1.00  0.00    -0.360 C  
HETATM   25  C   UNL     1     -10.670   9.664  70.707  1.00  0.00    -0.401 C  
BRANCH  24  26
HETATM   26  C   UNL     1     -12.976  13.570  71.210  1.00  0.00    -0.384 C  
BRANCH  26  27
HETATM   27  C   UNL     1     -13.634  13.933  72.541  1.00  0.00    -0.680 C  
HETATM   28  C   UNL     1     -13.758  15.444  72.691  1.00  0.00    -0.640 C  
ENDBRANCH  26  27
ENDBRANCH  24  26
ENDBRANCH  20  21
ENDBRANCH  18  20
ENDBRANCH  13  18
ENDBRANCH  12  13
ENDBRANCH  10  12
ENDBRANCH   9  10
ENDBRANCH   7   9
ENDBRANCH   3   4
ENDBRANCH   2   3
TORSDOF 11
ENDMDL
MODEL       52
REMARK 921   NORMALIZED FREE ENERGY PREDICTED BY IDOCK:   -4.93 KCAL/MOL
REMARK 922        TOTAL FREE ENERGY PREDICTED BY IDOCK:  -10.34 KCAL/MOL
REMARK 923 INTER-LIGAND FREE ENERGY PREDICTED BY IDOCK:   -8.78 KCAL/MOL
REMARK 924 INTRA-LIGAND FREE ENERGY PREDICTED BY IDOCK:   -1.56 KCAL/MOL
REMARK 927      BINDING AFFINITY PREDICTED BY RF-SCORE:    0.00 PKD
ROOT
HETATM    1  C   UNL     1     -10.755  19.761  65.713  1.00  0.00    -0.474 C  
HETATM    2  C   UNL     1     -10.513  19.944  67.205  1.00  0.00    -0.566 C  
ENDROOT
BRANCH   2   3
HETATM    3  C   UNL     1      -9.034  19.767  67.546  1.00  0.00    -0.401 C  
BRANCH   3   4
HETATM    4  C   UNL     1      -8.741  18.391  68.156  1.00  0.00    -0.318 C  
HETATM    5  C   UNL     1      -8.615  17.268  67.104  1.00  0.00    -0.222 C  
HETATM    6  C   UNL     1      -7.566  17.541  66.002  1.00  0.00    -0.256 C  
HETATM    7  C   UNL     1      -8.374  15.910  67.798  1.00  0.00    -0.150 C  
HETATM    8  C   UNL     1      -6.123  17.560  66.485  1.00  0.00    -0.248 C  
BRANCH   7   9
HETATM    9  O   UNL     1      -8.234  14.892  66.791  1.00  0.00    -0.191 OA 
BRANCH   9  10
HETATM   10  C   UNL     1      -8.898  13.730  67.027  1.00  0.00    -0.218 C  
HETATM   11  O   UNL     1      -8.420  12.747  67.575  1.00  0.00    -0.159 OA 
BRANCH  10  12
HETATM   12  C   UNL     1     -10.364  13.868  66.709  1.00  0.00    -0.272 C  
BRANCH  12  13
HETATM   13  C   UNL     1     -10.764  13.264  65.366  1.00  0.00    -0.297 C  
HETATM   14  O   UNL     1     -13.259  14.092  65.704  1.00  0.00    -0.634 OA 
HETATM   15  S   UNL     1     -12.213  14.034  64.714  1.00  0.00    -0.426 S  
HETATM   16  O   UNL     1     -11.611  15.527  64.561  1.00  0.00    -0.399 OA 
HETATM   17  O   UNL     1     -12.448  13.598  63.356  1.00  0.00    -0.784 OA 
BRANCH  13  18
HETATM   18  C   UNL     1     -11.052  11.803  65.513  1.00  0.00    -0.280 C  
HETATM   19  O   UNL     1     -10.866  10.974  64.633  1.00  0.00    -0.296 OA 
BRANCH  18  20
HETATM   20  O   UNL     1     -11.714  11.558  66.679  1.00  0.00    -0.486 OA 
BRANCH  20  21
HETATM   21  C   UNL     1     -11.274  10.389  67.393  1.00  0.00    -0.129 C  
HETATM   22  C   UNL     1     -10.578  10.685  68.734  1.00  0.00    -0.234 C  
HETATM   23  C   UNL     1     -11.461  11.526  69.683  1.00  0.00    -0.373 C  
HETATM   24  C   UNL     1     -10.094   9.387  69.421  1.00  0.00    -0.204 C  
HETATM   25  C   UNL     1     -12.741  10.846  70.152  1.00  0.00    -0.227 C  
BRANCH  24  26
HETATM   26  C   UNL     1      -9.114   8.569  68.575  1.00  0.00    -0.135 C  
BRANCH  26  27
HETATM   27  C   UNL     1      -9.594   7.129  68.392  1.00  0.00    -0.137 C  
HETATM   28  C   UNL     1     -10.889   6.887  69.157  1.00  0.00    -0.262 C  
ENDBRANCH  26  27
ENDBRANCH  24  26
ENDBRANCH  20  21
ENDBRANCH  18  20
ENDBRANCH  13  18
ENDBRANCH  12  13
ENDBRANCH  10  12
ENDBRANCH   9  10
ENDBRANCH   7   9
ENDBRANCH   3   4
ENDBRANCH   2   3
TORSDOF 11
ENDMDL
MODEL       53
REMARK 921   NORMALIZED FREE ENERGY PREDICTED BY IDOCK:   -4.92 KCAL/MOL
REMARK 922        TOTAL FREE ENERGY PREDICTED BY IDOCK:  -10.33 KCAL/MOL
REMARK 923 INTER-LIGAND FREE ENERGY PREDICTED BY IDOCK:   -8.92 KCAL/MOL
REMARK 924 INTRA-LIGAND FREE ENERGY PREDICTED BY IDOCK:   -1.41 KCAL/MOL
REMARK 927      BINDING AFFINITY PREDICTED BY RF-SCORE:    0.00 PKD
ROOT
HETATM    1  C   UNL     1     -11.488   6.370  70.437  1.00  0.00    -0.458 C  
HETATM    2  C   UNL     1     -10.277   6.311  69.516  1.00  0.00    -0.239 C  
ENDROOT
BRANCH   2   3
HETATM    3  C   UNL     1     -10.706   6.230  68.052  1.00  0.00    -0.369 C  
BRANCH   3   4
HETATM    4  C   UNL     1      -9.819   7.087  67.140  1.00  0.00    -0.225 C  
HETATM    5  C   UNL     1     -10.502   8.390  66.669  1.00  0.00    -0.221 C  
HETATM    6  C   UNL     1     -11.025   9.286  67.815  1.00  0.00    -0.072 C  
HETATM    7  C   UNL     1      -9.569   9.168  65.716  1.00  0.00    -0.253 C  
HETATM    8  C   UNL     1      -9.942   9.902  68.689  1.00  0.00    -0.177 C  
BRANCH   7   9
HETATM    9  O   UNL     1     -10.222  10.387  65.318  1.00  0.00    -0.299 OA 
BRANCH   9  10
HETATM   10  C   UNL     1      -9.503  11.528  65.493  1.00  0.00    -0.212 C  
HETATM   11  O   UNL     1      -8.347  11.575  65.888  1.00  0.00    -0.044 OA 
BRANCH  10  12
HETATM   12  C   UNL     1     -10.239  12.723  64.947  1.00  0.00    -0.294 C  
BRANCH  12  13
HETATM   13  C   UNL     1     -10.512  13.807  65.986  1.00  0.00    -0.297 C  
HETATM   14  O   UNL     1     -13.075  13.851  65.309  1.00  0.00    -0.777 OA 
HETATM   15  S   UNL     1     -12.212  13.834  66.464  1.00  0.00    -0.400 S  
HETATM   16  O   UNL     1     -12.281  12.348  67.095  1.00  0.00    -0.492 OA 
HETATM   17  O   UNL     1     -12.404  14.716  67.593  1.00  0.00    -0.171 OA 
BRANCH  13  18
HETATM   18  C   UNL     1     -10.172  15.156  65.437  1.00  0.00    -0.372 C  
HETATM   19  O   UNL     1     -10.809  15.720  64.557  1.00  0.00    -0.467 OA 
BRANCH  18  20
HETATM   20  O   UNL     1      -8.967  15.580  65.911  1.00  0.00    -0.303 OA 
BRANCH  20  21
HETATM   21  C   UNL     1      -8.968  16.903  66.475  1.00  0.00    -0.272 C  
HETATM   22  C   UNL     1      -9.619  17.004  67.867  1.00  0.00    -0.249 C  
HETATM   23  C   UNL     1      -8.971  16.044  68.890  1.00  0.00    -0.239 C  
HETATM   24  C   UNL     1      -9.623  18.460  68.388  1.00  0.00    -0.366 C  
HETATM   25  C   UNL     1      -7.513  16.332  69.219  1.00  0.00    -0.217 C  
BRANCH  24  26
HETATM   26  C   UNL     1     -10.361  19.441  67.473  1.00  0.00    -0.556 C  
BRANCH  26  27
HETATM   27  C   UNL     1      -9.454  20.590  67.031  1.00  0.00    -0.516 C  
HETATM   28  C   UNL     1      -8.004  20.311  67.403  1.00  0.00    -0.366 C  
ENDBRANCH  26  27
ENDBRANCH  24  26
ENDBRANCH  20  21
ENDBRANCH  18  20
ENDBRANCH  13  18
ENDBRANCH  12  13
ENDBRANCH  10  12
ENDBRANCH   9  10
ENDBRANCH   7   9
ENDBRANCH   3   4
ENDBRANCH   2   3
TORSDOF 11
ENDMDL
MODEL       54
REMARK 921   NORMALIZED FREE ENERGY PREDICTED BY IDOCK:   -4.91 KCAL/MOL
REMARK 922        TOTAL FREE ENERGY PREDICTED BY IDOCK:  -10.32 KCAL/MOL
REMARK 923 INTER-LIGAND FREE ENERGY PREDICTED BY IDOCK:   -8.44 KCAL/MOL
REMARK 924 INTRA-LIGAND FREE ENERGY PREDICTED BY IDOCK:   -1.87 KCAL/MOL
REMARK 927      BINDING AFFINITY PREDICTED BY RF-SCORE:    0.00 PKD
ROOT
HETATM    1  C   UNL     1      -9.956  19.317  67.567  1.00  0.00    -0.460 C  
HETATM    2  C   UNL     1     -10.420  17.877  67.393  1.00  0.00    -0.390 C  
ENDROOT
BRANCH   2   3
HETATM    3  C   UNL     1     -10.557  17.178  68.745  1.00  0.00    -0.336 C  
BRANCH   3   4
HETATM    4  C   UNL     1     -11.611  16.064  68.717  1.00  0.00    -0.352 C  
HETATM    5  C   UNL     1     -11.289  14.890  69.668  1.00  0.00    -0.311 C  
HETATM    6  C   UNL     1     -11.064  15.305  71.140  1.00  0.00    -0.328 C  
HETATM    7  C   UNL     1     -12.364  13.790  69.542  1.00  0.00    -0.209 C  
HETATM    8  C   UNL     1     -12.301  15.837  71.849  1.00  0.00    -0.533 C  
BRANCH   7   9
HETATM    9  O   UNL     1     -12.050  12.726  70.459  1.00  0.00    -0.367 OA 
BRANCH   9  10
HETATM   10  C   UNL     1     -12.235  11.465  69.988  1.00  0.00    -0.301 C  
HETATM   11  O   UNL     1     -12.634  11.186  68.867  1.00  0.00    -0.358 OA 
BRANCH  10  12
HETATM   12  C   UNL     1     -11.698  10.440  70.952  1.00  0.00    -0.455 C  
BRANCH  12  13
HETATM   13  C   UNL     1     -11.521   9.052  70.343  1.00  0.00    -0.173 C  
HETATM   14  O   UNL     1     -11.253   7.994  72.759  1.00  0.00    -0.384 OA 
HETATM   15  S   UNL     1     -11.922   7.780  71.501  1.00  0.00    -0.310 S  
HETATM   16  O   UNL     1     -13.478   8.166  71.711  1.00  0.00    -0.339 OA 
HETATM   17  O   UNL     1     -11.954   6.493  70.844  1.00  0.00    -0.369 OA 
BRANCH  13  18
HETATM   18  C   UNL     1     -10.103   8.845  69.914  1.00  0.00    -0.195 C  
HETATM   19  O   UNL     1      -9.135   9.338  70.477  1.00  0.00    -0.221 OA 
BRANCH  18  20
HETATM   20  O   UNL     1     -10.052   8.195  68.716  1.00  0.00    -0.189 OA 
BRANCH  20  21
HETATM   21  C   UNL     1     -10.397   8.998  67.574  1.00  0.00    -0.264 C  
HETATM   22  C   UNL     1      -9.212   9.751  66.941  1.00  0.00    -0.174 C  
HETATM   23  C   UNL     1      -8.063   8.802  66.534  1.00  0.00    -0.103 C  
HETATM   24  C   UNL     1      -9.666  10.625  65.750  1.00  0.00    -0.272 C  
HETATM   25  C   UNL     1      -8.403   7.801  65.439  1.00  0.00    -0.141 C  
BRANCH  24  26
HETATM   26  C   UNL     1     -10.720  11.673  66.119  1.00  0.00    -0.325 C  
BRANCH  26  27
HETATM   27  C   UNL     1     -10.083  12.917  66.741  1.00  0.00    -0.238 C  
HETATM   28  C   UNL     1     -10.223  14.119  65.817  1.00  0.00    -0.347 C  
ENDBRANCH  26  27
ENDBRANCH  24  26
ENDBRANCH  20  21
ENDBRANCH  18  20
ENDBRANCH  13  18
ENDBRANCH  12  13
ENDBRANCH  10  12
ENDBRANCH   9  10
ENDBRANCH   7   9
ENDBRANCH   3   4
ENDBRANCH   2   3
TORSDOF 11
ENDMDL
MODEL       55
REMARK 921   NORMALIZED FREE ENERGY PREDICTED BY IDOCK:   -4.89 KCAL/MOL
REMARK 922        TOTAL FREE ENERGY PREDICTED BY IDOCK:  -10.28 KCAL/MOL
REMARK 923 INTER-LIGAND FREE ENERGY PREDICTED BY IDOCK:   -8.77 KCAL/MOL
REMARK 924 INTRA-LIGAND FREE ENERGY PREDICTED BY IDOCK:   -1.51 KCAL/MOL
REMARK 927      BINDING AFFINITY PREDICTED BY RF-SCORE:    0.00 PKD
ROOT
HETATM    1  C   UNL     1      -8.013   4.723  72.968  1.00  0.00    -0.100 C  
HETATM    2  C   UNL     1      -9.130   3.945  72.288  1.00  0.00    -0.154 C  
ENDROOT
BRANCH   2   3
HETATM    3  C   UNL     1     -10.491   4.584  72.565  1.00  0.00    -0.251 C  
BRANCH   3   4
HETATM    4  C   UNL     1     -10.857   5.644  71.518  1.00  0.00    -0.297 C  
HETATM    5  C   UNL     1     -11.382   6.959  72.134  1.00  0.00    -0.302 C  
HETATM    6  C   UNL     1     -10.427   7.607  73.164  1.00  0.00    -0.433 C  
HETATM    7  C   UNL     1     -11.778   7.951  71.020  1.00  0.00    -0.277 C  
HETATM    8  C   UNL     1      -9.124   8.135  72.582  1.00  0.00    -0.317 C  
BRANCH   7   9
HETATM    9  O   UNL     1     -12.235   9.173  71.626  1.00  0.00    -0.316 OA 
BRANCH   9  10
HETATM   10  C   UNL     1     -12.115  10.293  70.864  1.00  0.00    -0.368 C  
HETATM   11  O   UNL     1     -12.851  11.267  70.928  1.00  0.00    -0.319 OA 
BRANCH  10  12
HETATM   12  C   UNL     1     -10.839  10.272  70.065  1.00  0.00    -0.364 C  
BRANCH  12  13
HETATM   13  C   UNL     1     -11.052  10.399  68.559  1.00  0.00    -0.266 C  
HETATM   14  O   UNL     1      -8.476   9.940  68.128  1.00  0.00    -0.113 OA 
HETATM   15  S   UNL     1      -9.785   9.565  67.653  1.00  0.00    -0.160 S  
HETATM   16  O   UNL     1     -10.084   8.071  68.192  1.00  0.00    -0.183 OA 
HETATM   17  O   UNL     1     -10.120   9.517  66.248  1.00  0.00    -0.269 OA 
BRANCH  13  18
HETATM   18  C   UNL     1     -11.035  11.836  68.147  1.00  0.00    -0.228 C  
HETATM   19  O   UNL     1     -10.324  12.690  68.659  1.00  0.00    -0.228 OA 
BRANCH  18  20
HETATM   20  O   UNL     1     -12.040  12.097  67.264  1.00  0.00    -0.565 OA 
BRANCH  20  21
HETATM   21  C   UNL     1     -11.912  13.336  66.546  1.00  0.00    -0.391 C  
HETATM   22  C   UNL     1     -10.837  13.327  65.443  1.00  0.00    -0.304 C  
HETATM   23  C   UNL     1     -11.058  12.195  64.415  1.00  0.00    -0.387 C  
HETATM   24  C   UNL     1     -10.727  14.703  64.746  1.00  0.00    -0.399 C  
HETATM   25  C   UNL     1     -12.334  12.305  63.591  1.00  0.00    -0.664 C  
BRANCH  24  26
HETATM   26  C   UNL     1     -10.385  15.852  65.700  1.00  0.00    -0.413 C  
BRANCH  26  27
HETATM   27  C   UNL     1      -9.025  15.645  66.366  1.00  0.00    -0.362 C  
HETATM   28  C   UNL     1      -8.256  16.957  66.451  1.00  0.00    -0.342 C  
ENDBRANCH  26  27
ENDBRANCH  24  26
ENDBRANCH  20  21
ENDBRANCH  18  20
ENDBRANCH  13  18
ENDBRANCH  12  13
ENDBRANCH  10  12
ENDBRANCH   9  10
ENDBRANCH   7   9
ENDBRANCH   3   4
ENDBRANCH   2   3
TORSDOF 11
ENDMDL
MODEL       56
REMARK 921   NORMALIZED FREE ENERGY PREDICTED BY IDOCK:   -4.87 KCAL/MOL
REMARK 922        TOTAL FREE ENERGY PREDICTED BY IDOCK:  -10.25 KCAL/MOL
REMARK 923 INTER-LIGAND FREE ENERGY PREDICTED BY IDOCK:   -8.62 KCAL/MOL
REMARK 924 INTRA-LIGAND FREE ENERGY PREDICTED BY IDOCK:   -1.62 KCAL/MOL
REMARK 927      BINDING AFFINITY PREDICTED BY RF-SCORE:    0.00 PKD
ROOT
HETATM    1  C   UNL     1     -10.089  11.838  63.332  1.00  0.00    -0.470 C  
HETATM    2  C   UNL     1     -10.974  12.761  64.159  1.00  0.00    -0.435 C  
ENDROOT
BRANCH   2   3
HETATM    3  C   UNL     1     -11.387  12.094  65.471  1.00  0.00    -0.393 C  
BRANCH   3   4
HETATM    4  C   UNL     1     -10.212  11.955  66.446  1.00  0.00    -0.240 C  
HETATM    5  C   UNL     1     -10.159  10.581  67.150  1.00  0.00    -0.253 C  
HETATM    6  C   UNL     1     -10.134   9.372  66.188  1.00  0.00    -0.324 C  
HETATM    7  C   UNL     1      -8.985  10.539  68.151  1.00  0.00    -0.138 C  
HETATM    8  C   UNL     1      -8.868   9.246  65.353  1.00  0.00    -0.230 C  
BRANCH   7   9
HETATM    9  O   UNL     1      -8.946   9.240  68.769  1.00  0.00    -0.131 OA 
BRANCH   9  10
HETATM   10  C   UNL     1      -9.430   9.172  70.037  1.00  0.00    -0.198 C  
HETATM   11  O   UNL     1      -8.814   9.499  71.041  1.00  0.00    -0.246 OA 
BRANCH  10  12
HETATM   12  C   UNL     1     -10.897   8.832  70.042  1.00  0.00    -0.231 C  
BRANCH  12  13
HETATM   13  C   UNL     1     -11.712   9.628  71.056  1.00  0.00    -0.353 C  
HETATM   14  O   UNL     1     -13.605   7.772  71.037  1.00  0.00    -0.127 OA 
HETATM   15  S   UNL     1     -12.838   8.593  71.940  1.00  0.00    -0.391 S  
HETATM   16  O   UNL     1     -11.741   7.639  72.647  1.00  0.00    -0.322 OA 
HETATM   17  O   UNL     1     -13.441   9.322  73.033  1.00  0.00    -0.218 OA 
BRANCH  13  18
HETATM   18  C   UNL     1     -12.513  10.688  70.369  1.00  0.00    -0.338 C  
HETATM   19  O   UNL     1     -12.760  10.694  69.170  1.00  0.00    -0.160 OA 
BRANCH  18  20
HETATM   20  O   UNL     1     -12.766  11.727  71.215  1.00  0.00    -0.387 OA 
BRANCH  20  21
HETATM   21  C   UNL     1     -12.179  12.982  70.828  1.00  0.00    -0.272 C  
HETATM   22  C   UNL     1     -13.149  14.177  70.861  1.00  0.00    -0.338 C  
HETATM   23  C   UNL     1     -13.810  14.360  72.246  1.00  0.00    -0.589 C  
HETATM   24  C   UNL     1     -12.461  15.480  70.391  1.00  0.00    -0.443 C  
HETATM   25  C   UNL     1     -12.856  14.715  73.379  1.00  0.00    -0.526 C  
BRANCH  24  26
HETATM   26  C   UNL     1     -11.893  15.400  68.971  1.00  0.00    -0.357 C  
BRANCH  26  27
HETATM   27  C   UNL     1     -10.665  16.296  68.806  1.00  0.00    -0.309 C  
HETATM   28  C   UNL     1      -9.404  15.461  68.623  1.00  0.00    -0.202 C  
ENDBRANCH  26  27
ENDBRANCH  24  26
ENDBRANCH  20  21
ENDBRANCH  18  20
ENDBRANCH  13  18
ENDBRANCH  12  13
ENDBRANCH  10  12
ENDBRANCH   9  10
ENDBRANCH   7   9
ENDBRANCH   3   4
ENDBRANCH   2   3
TORSDOF 11
ENDMDL
MODEL       57
REMARK 921   NORMALIZED FREE ENERGY PREDICTED BY IDOCK:   -4.87 KCAL/MOL
REMARK 922        TOTAL FREE ENERGY PREDICTED BY IDOCK:  -10.24 KCAL/MOL
REMARK 923 INTER-LIGAND FREE ENERGY PREDICTED BY IDOCK:   -7.68 KCAL/MOL
REMARK 924 INTRA-LIGAND FREE ENERGY PREDICTED BY IDOCK:   -2.56 KCAL/MOL
REMARK 927      BINDING AFFINITY PREDICTED BY RF-SCORE:    0.00 PKD
ROOT
HETATM    1  C   UNL     1     -12.555  11.973  63.368  1.00  0.00    -0.592 C  
HETATM    2  C   UNL     1     -11.086  12.328  63.552  1.00  0.00    -0.533 C  
ENDROOT
BRANCH   2   3
HETATM    3  C   UNL     1     -10.918  13.455  64.572  1.00  0.00    -0.404 C  
BRANCH   3   4
HETATM    4  C   UNL     1     -11.727  13.204  65.850  1.00  0.00    -0.427 C  
HETATM    5  C   UNL     1     -11.123  12.106  66.753  1.00  0.00    -0.349 C  
HETATM    6  C   UNL     1      -9.650  12.350  67.154  1.00  0.00    -0.206 C  
HETATM    7  C   UNL     1     -12.021  11.876  67.988  1.00  0.00    -0.133 C  
HETATM    8  C   UNL     1      -9.427  13.544  68.071  1.00  0.00    -0.220 C  
BRANCH   7   9
HETATM    9  O   UNL     1     -11.417  10.870  68.821  1.00  0.00    -0.264 OA 
BRANCH   9  10
HETATM   10  C   UNL     1     -11.547  11.055  70.161  1.00  0.00    -0.334 C  
HETATM   11  O   UNL     1     -12.161  11.972  70.687  1.00  0.00    -0.374 OA 
BRANCH  10  12
HETATM   12  C   UNL     1     -11.007   9.876  70.927  1.00  0.00    -0.392 C  
BRANCH  12  13
HETATM   13  C   UNL     1     -11.709   8.559  70.609  1.00  0.00    -0.144 C  
HETATM   14  O   UNL     1     -11.202   7.664  73.052  1.00  0.00    -0.384 OA 
HETATM   15  S   UNL     1     -12.260   7.745  72.077  1.00  0.00    -0.294 S  
HETATM   16  O   UNL     1     -13.291   8.885  72.579  1.00  0.00    -0.431 OA 
HETATM   17  O   UNL     1     -13.101   6.618  71.744  1.00  0.00    -0.294 OA 
BRANCH  13  18
HETATM   18  C   UNL     1     -10.780   7.629  69.896  1.00  0.00    -0.249 C  
HETATM   19  O   UNL     1     -11.142   6.645  69.265  1.00  0.00    -0.282 OA 
BRANCH  18  20
HETATM   20  O   UNL     1      -9.482   7.920  70.196  1.00  0.00    -0.160 OA 
BRANCH  20  21
HETATM   21  C   UNL     1      -8.584   7.922  69.072  1.00  0.00    -0.135 C  
HETATM   22  C   UNL     1      -8.281   9.319  68.501  1.00  0.00    -0.114 C  
HETATM   23  C   UNL     1      -7.718  10.282  69.570  1.00  0.00    -0.167 C  
HETATM   24  C   UNL     1      -7.347   9.239  67.271  1.00  0.00    -0.091 C  
HETATM   25  C   UNL     1      -6.364   9.893  70.148  1.00  0.00    -0.084 C  
BRANCH  24  26
HETATM   26  C   UNL     1      -7.909   8.395  66.123  1.00  0.00    -0.101 C  
BRANCH  26  27
HETATM   27  C   UNL     1      -9.151   9.039  65.508  1.00  0.00    -0.271 C  
HETATM   28  C   UNL     1      -8.834   9.634  64.142  1.00  0.00    -0.257 C  
ENDBRANCH  26  27
ENDBRANCH  24  26
ENDBRANCH  20  21
ENDBRANCH  18  20
ENDBRANCH  13  18
ENDBRANCH  12  13
ENDBRANCH  10  12
ENDBRANCH   9  10
ENDBRANCH   7   9
ENDBRANCH   3   4
ENDBRANCH   2   3
TORSDOF 11
ENDMDL
MODEL       58
REMARK 921   NORMALIZED FREE ENERGY PREDICTED BY IDOCK:   -4.86 KCAL/MOL
REMARK 922        TOTAL FREE ENERGY PREDICTED BY IDOCK:  -10.23 KCAL/MOL
REMARK 923 INTER-LIGAND FREE ENERGY PREDICTED BY IDOCK:   -8.98 KCAL/MOL
REMARK 924 INTRA-LIGAND FREE ENERGY PREDICTED BY IDOCK:   -1.25 KCAL/MOL
REMARK 927      BINDING AFFINITY PREDICTED BY RF-SCORE:    0.00 PKD
ROOT
HETATM    1  C   UNL     1     -12.108  13.097  63.368  1.00  0.00    -0.558 C  
HETATM    2  C   UNL     1     -11.955  12.163  64.561  1.00  0.00    -0.415 C  
ENDROOT
BRANCH   2   3
HETATM    3  C   UNL     1     -10.784  11.202  64.358  1.00  0.00    -0.388 C  
BRANCH   3   4
HETATM    4  C   UNL     1      -9.673  11.415  65.393  1.00  0.00    -0.265 C  
HETATM    5  C   UNL     1      -9.484  10.214  66.346  1.00  0.00    -0.223 C  
HETATM    6  C   UNL     1      -9.226   8.868  65.631  1.00  0.00    -0.268 C  
HETATM    7  C   UNL     1      -8.389  10.526  67.389  1.00  0.00    -0.121 C  
HETATM    8  C   UNL     1      -7.898   8.781  64.893  1.00  0.00    -0.120 C  
BRANCH   7   9
HETATM    9  O   UNL     1      -8.218   9.379  68.241  1.00  0.00    -0.115 OA 
BRANCH   9  10
HETATM   10  C   UNL     1      -8.675   9.515  69.514  1.00  0.00    -0.174 C  
HETATM   11  O   UNL     1      -8.046  10.016  70.435  1.00  0.00    -0.187 OA 
BRANCH  10  12
HETATM   12  C   UNL     1     -10.133   9.152  69.610  1.00  0.00    -0.206 C  
BRANCH  12  13
HETATM   13  C   UNL     1     -10.722   9.323  71.008  1.00  0.00    -0.316 C  
HETATM   14  O   UNL     1     -12.072   7.056  70.748  1.00  0.00    -0.355 OA 
HETATM   15  S   UNL     1     -11.246   7.778  71.684  1.00  0.00    -0.256 S  
HETATM   16  O   UNL     1      -9.801   7.054  71.710  1.00  0.00    -0.164 OA 
HETATM   17  O   UNL     1     -11.599   7.931  73.077  1.00  0.00    -0.351 OA 
BRANCH  13  18
HETATM   18  C   UNL     1     -11.911  10.229  70.968  1.00  0.00    -0.377 C  
HETATM   19  O   UNL     1     -13.037   9.901  71.317  1.00  0.00    -0.366 OA 
BRANCH  18  20
HETATM   20  O   UNL     1     -11.609  11.393  70.326  1.00  0.00    -0.307 OA 
BRANCH  20  21
HETATM   21  C   UNL     1     -12.589  12.437  70.468  1.00  0.00    -0.089 C  
HETATM   22  C   UNL     1     -12.007  13.862  70.467  1.00  0.00    -0.384 C  
HETATM   23  C   UNL     1     -11.170  14.156  69.202  1.00  0.00    -0.307 C  
HETATM   24  C   UNL     1     -13.112  14.926  70.667  1.00  0.00    -0.363 C  
HETATM   25  C   UNL     1     -11.946  14.147  67.892  1.00  0.00    -0.378 C  
BRANCH  24  26
HETATM   26  C   UNL     1     -13.899  14.760  71.971  1.00  0.00    -0.548 C  
BRANCH  26  27
HETATM   27  C   UNL     1     -13.539  15.844  72.987  1.00  0.00    -0.616 C  
HETATM   28  C   UNL     1     -12.464  15.353  73.947  1.00  0.00    -0.763 C  
ENDBRANCH  26  27
ENDBRANCH  24  26
ENDBRANCH  20  21
ENDBRANCH  18  20
ENDBRANCH  13  18
ENDBRANCH  12  13
ENDBRANCH  10  12
ENDBRANCH   9  10
ENDBRANCH   7   9
ENDBRANCH   3   4
ENDBRANCH   2   3
TORSDOF 11
ENDMDL
MODEL       59
REMARK 921   NORMALIZED FREE ENERGY PREDICTED BY IDOCK:   -4.86 KCAL/MOL
REMARK 922        TOTAL FREE ENERGY PREDICTED BY IDOCK:  -10.23 KCAL/MOL
REMARK 923 INTER-LIGAND FREE ENERGY PREDICTED BY IDOCK:   -9.03 KCAL/MOL
REMARK 924 INTRA-LIGAND FREE ENERGY PREDICTED BY IDOCK:   -1.20 KCAL/MOL
REMARK 927      BINDING AFFINITY PREDICTED BY RF-SCORE:    0.00 PKD
ROOT
HETATM    1  C   UNL     1      -8.802   4.989  71.253  1.00  0.00    -0.152 C  
HETATM    2  C   UNL     1      -9.519   4.554  72.524  1.00  0.00    -0.173 C  
ENDROOT
BRANCH   2   3
HETATM    3  C   UNL     1     -10.927   5.146  72.588  1.00  0.00    -0.303 C  
BRANCH   3   4
HETATM    4  C   UNL     1     -10.912   6.679  72.615  1.00  0.00    -0.288 C  
HETATM    5  C   UNL     1     -11.350   7.320  71.280  1.00  0.00    -0.290 C  
HETATM    6  C   UNL     1     -12.737   6.861  70.777  1.00  0.00    -0.112 C  
HETATM    7  C   UNL     1     -11.255   8.859  71.370  1.00  0.00    -0.312 C  
HETATM    8  C   UNL     1     -13.909   7.309  71.638  1.00  0.00    -0.461 C  
BRANCH   7   9
HETATM    9  O   UNL     1     -11.696   9.425  70.123  1.00  0.00    -0.163 OA 
BRANCH   9  10
HETATM   10  C   UNL     1     -11.564  10.773  70.005  1.00  0.00    -0.334 C  
HETATM   11  O   UNL     1     -12.084  11.596  70.744  1.00  0.00    -0.364 OA 
BRANCH  10  12
HETATM   12  C   UNL     1     -10.532  11.129  68.968  1.00  0.00    -0.233 C  
BRANCH  12  13
HETATM   13  C   UNL     1     -11.055  11.085  67.535  1.00  0.00    -0.302 C  
HETATM   14  O   UNL     1      -8.616  11.540  66.600  1.00  0.00    -0.168 OA 
HETATM   15  S   UNL     1      -9.769  10.701  66.387  1.00  0.00    -0.204 S  
HETATM   16  O   UNL     1      -9.407   9.231  66.955  1.00  0.00    -0.141 OA 
HETATM   17  O   UNL     1     -10.322  10.455  65.074  1.00  0.00    -0.306 OA 
BRANCH  13  18
HETATM   18  C   UNL     1     -11.631  12.409  67.147  1.00  0.00    -0.365 C  
HETATM   19  O   UNL     1     -12.389  12.578  66.201  1.00  0.00    -0.596 OA 
BRANCH  18  20
HETATM   20  O   UNL     1     -11.057  13.415  67.866  1.00  0.00    -0.250 OA 
BRANCH  20  21
HETATM   21  C   UNL     1     -11.975  14.212  68.634  1.00  0.00    -0.338 C  
HETATM   22  C   UNL     1     -11.346  14.912  69.853  1.00  0.00    -0.311 C  
HETATM   23  C   UNL     1     -10.143  15.800  69.466  1.00  0.00    -0.279 C  
HETATM   24  C   UNL     1     -12.400  15.712  70.654  1.00  0.00    -0.457 C  
HETATM   25  C   UNL     1     -10.473  16.989  68.574  1.00  0.00    -0.373 C  
BRANCH  24  26
HETATM   26  C   UNL     1     -13.560  14.858  71.173  1.00  0.00    -0.467 C  
BRANCH  26  27
HETATM   27  C   UNL     1     -13.390  14.517  72.653  1.00  0.00    -0.588 C  
HETATM   28  C   UNL     1     -12.974  15.747  73.450  1.00  0.00    -0.696 C  
ENDBRANCH  26  27
ENDBRANCH  24  26
ENDBRANCH  20  21
ENDBRANCH  18  20
ENDBRANCH  13  18
ENDBRANCH  12  13
ENDBRANCH  10  12
ENDBRANCH   9  10
ENDBRANCH   7   9
ENDBRANCH   3   4
ENDBRANCH   2   3
TORSDOF 11
ENDMDL
MODEL       60
REMARK 921   NORMALIZED FREE ENERGY PREDICTED BY IDOCK:   -4.84 KCAL/MOL
REMARK 922        TOTAL FREE ENERGY PREDICTED BY IDOCK:  -10.21 KCAL/MOL
REMARK 923 INTER-LIGAND FREE ENERGY PREDICTED BY IDOCK:   -7.45 KCAL/MOL
REMARK 924 INTRA-LIGAND FREE ENERGY PREDICTED BY IDOCK:   -2.75 KCAL/MOL
REMARK 927      BINDING AFFINITY PREDICTED BY RF-SCORE:    0.00 PKD
ROOT
HETATM    1  C   UNL     1     -11.686  12.706  63.678  1.00  0.00    -0.597 C  
HETATM    2  C   UNL     1     -10.518  13.250  64.489  1.00  0.00    -0.434 C  
ENDROOT
BRANCH   2   3
HETATM    3  C   UNL     1     -10.997  13.839  65.815  1.00  0.00    -0.280 C  
BRANCH   3   4
HETATM    4  C   UNL     1     -11.809  12.831  66.637  1.00  0.00    -0.462 C  
HETATM    5  C   UNL     1     -11.188  12.523  68.018  1.00  0.00    -0.316 C  
HETATM    6  C   UNL     1     -10.936  13.770  68.895  1.00  0.00    -0.281 C  
HETATM    7  C   UNL     1     -12.031  11.464  68.759  1.00  0.00    -0.287 C  
HETATM    8  C   UNL     1     -12.194  14.483  69.368  1.00  0.00    -0.285 C  
BRANCH   7   9
HETATM    9  O   UNL     1     -11.443  11.221  70.050  1.00  0.00    -0.293 OA 
BRANCH   9  10
HETATM   10  C   UNL     1     -12.104  10.339  70.845  1.00  0.00    -0.368 C  
HETATM   11  O   UNL     1     -13.320  10.235  70.918  1.00  0.00    -0.370 OA 
BRANCH  10  12
HETATM   12  C   UNL     1     -11.151   9.363  71.484  1.00  0.00    -0.446 C  
BRANCH  12  13
HETATM   13  C   UNL     1     -10.380   8.508  70.482  1.00  0.00    -0.200 C  
HETATM   14  O   UNL     1     -10.369   6.474  72.182  1.00  0.00    -0.196 OA 
HETATM   15  S   UNL     1     -10.602   6.784  70.794  1.00  0.00    -0.229 S  
HETATM   16  O   UNL     1     -12.199   6.727  70.549  1.00  0.00    -0.363 OA 
HETATM   17  O   UNL     1     -10.043   6.001  69.716  1.00  0.00    -0.171 OA 
BRANCH  13  18
HETATM   18  C   UNL     1      -8.915   8.800  70.563  1.00  0.00    -0.177 C  
HETATM   19  O   UNL     1      -8.326   9.076  71.599  1.00  0.00    -0.334 OA 
BRANCH  18  20
HETATM   20  O   UNL     1      -8.373   8.898  69.316  1.00  0.00    -0.115 OA 
BRANCH  20  21
HETATM   21  C   UNL     1      -8.405  10.216  68.742  1.00  0.00    -0.122 C  
HETATM   22  C   UNL     1      -7.860  10.300  67.304  1.00  0.00    -0.103 C  
HETATM   23  C   UNL     1      -8.590   9.337  66.342  1.00  0.00    -0.141 C  
HETATM   24  C   UNL     1      -7.884  11.751  66.772  1.00  0.00    -0.103 C  
HETATM   25  C   UNL     1     -10.067   9.635  66.122  1.00  0.00    -0.328 C  
BRANCH  24  26
HETATM   26  C   UNL     1      -7.071  12.734  67.620  1.00  0.00    -0.145 C  
BRANCH  26  27
HETATM   27  C   UNL     1      -7.577  14.168  67.460  1.00  0.00    -0.200 C  
HETATM   28  C   UNL     1      -7.103  15.043  68.612  1.00  0.00    -0.109 C  
ENDBRANCH  26  27
ENDBRANCH  24  26
ENDBRANCH  20  21
ENDBRANCH  18  20
ENDBRANCH  13  18
ENDBRANCH  12  13
ENDBRANCH  10  12
ENDBRANCH   9  10
ENDBRANCH   7   9
ENDBRANCH   3   4
ENDBRANCH   2   3
TORSDOF 11
ENDMDL
MODEL       61
REMARK 921   NORMALIZED FREE ENERGY PREDICTED BY IDOCK:   -4.84 KCAL/MOL
REMARK 922        TOTAL FREE ENERGY PREDICTED BY IDOCK:  -10.20 KCAL/MOL
REMARK 923 INTER-LIGAND FREE ENERGY PREDICTED BY IDOCK:   -9.44 KCAL/MOL
REMARK 924 INTRA-LIGAND FREE ENERGY PREDICTED BY IDOCK:   -0.76 KCAL/MOL
REMARK 927      BINDING AFFINITY PREDICTED BY RF-SCORE:    0.00 PKD
ROOT
HETATM    1  C   UNL     1     -10.776  19.888  67.407  1.00  0.00    -0.447 C  
HETATM    2  C   UNL     1      -9.400  20.506  67.615  1.00  0.00    -0.419 C  
ENDROOT
BRANCH   2   3
HETATM    3  C   UNL     1      -8.497  19.575  68.424  1.00  0.00    -0.387 C  
BRANCH   3   4
HETATM    4  C   UNL     1      -8.999  18.126  68.411  1.00  0.00    -0.305 C  
HETATM    5  C   UNL     1      -9.102  17.524  66.993  1.00  0.00    -0.255 C  
HETATM    6  C   UNL     1      -7.790  17.588  66.177  1.00  0.00    -0.281 C  
HETATM    7  C   UNL     1      -9.663  16.088  67.061  1.00  0.00    -0.229 C  
HETATM    8  C   UNL     1      -6.663  16.715  66.712  1.00  0.00    -0.241 C  
BRANCH   7   9
HETATM    9  O   UNL     1      -9.719  15.547  65.728  1.00  0.00    -0.329 OA 
BRANCH   9  10
HETATM   10  C   UNL     1     -10.919  15.650  65.097  1.00  0.00    -0.398 C  
HETATM   11  O   UNL     1     -11.196  16.487  64.250  1.00  0.00    -0.992 OA 
BRANCH  10  12
HETATM   12  C   UNL     1     -11.807  14.479  65.424  1.00  0.00    -0.344 C  
BRANCH  12  13
HETATM   13  C   UNL     1     -11.136  13.122  65.232  1.00  0.00    -0.283 C  
HETATM   14  O   UNL     1     -13.374  12.125  64.219  1.00  0.00    -0.761 OA 
HETATM   15  S   UNL     1     -11.950  12.165  63.992  1.00  0.00    -0.447 S  
HETATM   16  O   UNL     1     -11.688  13.161  62.746  1.00  0.00     0.152 OA 
HETATM   17  O   UNL     1     -11.178  10.984  63.679  1.00  0.00    -0.140 OA 
BRANCH  13  18
HETATM   18  C   UNL     1     -11.167  12.338  66.506  1.00  0.00    -0.324 C  
HETATM   19  O   UNL     1     -11.990  12.505  67.396  1.00  0.00    -0.456 OA 
BRANCH  18  20
HETATM   20  O   UNL     1     -10.058  11.554  66.616  1.00  0.00    -0.203 OA 
BRANCH  20  21
HETATM   21  C   UNL     1      -9.849  10.977  67.917  1.00  0.00    -0.171 C  
HETATM   22  C   UNL     1     -10.518   9.604  68.121  1.00  0.00    -0.266 C  
HETATM   23  C   UNL     1     -10.078   8.572  67.060  1.00  0.00    -0.347 C  
HETATM   24  C   UNL     1     -10.288   9.069  69.554  1.00  0.00    -0.211 C  
HETATM   25  C   UNL     1      -8.602   8.196  67.091  1.00  0.00    -0.124 C  
BRANCH  24  26
HETATM   26  C   UNL     1     -10.817   9.996  70.652  1.00  0.00    -0.367 C  
BRANCH  26  27
HETATM   27  C   UNL     1     -12.338  10.138  70.584  1.00  0.00    -0.382 C  
HETATM   28  C   UNL     1     -12.799  11.394  71.312  1.00  0.00    -0.481 C  
ENDBRANCH  26  27
ENDBRANCH  24  26
ENDBRANCH  20  21
ENDBRANCH  18  20
ENDBRANCH  13  18
ENDBRANCH  12  13
ENDBRANCH  10  12
ENDBRANCH   9  10
ENDBRANCH   7   9
ENDBRANCH   3   4
ENDBRANCH   2   3
TORSDOF 11
ENDMDL
MODEL       62
REMARK 921   NORMALIZED FREE ENERGY PREDICTED BY IDOCK:   -4.84 KCAL/MOL
REMARK 922        TOTAL FREE ENERGY PREDICTED BY IDOCK:  -10.20 KCAL/MOL
REMARK 923 INTER-LIGAND FREE ENERGY PREDICTED BY IDOCK:   -8.55 KCAL/MOL
REMARK 924 INTRA-LIGAND FREE ENERGY PREDICTED BY IDOCK:   -1.64 KCAL/MOL
REMARK 927      BINDING AFFINITY PREDICTED BY RF-SCORE:    0.00 PKD
ROOT
HETATM    1  C   UNL     1     -11.299   6.400  70.392  1.00  0.00    -0.453 C  
HETATM    2  C   UNL     1     -12.030   6.801  71.666  1.00  0.00    -0.391 C  
ENDROOT
BRANCH   2   3
HETATM    3  C   UNL     1     -11.704   8.243  72.054  1.00  0.00    -0.407 C  
BRANCH   3   4
HETATM    4  C   UNL     1     -12.411   9.261  71.150  1.00  0.00    -0.363 C  
HETATM    5  C   UNL     1     -11.499  10.425  70.707  1.00  0.00    -0.422 C  
HETATM    6  C   UNL     1     -10.193   9.982  70.007  1.00  0.00    -0.306 C  
HETATM    7  C   UNL     1     -12.295  11.431  69.848  1.00  0.00    -0.214 C  
HETATM    8  C   UNL     1     -10.390   9.321  68.650  1.00  0.00    -0.229 C  
BRANCH   7   9
HETATM    9  O   UNL     1     -11.411  12.487  69.429  1.00  0.00    -0.270 OA 
BRANCH   9  10
HETATM   10  C   UNL     1     -11.845  13.243  68.387  1.00  0.00    -0.360 C  
HETATM   11  O   UNL     1     -12.019  14.452  68.422  1.00  0.00    -0.331 OA 
BRANCH  10  12
HETATM   12  C   UNL     1     -11.897  12.438  67.115  1.00  0.00    -0.361 C  
BRANCH  12  13
HETATM   13  C   UNL     1     -11.390  13.189  65.887  1.00  0.00    -0.311 C  
HETATM   14  O   UNL     1     -13.196  11.982  64.367  1.00  0.00    -0.669 OA 
HETATM   15  S   UNL     1     -12.624  13.280  64.627  1.00  0.00    -0.242 S  
HETATM   16  O   UNL     1     -13.717  14.131  65.459  1.00  0.00    -0.396 OA 
HETATM   17  O   UNL     1     -12.200  14.170  63.570  1.00  0.00    -0.614 OA 
BRANCH  13  18
HETATM   18  C   UNL     1     -10.197  12.498  65.307  1.00  0.00    -0.282 C  
HETATM   19  O   UNL     1     -10.160  12.019  64.182  1.00  0.00    -0.301 OA 
BRANCH  18  20
HETATM   20  O   UNL     1      -9.236  12.315  66.257  1.00  0.00    -0.225 OA 
BRANCH  20  21
HETATM   21  C   UNL     1      -8.682  13.525  66.802  1.00  0.00    -0.083 C  
HETATM   22  C   UNL     1      -8.171  13.398  68.249  1.00  0.00    -0.160 C  
HETATM   23  C   UNL     1      -7.123  12.274  68.407  1.00  0.00    -0.094 C  
HETATM   24  C   UNL     1      -7.632  14.747  68.781  1.00  0.00    -0.137 C  
HETATM   25  C   UNL     1      -5.822  12.488  67.646  1.00  0.00    -0.134 C  
BRANCH  24  26
HETATM   26  C   UNL     1      -8.668  15.875  68.765  1.00  0.00    -0.213 C  
BRANCH  26  27
HETATM   27  C   UNL     1      -8.038  17.211  68.370  1.00  0.00    -0.255 C  
HETATM   28  C   UNL     1      -9.074  18.328  68.395  1.00  0.00    -0.331 C  
ENDBRANCH  26  27
ENDBRANCH  24  26
ENDBRANCH  20  21
ENDBRANCH  18  20
ENDBRANCH  13  18
ENDBRANCH  12  13
ENDBRANCH  10  12
ENDBRANCH   9  10
ENDBRANCH   7   9
ENDBRANCH   3   4
ENDBRANCH   2   3
TORSDOF 11
ENDMDL
MODEL       63
REMARK 921   NORMALIZED FREE ENERGY PREDICTED BY IDOCK:   -4.81 KCAL/MOL
REMARK 922        TOTAL FREE ENERGY PREDICTED BY IDOCK:  -10.15 KCAL/MOL
REMARK 923 INTER-LIGAND FREE ENERGY PREDICTED BY IDOCK:   -8.85 KCAL/MOL
REMARK 924 INTRA-LIGAND FREE ENERGY PREDICTED BY IDOCK:   -1.30 KCAL/MOL
REMARK 927      BINDING AFFINITY PREDICTED BY RF-SCORE:    0.00 PKD
ROOT
HETATM    1  C   UNL     1      -9.878   4.493  71.719  1.00  0.00    -0.252 C  
HETATM    2  C   UNL     1      -9.922   5.454  72.899  1.00  0.00    -0.193 C  
ENDROOT
BRANCH   2   3
HETATM    3  C   UNL     1     -11.128   6.388  72.801  1.00  0.00    -0.281 C  
BRANCH   3   4
HETATM    4  C   UNL     1     -10.718   7.833  72.492  1.00  0.00    -0.372 C  
HETATM    5  C   UNL     1     -11.490   8.449  71.304  1.00  0.00    -0.325 C  
HETATM    6  C   UNL     1     -13.028   8.404  71.451  1.00  0.00    -0.248 C  
HETATM    7  C   UNL     1     -10.984   9.880  71.023  1.00  0.00    -0.290 C  
HETATM    8  C   UNL     1     -13.589   9.280  72.562  1.00  0.00    -0.478 C  
BRANCH   7   9
HETATM    9  O   UNL     1     -11.740  10.435  69.931  1.00  0.00    -0.258 OA 
BRANCH   9  10
HETATM   10  C   UNL     1     -11.905  11.784  69.950  1.00  0.00    -0.348 C  
HETATM   11  O   UNL     1     -12.524  12.403  70.803  1.00  0.00    -0.349 OA 
BRANCH  10  12
HETATM   12  C   UNL     1     -11.060  12.449  68.896  1.00  0.00    -0.307 C  
BRANCH  12  13
HETATM   13  C   UNL     1     -11.682  12.429  67.502  1.00  0.00    -0.357 C  
HETATM   14  O   UNL     1      -9.274  12.422  66.395  1.00  0.00    -0.231 OA 
HETATM   15  S   UNL     1     -10.562  11.781  66.301  1.00  0.00    -0.262 S  
HETATM   16  O   UNL     1     -10.410  10.299  66.927  1.00  0.00    -0.222 OA 
HETATM   17  O   UNL     1     -11.239  11.574  65.041  1.00  0.00    -0.252 OA 
BRANCH  13  18
HETATM   18  C   UNL     1     -12.057  13.813  67.076  1.00  0.00    -0.397 C  
HETATM   19  O   UNL     1     -12.648  14.076  66.038  1.00  0.00    -0.481 OA 
BRANCH  18  20
HETATM   20  O   UNL     1     -11.492  14.741  67.900  1.00  0.00    -0.315 OA 
BRANCH  20  21
HETATM   21  C   UNL     1     -10.603  15.668  67.251  1.00  0.00    -0.305 C  
HETATM   22  C   UNL     1      -9.905  16.656  68.203  1.00  0.00    -0.250 C  
HETATM   23  C   UNL     1      -9.120  15.939  69.323  1.00  0.00    -0.253 C  
HETATM   24  C   UNL     1      -9.003  17.647  67.432  1.00  0.00    -0.231 C  
HETATM   25  C   UNL     1      -7.944  15.092  68.853  1.00  0.00    -0.178 C  
BRANCH  24  26
HETATM   26  C   UNL     1      -9.753  18.480  66.387  1.00  0.00    -0.347 C  
BRANCH  26  27
HETATM   27  C   UNL     1     -10.713  19.472  67.043  1.00  0.00    -0.592 C  
HETATM   28  C   UNL     1     -10.087  20.094  68.285  1.00  0.00    -0.471 C  
ENDBRANCH  26  27
ENDBRANCH  24  26
ENDBRANCH  20  21
ENDBRANCH  18  20
ENDBRANCH  13  18
ENDBRANCH  12  13
ENDBRANCH  10  12
ENDBRANCH   9  10
ENDBRANCH   7   9
ENDBRANCH   3   4
ENDBRANCH   2   3
TORSDOF 11
ENDMDL
MODEL       64
REMARK 921   NORMALIZED FREE ENERGY PREDICTED BY IDOCK:   -4.80 KCAL/MOL
REMARK 922        TOTAL FREE ENERGY PREDICTED BY IDOCK:  -10.14 KCAL/MOL
REMARK 923 INTER-LIGAND FREE ENERGY PREDICTED BY IDOCK:   -8.64 KCAL/MOL
REMARK 924 INTRA-LIGAND FREE ENERGY PREDICTED BY IDOCK:   -1.50 KCAL/MOL
REMARK 927      BINDING AFFINITY PREDICTED BY RF-SCORE:    0.00 PKD
ROOT
HETATM    1  C   UNL     1     -12.635  15.356  73.878  1.00  0.00    -0.750 C  
HETATM    2  C   UNL     1     -12.270  16.040  72.568  1.00  0.00    -0.612 C  
ENDROOT
BRANCH   2   3
HETATM    3  C   UNL     1     -13.183  15.576  71.434  1.00  0.00    -0.587 C  
BRANCH   3   4
HETATM    4  C   UNL     1     -12.633  14.336  70.719  1.00  0.00    -0.427 C  
HETATM    5  C   UNL     1     -12.137  14.623  69.285  1.00  0.00    -0.307 C  
HETATM    6  C   UNL     1     -11.077  15.745  69.190  1.00  0.00    -0.283 C  
HETATM    7  C   UNL     1     -11.651  13.320  68.615  1.00  0.00    -0.327 C  
HETATM    8  C   UNL     1      -9.737  15.412  69.829  1.00  0.00    -0.219 C  
BRANCH   7   9
HETATM    9  O   UNL     1     -11.171  13.627  67.294  1.00  0.00    -0.292 OA 
BRANCH   9  10
HETATM   10  C   UNL     1     -10.958  12.560  66.479  1.00  0.00    -0.266 C  
HETATM   11  O   UNL     1     -11.828  11.971  65.854  1.00  0.00    -0.499 OA 
BRANCH  10  12
HETATM   12  C   UNL     1      -9.486  12.313  66.280  1.00  0.00    -0.234 C  
BRANCH  12  13
HETATM   13  C   UNL     1      -8.800  11.672  67.483  1.00  0.00    -0.158 C  
HETATM   14  O   UNL     1      -6.745  10.957  65.968  1.00  0.00    -0.125 OA 
HETATM   15  S   UNL     1      -7.054  11.550  67.245  1.00  0.00    -0.138 S  
HETATM   16  O   UNL     1      -6.743  13.132  67.131  1.00  0.00    -0.152 OA 
HETATM   17  O   UNL     1      -6.406  11.141  68.471  1.00  0.00    -0.046 OA 
BRANCH  13  18
HETATM   18  C   UNL     1      -9.326  10.290  67.712  1.00  0.00    -0.144 C  
HETATM   19  O   UNL     1      -9.472   9.456  66.829  1.00  0.00    -0.149 OA 
BRANCH  18  20
HETATM   20  O   UNL     1      -9.787  10.155  68.987  1.00  0.00    -0.184 OA 
BRANCH  20  21
HETATM   21  C   UNL     1     -10.601   8.992  69.218  1.00  0.00    -0.213 C  
HETATM   22  C   UNL     1     -10.905   8.710  70.701  1.00  0.00    -0.265 C  
HETATM   23  C   UNL     1     -11.573   9.912  71.404  1.00  0.00    -0.428 C  
HETATM   24  C   UNL     1     -11.745   7.422  70.873  1.00  0.00    -0.325 C  
HETATM   25  C   UNL     1     -12.953  10.287  70.880  1.00  0.00    -0.456 C  
BRANCH  24  26
HETATM   26  C   UNL     1     -11.075   6.168  70.304  1.00  0.00    -0.436 C  
BRANCH  26  27
HETATM   27  C   UNL     1     -10.296   5.408  71.378  1.00  0.00    -0.294 C  
HETATM   28  C   UNL     1     -10.967   5.552  72.738  1.00  0.00    -0.324 C  
ENDBRANCH  26  27
ENDBRANCH  24  26
ENDBRANCH  20  21
ENDBRANCH  18  20
ENDBRANCH  13  18
ENDBRANCH  12  13
ENDBRANCH  10  12
ENDBRANCH   9  10
ENDBRANCH   7   9
ENDBRANCH   3   4
ENDBRANCH   2   3
TORSDOF 11
ENDMDL
MODEL       65
REMARK 921   NORMALIZED FREE ENERGY PREDICTED BY IDOCK:   -4.76 KCAL/MOL
REMARK 922        TOTAL FREE ENERGY PREDICTED BY IDOCK:  -10.08 KCAL/MOL
REMARK 923 INTER-LIGAND FREE ENERGY PREDICTED BY IDOCK:   -9.03 KCAL/MOL
REMARK 924 INTRA-LIGAND FREE ENERGY PREDICTED BY IDOCK:   -1.05 KCAL/MOL
REMARK 927      BINDING AFFINITY PREDICTED BY RF-SCORE:    0.00 PKD
ROOT
HETATM    1  C   UNL     1      -8.858   4.487  68.509  1.00  0.00    -0.128 C  
HETATM    2  C   UNL     1     -10.129   5.096  67.935  1.00  0.00    -0.193 C  
ENDROOT
BRANCH   2   3
HETATM    3  C   UNL     1     -10.209   6.591  68.244  1.00  0.00    -0.195 C  
BRANCH   3   4
HETATM    4  C   UNL     1      -9.455   7.437  67.211  1.00  0.00    -0.179 C  
HETATM    5  C   UNL     1     -10.258   8.659  66.714  1.00  0.00    -0.361 C  
HETATM    6  C   UNL     1     -10.751   9.598  67.840  1.00  0.00    -0.302 C  
HETATM    7  C   UNL     1      -9.456   9.426  65.641  1.00  0.00    -0.262 C  
HETATM    8  C   UNL     1      -9.649  10.339  68.581  1.00  0.00    -0.169 C  
BRANCH   7   9
HETATM    9  O   UNL     1     -10.219  10.572  65.221  1.00  0.00    -0.298 OA 
BRANCH   9  10
HETATM   10  C   UNL     1     -10.021  10.977  63.939  1.00  0.00    -0.341 C  
HETATM   11  O   UNL     1      -9.854  10.231  62.986  1.00  0.00    -0.249 OA 
BRANCH  10  12
HETATM   12  C   UNL     1     -10.233  12.462  63.799  1.00  0.00    -0.404 C  
BRANCH  12  13
HETATM   13  C   UNL     1     -10.991  13.090  64.966  1.00  0.00    -0.298 C  
HETATM   14  O   UNL     1     -12.652  14.285  63.281  1.00  0.00    -0.716 OA 
HETATM   15  S   UNL     1     -12.639  13.529  64.508  1.00  0.00    -0.143 S  
HETATM   16  O   UNL     1     -13.168  12.041  64.162  1.00  0.00    -0.712 OA 
HETATM   17  O   UNL     1     -13.399  13.921  65.674  1.00  0.00    -0.620 OA 
BRANCH  13  18
HETATM   18  C   UNL     1     -10.301  14.334  65.429  1.00  0.00    -0.370 C  
HETATM   19  O   UNL     1      -9.960  15.247  64.689  1.00  0.00    -0.087 OA 
BRANCH  18  20
HETATM   20  O   UNL     1      -9.943  14.227  66.740  1.00  0.00    -0.252 OA 
BRANCH  20  21
HETATM   21  C   UNL     1      -9.359  15.412  67.308  1.00  0.00    -0.210 C  
HETATM   22  C   UNL     1     -10.378  16.480  67.746  1.00  0.00    -0.291 C  
HETATM   23  C   UNL     1     -11.416  15.927  68.747  1.00  0.00    -0.393 C  
HETATM   24  C   UNL     1      -9.676  17.740  68.304  1.00  0.00    -0.320 C  
HETATM   25  C   UNL     1     -10.851  15.481  70.090  1.00  0.00    -0.346 C  
BRANCH  24  26
HETATM   26  C   UNL     1      -8.723  18.408  67.309  1.00  0.00    -0.261 C  
BRANCH  26  27
HETATM   27  C   UNL     1      -9.417  19.525  66.529  1.00  0.00    -0.450 C  
HETATM   28  C   UNL     1      -9.694  20.723  67.428  1.00  0.00    -0.473 C  
ENDBRANCH  26  27
ENDBRANCH  24  26
ENDBRANCH  20  21
ENDBRANCH  18  20
ENDBRANCH  13  18
ENDBRANCH  12  13
ENDBRANCH  10  12
ENDBRANCH   9  10
ENDBRANCH   7   9
ENDBRANCH   3   4
ENDBRANCH   2   3
TORSDOF 11
ENDMDL
MODEL       66
REMARK 921   NORMALIZED FREE ENERGY PREDICTED BY IDOCK:   -4.72 KCAL/MOL
REMARK 922        TOTAL FREE ENERGY PREDICTED BY IDOCK:  -10.01 KCAL/MOL
REMARK 923 INTER-LIGAND FREE ENERGY PREDICTED BY IDOCK:   -8.82 KCAL/MOL
REMARK 924 INTRA-LIGAND FREE ENERGY PREDICTED BY IDOCK:   -1.19 KCAL/MOL
REMARK 927      BINDING AFFINITY PREDICTED BY RF-SCORE:    0.00 PKD
ROOT
HETATM    1  C   UNL     1     -11.126   4.422  73.340  1.00  0.00    -0.394 C  
HETATM    2  C   UNL     1     -10.999   5.938  73.291  1.00  0.00    -0.267 C  
ENDROOT
BRANCH   2   3
HETATM    3  C   UNL     1     -10.799   6.426  71.857  1.00  0.00    -0.279 C  
BRANCH   3   4
HETATM    4  C   UNL     1     -10.602   7.945  71.784  1.00  0.00    -0.276 C  
HETATM    5  C   UNL     1     -11.639   8.656  70.887  1.00  0.00    -0.307 C  
HETATM    6  C   UNL     1     -13.111   8.378  71.271  1.00  0.00    -0.163 C  
HETATM    7  C   UNL     1     -11.342  10.169  70.822  1.00  0.00    -0.354 C  
HETATM    8  C   UNL     1     -13.540   8.953  72.612  1.00  0.00    -0.395 C  
BRANCH   7   9
HETATM    9  O   UNL     1     -12.341  10.805  70.004  1.00  0.00    -0.320 OA 
BRANCH   9  10
HETATM   10  C   UNL     1     -11.893  11.786  69.178  1.00  0.00    -0.326 C  
HETATM   11  O   UNL     1     -11.222  11.605  68.172  1.00  0.00    -0.223 OA 
BRANCH  10  12
HETATM   12  C   UNL     1     -12.493  13.119  69.541  1.00  0.00     0.069 C  
BRANCH  12  13
HETATM   13  C   UNL     1     -11.589  13.986  70.413  1.00  0.00    -0.139 C  
HETATM   14  O   UNL     1     -13.591  15.663  70.871  1.00  0.00    -0.568 OA 
HETATM   15  S   UNL     1     -12.525  14.965  71.546  1.00  0.00    -0.359 S  
HETATM   16  O   UNL     1     -13.195  13.749  72.375  1.00  0.00    -0.436 OA 
HETATM   17  O   UNL     1     -11.650  15.611  72.497  1.00  0.00    -0.439 OA 
BRANCH  13  18
HETATM   18  C   UNL     1     -10.782  14.919  69.565  1.00  0.00    -0.244 C  
HETATM   19  O   UNL     1      -9.858  15.602  69.984  1.00  0.00    -0.268 OA 
BRANCH  18  20
HETATM   20  O   UNL     1     -11.332  15.039  68.324  1.00  0.00    -0.290 OA 
BRANCH  20  21
HETATM   21  C   UNL     1     -11.343  16.376  67.792  1.00  0.00    -0.034 C  
HETATM   22  C   UNL     1     -10.199  16.681  66.808  1.00  0.00    -0.301 C  
HETATM   23  C   UNL     1     -10.163  15.691  65.622  1.00  0.00    -0.402 C  
HETATM   24  C   UNL     1     -10.251  18.145  66.314  1.00  0.00    -0.401 C  
HETATM   25  C   UNL     1     -11.374  15.736  64.700  1.00  0.00    -0.343 C  
BRANCH  24  26
HETATM   26  C   UNL     1     -10.165  19.180  67.440  1.00  0.00    -0.490 C  
BRANCH  26  27
HETATM   27  C   UNL     1      -9.186  20.303  67.099  1.00  0.00    -0.519 C  
HETATM   28  C   UNL     1      -8.146  19.830  66.092  1.00  0.00    -0.357 C  
ENDBRANCH  26  27
ENDBRANCH  24  26
ENDBRANCH  20  21
ENDBRANCH  18  20
ENDBRANCH  13  18
ENDBRANCH  12  13
ENDBRANCH  10  12
ENDBRANCH   9  10
ENDBRANCH   7   9
ENDBRANCH   3   4
ENDBRANCH   2   3
TORSDOF 11
ENDMDL
MODEL       67
REMARK 921   NORMALIZED FREE ENERGY PREDICTED BY IDOCK:   -4.72 KCAL/MOL
REMARK 922        TOTAL FREE ENERGY PREDICTED BY IDOCK:  -10.01 KCAL/MOL
REMARK 923 INTER-LIGAND FREE ENERGY PREDICTED BY IDOCK:   -7.82 KCAL/MOL
REMARK 924 INTRA-LIGAND FREE ENERGY PREDICTED BY IDOCK:   -2.19 KCAL/MOL
REMARK 927      BINDING AFFINITY PREDICTED BY RF-SCORE:    0.00 PKD
ROOT
HETATM    1  C   UNL     1     -10.379   6.474  73.999  1.00  0.00    -0.362 C  
HETATM    2  C   UNL     1     -10.388   7.707  73.105  1.00  0.00    -0.411 C  
ENDROOT
BRANCH   2   3
HETATM    3  C   UNL     1     -10.833   7.353  71.687  1.00  0.00    -0.246 C  
BRANCH   3   4
HETATM    4  C   UNL     1     -11.729   8.435  71.073  1.00  0.00    -0.296 C  
HETATM    5  C   UNL     1     -10.941   9.641  70.517  1.00  0.00    -0.374 C  
HETATM    6  C   UNL     1      -9.855   9.270  69.481  1.00  0.00    -0.188 C  
HETATM    7  C   UNL     1     -11.913  10.708  69.968  1.00  0.00    -0.329 C  
HETATM    8  C   UNL     1     -10.388   8.722  68.165  1.00  0.00    -0.266 C  
BRANCH   7   9
HETATM    9  O   UNL     1     -11.148  11.803  69.432  1.00  0.00    -0.235 OA 
BRANCH   9  10
HETATM   10  C   UNL     1     -11.692  12.436  68.359  1.00  0.00    -0.336 C  
HETATM   11  O   UNL     1     -11.839  11.939  67.252  1.00  0.00    -0.576 OA 
BRANCH  10  12
HETATM   12  C   UNL     1     -12.277  13.766  68.752  1.00  0.00    -0.221 C  
BRANCH  12  13
HETATM   13  C   UNL     1     -11.420  14.550  69.742  1.00  0.00    -0.279 C  
HETATM   14  O   UNL     1     -13.585  15.700  70.752  1.00  0.00    -0.524 OA 
HETATM   15  S   UNL     1     -12.357  15.059  71.150  1.00  0.00    -0.363 S  
HETATM   16  O   UNL     1     -12.737  13.586  71.698  1.00  0.00    -0.337 OA 
HETATM   17  O   UNL     1     -11.485  15.608  72.164  1.00  0.00    -0.414 OA 
BRANCH  13  18
HETATM   18  C   UNL     1     -10.865  15.780  69.096  1.00  0.00    -0.254 C  
HETATM   19  O   UNL     1     -11.445  16.422  68.231  1.00  0.00    -0.312 OA 
BRANCH  18  20
HETATM   20  O   UNL     1      -9.567  15.974  69.463  1.00  0.00    -0.254 OA 
BRANCH  20  21
HETATM   21  C   UNL     1      -8.672  14.903  69.117  1.00  0.00    -0.149 C  
HETATM   22  C   UNL     1      -8.425  14.740  67.606  1.00  0.00    -0.185 C  
HETATM   23  C   UNL     1      -7.901  16.037  66.952  1.00  0.00    -0.284 C  
HETATM   24  C   UNL     1      -7.490  13.544  67.309  1.00  0.00    -0.056 C  
HETATM   25  C   UNL     1      -6.532  16.500  67.432  1.00  0.00    -0.198 C  
BRANCH  24  26
HETATM   26  C   UNL     1      -8.019  12.203  67.828  1.00  0.00    -0.151 C  
BRANCH  26  27
HETATM   27  C   UNL     1      -7.772  11.076  66.825  1.00  0.00    -0.146 C  
HETATM   28  C   UNL     1      -6.726  10.102  67.351  1.00  0.00    -0.073 C  
ENDBRANCH  26  27
ENDBRANCH  24  26
ENDBRANCH  20  21
ENDBRANCH  18  20
ENDBRANCH  13  18
ENDBRANCH  12  13
ENDBRANCH  10  12
ENDBRANCH   9  10
ENDBRANCH   7   9
ENDBRANCH   3   4
ENDBRANCH   2   3
TORSDOF 11
ENDMDL
MODEL       68
REMARK 921   NORMALIZED FREE ENERGY PREDICTED BY IDOCK:   -4.72 KCAL/MOL
REMARK 922        TOTAL FREE ENERGY PREDICTED BY IDOCK:  -10.00 KCAL/MOL
REMARK 923 INTER-LIGAND FREE ENERGY PREDICTED BY IDOCK:   -8.13 KCAL/MOL
REMARK 924 INTRA-LIGAND FREE ENERGY PREDICTED BY IDOCK:   -1.87 KCAL/MOL
REMARK 927      BINDING AFFINITY PREDICTED BY RF-SCORE:    0.00 PKD
ROOT
HETATM    1  C   UNL     1     -10.415  15.428  65.453  1.00  0.00    -0.426 C  
HETATM    2  C   UNL     1     -11.510  14.678  64.707  1.00  0.00    -0.410 C  
ENDROOT
BRANCH   2   3
HETATM    3  C   UNL     1     -12.550  14.119  65.676  1.00  0.00    -0.495 C  
BRANCH   3   4
HETATM    4  C   UNL     1     -11.940  13.759  67.037  1.00  0.00    -0.452 C  
HETATM    5  C   UNL     1     -11.880  12.238  67.299  1.00  0.00    -0.330 C  
HETATM    6  C   UNL     1     -11.138  11.432  66.209  1.00  0.00    -0.281 C  
HETATM    7  C   UNL     1     -11.306  11.961  68.705  1.00  0.00    -0.274 C  
HETATM    8  C   UNL     1      -9.643  11.705  66.120  1.00  0.00    -0.252 C  
BRANCH   7   9
HETATM    9  O   UNL     1     -11.237  10.537  68.907  1.00  0.00    -0.243 OA 
BRANCH   9  10
HETATM   10  C   UNL     1     -10.200  10.097  69.667  1.00  0.00    -0.242 C  
HETATM   11  O   UNL     1      -9.023  10.357  69.465  1.00  0.00    -0.182 OA 
BRANCH  10  12
HETATM   12  C   UNL     1     -10.693   9.408  70.912  1.00  0.00    -0.393 C  
BRANCH  12  13
HETATM   13  C   UNL     1     -11.815   8.404  70.659  1.00  0.00    -0.092 C  
HETATM   14  O   UNL     1     -12.819   8.878  73.066  1.00  0.00    -0.271 OA 
HETATM   15  S   UNL     1     -13.214   8.723  71.689  1.00  0.00    -0.351 S  
HETATM   16  O   UNL     1     -13.567  10.195  71.120  1.00  0.00    -0.284 OA 
HETATM   17  O   UNL     1     -14.334   7.902  71.286  1.00  0.00    -0.369 OA 
BRANCH  13  18
HETATM   18  C   UNL     1     -11.347   7.013  70.945  1.00  0.00    -0.295 C  
HETATM   19  O   UNL     1     -10.767   6.680  71.970  1.00  0.00    -0.213 OA 
BRANCH  18  20
HETATM   20  O   UNL     1     -11.487   6.221  69.845  1.00  0.00    -0.422 OA 
BRANCH  20  21
HETATM   21  C   UNL     1     -10.254   5.825  69.221  1.00  0.00    -0.226 C  
HETATM   22  C   UNL     1     -10.383   5.448  67.733  1.00  0.00    -0.226 C  
HETATM   23  C   UNL     1     -11.006   6.583  66.891  1.00  0.00    -0.408 C  
HETATM   24  C   UNL     1      -9.028   4.992  67.143  1.00  0.00    -0.112 C  
HETATM   25  C   UNL     1     -10.180   7.860  66.808  1.00  0.00    -0.358 C  
BRANCH  24  26
HETATM   26  C   UNL     1      -8.417   3.785  67.863  1.00  0.00    -0.106 C  
BRANCH  26  27
HETATM   27  C   UNL     1      -8.930   2.466  67.283  1.00  0.00    -0.176 C  
HETATM   28  C   UNL     1      -9.498   1.576  68.381  1.00  0.00    -0.239 C  
ENDBRANCH  26  27
ENDBRANCH  24  26
ENDBRANCH  20  21
ENDBRANCH  18  20
ENDBRANCH  13  18
ENDBRANCH  12  13
ENDBRANCH  10  12
ENDBRANCH   9  10
ENDBRANCH   7   9
ENDBRANCH   3   4
ENDBRANCH   2   3
TORSDOF 11
ENDMDL
MODEL       69
REMARK 921   NORMALIZED FREE ENERGY PREDICTED BY IDOCK:   -4.71 KCAL/MOL
REMARK 922        TOTAL FREE ENERGY PREDICTED BY IDOCK:   -9.99 KCAL/MOL
REMARK 923 INTER-LIGAND FREE ENERGY PREDICTED BY IDOCK:   -9.39 KCAL/MOL
REMARK 924 INTRA-LIGAND FREE ENERGY PREDICTED BY IDOCK:   -0.60 KCAL/MOL
REMARK 927      BINDING AFFINITY PREDICTED BY RF-SCORE:    0.00 PKD
ROOT
HETATM    1  C   UNL     1      -6.264  10.301  62.361  1.00  0.00    -0.129 C  
HETATM    2  C   UNL     1      -7.047   9.382  63.288  1.00  0.00    -0.095 C  
ENDROOT
BRANCH   2   3
HETATM    3  C   UNL     1      -8.524   9.340  62.899  1.00  0.00    -0.212 C  
BRANCH   3   4
HETATM    4  C   UNL     1      -9.187  10.720  62.986  1.00  0.00    -0.320 C  
HETATM    5  C   UNL     1     -10.339  10.784  64.013  1.00  0.00    -0.357 C  
HETATM    6  C   UNL     1      -9.944  10.346  65.442  1.00  0.00    -0.362 C  
HETATM    7  C   UNL     1     -10.987  12.185  64.003  1.00  0.00    -0.380 C  
HETATM    8  C   UNL     1      -8.964  11.274  66.146  1.00  0.00    -0.210 C  
BRANCH   7   9
HETATM    9  O   UNL     1     -12.035  12.220  64.988  1.00  0.00    -0.385 OA 
BRANCH   9  10
HETATM   10  C   UNL     1     -12.329  13.445  65.497  1.00  0.00    -0.480 C  
HETATM   11  O   UNL     1     -13.360  14.066  65.280  1.00  0.00    -0.741 OA 
BRANCH  10  12
HETATM   12  C   UNL     1     -11.313  13.864  66.526  1.00  0.00    -0.340 C  
BRANCH  12  13
HETATM   13  C   UNL     1     -11.547  15.263  67.091  1.00  0.00    -0.126 C  
HETATM   14  O   UNL     1      -8.932  15.689  67.196  1.00  0.00    -0.196 OA 
HETATM   15  S   UNL     1     -10.164  16.322  66.795  1.00  0.00    -0.284 S  
HETATM   16  O   UNL     1     -10.217  16.295  65.179  1.00  0.00    -0.566 OA 
HETATM   17  O   UNL     1     -10.490  17.685  67.145  1.00  0.00    -0.339 OA 
BRANCH  13  18
HETATM   18  C   UNL     1     -11.764  15.201  68.569  1.00  0.00    -0.325 C  
HETATM   19  O   UNL     1     -12.214  16.122  69.237  1.00  0.00    -0.151 OA 
BRANCH  18  20
HETATM   20  O   UNL     1     -11.225  14.061  69.089  1.00  0.00    -0.251 OA 
BRANCH  20  21
HETATM   21  C   UNL     1     -12.179  13.128  69.625  1.00  0.00    -0.181 C  
HETATM   22  C   UNL     1     -12.182  13.030  71.162  1.00  0.00    -0.139 C  
HETATM   23  C   UNL     1     -12.415  14.400  71.838  1.00  0.00    -0.387 C  
HETATM   24  C   UNL     1     -13.199  11.978  71.661  1.00  0.00    -0.361 C  
HETATM   25  C   UNL     1     -13.774  15.032  71.574  1.00  0.00    -0.553 C  
BRANCH  24  26
HETATM   26  C   UNL     1     -12.945  10.568  71.120  1.00  0.00    -0.506 C  
BRANCH  26  27
HETATM   27  C   UNL     1     -13.300   9.497  72.152  1.00  0.00    -0.545 C  
HETATM   28  C   UNL     1     -14.187   8.423  71.536  1.00  0.00    -0.471 C  
ENDBRANCH  26  27
ENDBRANCH  24  26
ENDBRANCH  20  21
ENDBRANCH  18  20
ENDBRANCH  13  18
ENDBRANCH  12  13
ENDBRANCH  10  12
ENDBRANCH   9  10
ENDBRANCH   7   9
ENDBRANCH   3   4
ENDBRANCH   2   3
TORSDOF 11
ENDMDL
MODEL       70
REMARK 921   NORMALIZED FREE ENERGY PREDICTED BY IDOCK:   -4.71 KCAL/MOL
REMARK 922        TOTAL FREE ENERGY PREDICTED BY IDOCK:   -9.98 KCAL/MOL
REMARK 923 INTER-LIGAND FREE ENERGY PREDICTED BY IDOCK:   -8.08 KCAL/MOL
REMARK 924 INTRA-LIGAND FREE ENERGY PREDICTED BY IDOCK:   -1.91 KCAL/MOL
REMARK 927      BINDING AFFINITY PREDICTED BY RF-SCORE:    0.00 PKD
ROOT
HETATM    1  C   UNL     1     -12.208  12.465  63.510  1.00  0.00    -0.661 C  
HETATM    2  C   UNL     1     -10.812  12.208  64.059  1.00  0.00    -0.436 C  
ENDROOT
BRANCH   2   3
HETATM    3  C   UNL     1     -10.660  12.788  65.465  1.00  0.00    -0.303 C  
BRANCH   3   4
HETATM    4  C   UNL     1     -11.643  12.160  66.460  1.00  0.00    -0.425 C  
HETATM    5  C   UNL     1     -11.080  12.054  67.895  1.00  0.00    -0.289 C  
HETATM    6  C   UNL     1     -10.584  13.394  68.485  1.00  0.00    -0.264 C  
HETATM    7  C   UNL     1     -12.104  11.365  68.822  1.00  0.00    -0.189 C  
HETATM    8  C   UNL     1     -11.677  14.419  68.748  1.00  0.00    -0.372 C  
BRANCH   7   9
HETATM    9  O   UNL     1     -11.561  11.308  70.153  1.00  0.00    -0.310 OA 
BRANCH   9  10
HETATM   10  C   UNL     1     -12.009  10.288  70.932  1.00  0.00    -0.375 C  
HETATM   11  O   UNL     1     -13.183  10.072  71.197  1.00  0.00    -0.384 OA 
BRANCH  10  12
HETATM   12  C   UNL     1     -10.896   9.333  71.271  1.00  0.00    -0.417 C  
BRANCH  12  13
HETATM   13  C   UNL     1     -11.307   7.864  71.226  1.00  0.00    -0.260 C  
HETATM   14  O   UNL     1      -8.901   7.133  72.064  1.00  0.00    -0.126 OA 
HETATM   15  S   UNL     1     -10.301   6.875  72.289  1.00  0.00    -0.200 S  
HETATM   16  O   UNL     1     -10.704   7.584  73.685  1.00  0.00    -0.343 OA 
HETATM   17  O   UNL     1     -10.840   5.538  72.393  1.00  0.00    -0.227 OA 
BRANCH  13  18
HETATM   18  C   UNL     1     -11.170   7.324  69.838  1.00  0.00    -0.170 C  
HETATM   19  O   UNL     1     -11.632   6.252  69.469  1.00  0.00    -0.423 OA 
BRANCH  18  20
HETATM   20  O   UNL     1     -10.314   8.090  69.104  1.00  0.00    -0.214 OA 
BRANCH  20  21
HETATM   21  C   UNL     1      -9.452   7.357  68.217  1.00  0.00    -0.142 C  
HETATM   22  C   UNL     1      -9.787   7.517  66.723  1.00  0.00    -0.295 C  
HETATM   23  C   UNL     1      -9.792   8.996  66.277  1.00  0.00    -0.361 C  
HETATM   24  C   UNL     1      -8.847   6.667  65.836  1.00  0.00    -0.126 C  
HETATM   25  C   UNL     1      -8.447   9.706  66.362  1.00  0.00    -0.128 C  
BRANCH  24  26
HETATM   26  C   UNL     1      -8.891   5.169  66.150  1.00  0.00    -0.132 C  
BRANCH  26  27
HETATM   27  C   UNL     1     -10.262   4.568  65.837  1.00  0.00    -0.289 C  
HETATM   28  C   UNL     1     -10.325   4.081  64.396  1.00  0.00    -0.216 C  
ENDBRANCH  26  27
ENDBRANCH  24  26
ENDBRANCH  20  21
ENDBRANCH  18  20
ENDBRANCH  13  18
ENDBRANCH  12  13
ENDBRANCH  10  12
ENDBRANCH   9  10
ENDBRANCH   7   9
ENDBRANCH   3   4
ENDBRANCH   2   3
TORSDOF 11
ENDMDL
MODEL       71
REMARK 921   NORMALIZED FREE ENERGY PREDICTED BY IDOCK:   -4.71 KCAL/MOL
REMARK 922        TOTAL FREE ENERGY PREDICTED BY IDOCK:   -9.98 KCAL/MOL
REMARK 923 INTER-LIGAND FREE ENERGY PREDICTED BY IDOCK:   -8.38 KCAL/MOL
REMARK 924 INTRA-LIGAND FREE ENERGY PREDICTED BY IDOCK:   -1.60 KCAL/MOL
REMARK 927      BINDING AFFINITY PREDICTED BY RF-SCORE:    0.00 PKD
ROOT
HETATM    1  C   UNL     1     -11.343  14.867  64.709  1.00  0.00    -0.400 C  
HETATM    2  C   UNL     1     -12.424  14.333  65.638  1.00  0.00    -0.432 C  
ENDROOT
BRANCH   2   3
HETATM    3  C   UNL     1     -11.843  13.973  67.006  1.00  0.00    -0.458 C  
BRANCH   3   4
HETATM    4  C   UNL     1     -11.864  12.461  67.264  1.00  0.00    -0.357 C  
HETATM    5  C   UNL     1     -10.723  11.701  66.553  1.00  0.00    -0.313 C  
HETATM    6  C   UNL     1      -9.306  12.228  66.879  1.00  0.00    -0.210 C  
HETATM    7  C   UNL     1     -10.844  10.185  66.817  1.00  0.00    -0.059 C  
HETATM    8  C   UNL     1      -8.860  12.010  68.317  1.00  0.00    -0.182 C  
BRANCH   7   9
HETATM    9  O   UNL     1      -9.752   9.511  66.165  1.00  0.00    -0.216 OA 
BRANCH   9  10
HETATM   10  C   UNL     1      -9.539   8.224  66.546  1.00  0.00    -0.244 C  
HETATM   11  O   UNL     1      -8.664   7.496  66.100  1.00  0.00    -0.144 OA 
BRANCH  10  12
HETATM   12  C   UNL     1     -10.389   7.862  67.735  1.00  0.00    -0.289 C  
BRANCH  12  13
HETATM   13  C   UNL     1      -9.602   7.711  69.034  1.00  0.00    -0.151 C  
HETATM   14  O   UNL     1     -11.548   6.242  70.077  1.00  0.00    -0.425 OA 
HETATM   15  S   UNL     1     -10.113   6.283  69.940  1.00  0.00    -0.182 S  
HETATM   16  O   UNL     1      -9.702   5.173  68.840  1.00  0.00    -0.134 OA 
HETATM   17  O   UNL     1      -9.218   6.043  71.049  1.00  0.00    -0.155 OA 
BRANCH  13  18
HETATM   18  C   UNL     1      -9.806   8.904  69.912  1.00  0.00    -0.182 C  
HETATM   19  O   UNL     1      -9.031   9.249  70.794  1.00  0.00    -0.228 OA 
BRANCH  18  20
HETATM   20  O   UNL     1     -11.047   9.436  69.722  1.00  0.00    -0.233 OA 
BRANCH  20  21
HETATM   21  C   UNL     1     -11.448  10.407  70.705  1.00  0.00    -0.349 C  
HETATM   22  C   UNL     1     -12.970  10.505  70.921  1.00  0.00    -0.455 C  
HETATM   23  C   UNL     1     -13.599   9.147  71.301  1.00  0.00    -0.272 C  
HETATM   24  C   UNL     1     -13.326  11.598  71.956  1.00  0.00    -0.405 C  
HETATM   25  C   UNL     1     -13.142   8.569  72.633  1.00  0.00    -0.203 C  
BRANCH  24  26
HETATM   26  C   UNL     1     -12.834  12.996  71.572  1.00  0.00    -0.386 C  
BRANCH  26  27
HETATM   27  C   UNL     1     -13.329  14.057  72.555  1.00  0.00    -0.639 C  
HETATM   28  C   UNL     1     -14.171  15.107  71.844  1.00  0.00    -0.676 C  
ENDBRANCH  26  27
ENDBRANCH  24  26
ENDBRANCH  20  21
ENDBRANCH  18  20
ENDBRANCH  13  18
ENDBRANCH  12  13
ENDBRANCH  10  12
ENDBRANCH   9  10
ENDBRANCH   7   9
ENDBRANCH   3   4
ENDBRANCH   2   3
TORSDOF 11
ENDMDL
MODEL       72
REMARK 921   NORMALIZED FREE ENERGY PREDICTED BY IDOCK:   -4.67 KCAL/MOL
REMARK 922        TOTAL FREE ENERGY PREDICTED BY IDOCK:   -9.93 KCAL/MOL
REMARK 923 INTER-LIGAND FREE ENERGY PREDICTED BY IDOCK:   -8.71 KCAL/MOL
REMARK 924 INTRA-LIGAND FREE ENERGY PREDICTED BY IDOCK:   -1.21 KCAL/MOL
REMARK 927      BINDING AFFINITY PREDICTED BY RF-SCORE:    0.00 PKD
ROOT
HETATM    1  C   UNL     1     -12.719  15.965  73.744  1.00  0.00    -0.729 C  
HETATM    2  C   UNL     1     -12.132  16.038  72.342  1.00  0.00    -0.629 C  
ENDROOT
BRANCH   2   3
HETATM    3  C   UNL     1     -13.111  15.484  71.308  1.00  0.00    -0.581 C  
BRANCH   3   4
HETATM    4  C   UNL     1     -12.542  14.272  70.561  1.00  0.00    -0.418 C  
HETATM    5  C   UNL     1     -12.190  14.569  69.086  1.00  0.00    -0.234 C  
HETATM    6  C   UNL     1     -11.222  15.757  68.889  1.00  0.00    -0.332 C  
HETATM    7  C   UNL     1     -11.676  13.290  68.391  1.00  0.00    -0.354 C  
HETATM    8  C   UNL     1      -9.812  15.525  69.414  1.00  0.00    -0.283 C  
BRANCH   7   9
HETATM    9  O   UNL     1     -11.332  13.607  67.030  1.00  0.00    -0.303 OA 
BRANCH   9  10
HETATM   10  C   UNL     1     -11.423  12.582  66.143  1.00  0.00    -0.377 C  
HETATM   11  O   UNL     1     -12.429  12.285  65.515  1.00  0.00    -0.597 OA 
BRANCH  10  12
HETATM   12  C   UNL     1     -10.071  11.975  65.873  1.00  0.00    -0.264 C  
BRANCH  12  13
HETATM   13  C   UNL     1      -9.690  10.861  66.845  1.00  0.00    -0.181 C  
HETATM   14  O   UNL     1      -7.117  11.275  66.355  1.00  0.00    -0.126 OA 
HETATM   15  S   UNL     1      -8.039  11.058  67.442  1.00  0.00    -0.126 S  
HETATM   16  O   UNL     1      -8.250  12.478  68.186  1.00  0.00    -0.154 OA 
HETATM   17  O   UNL     1      -7.776  10.124  68.513  1.00  0.00    -0.085 OA 
BRANCH  13  18
HETATM   18  C   UNL     1      -9.774   9.528  66.172  1.00  0.00    -0.258 C  
HETATM   19  O   UNL     1      -9.203   9.249  65.126  1.00  0.00    -0.234 OA 
BRANCH  18  20
HETATM   20  O   UNL     1     -10.708   8.741  66.776  1.00  0.00    -0.206 OA 
BRANCH  20  21
HETATM   21  C   UNL     1     -10.218   7.950  67.873  1.00  0.00    -0.209 C  
HETATM   22  C   UNL     1     -10.820   6.535  67.959  1.00  0.00    -0.372 C  
HETATM   23  C   UNL     1     -10.619   5.730  66.655  1.00  0.00    -0.347 C  
HETATM   24  C   UNL     1     -10.281   5.762  69.184  1.00  0.00    -0.289 C  
HETATM   25  C   UNL     1      -9.171   5.420  66.300  1.00  0.00    -0.157 C  
BRANCH  24  26
HETATM   26  C   UNL     1     -10.561   6.453  70.522  1.00  0.00    -0.291 C  
BRANCH  26  27
HETATM   27  C   UNL     1     -12.046   6.775  70.689  1.00  0.00    -0.371 C  
HETATM   28  C   UNL     1     -12.497   6.530  72.124  1.00  0.00    -0.205 C  
ENDBRANCH  26  27
ENDBRANCH  24  26
ENDBRANCH  20  21
ENDBRANCH  18  20
ENDBRANCH  13  18
ENDBRANCH  12  13
ENDBRANCH  10  12
ENDBRANCH   9  10
ENDBRANCH   7   9
ENDBRANCH   3   4
ENDBRANCH   2   3
TORSDOF 11
ENDMDL
MODEL       73
REMARK 921   NORMALIZED FREE ENERGY PREDICTED BY IDOCK:   -4.66 KCAL/MOL
REMARK 922        TOTAL FREE ENERGY PREDICTED BY IDOCK:   -9.91 KCAL/MOL
REMARK 923 INTER-LIGAND FREE ENERGY PREDICTED BY IDOCK:   -7.74 KCAL/MOL
REMARK 924 INTRA-LIGAND FREE ENERGY PREDICTED BY IDOCK:   -2.17 KCAL/MOL
REMARK 927      BINDING AFFINITY PREDICTED BY RF-SCORE:    0.00 PKD
ROOT
HETATM    1  C   UNL     1     -12.053  12.786  63.728  1.00  0.00    -0.596 C  
HETATM    2  C   UNL     1     -10.548  12.662  63.921  1.00  0.00    -0.460 C  
ENDROOT
BRANCH   2   3
HETATM    3  C   UNL     1     -10.181  12.700  65.405  1.00  0.00    -0.301 C  
BRANCH   3   4
HETATM    4  C   UNL     1     -11.103  11.815  66.252  1.00  0.00    -0.364 C  
HETATM    5  C   UNL     1     -10.713  11.776  67.746  1.00  0.00    -0.244 C  
HETATM    6  C   UNL     1     -10.625  13.166  68.418  1.00  0.00    -0.264 C  
HETATM    7  C   UNL     1     -11.652  10.826  68.519  1.00  0.00    -0.255 C  
HETATM    8  C   UNL     1     -11.954  13.895  68.551  1.00  0.00    -0.394 C  
BRANCH   7   9
HETATM    9  O   UNL     1     -11.280  10.834  69.910  1.00  0.00    -0.269 OA 
BRANCH   9  10
HETATM   10  C   UNL     1     -12.194  10.313  70.770  1.00  0.00    -0.350 C  
HETATM   11  O   UNL     1     -13.406  10.431  70.662  1.00  0.00    -0.288 OA 
BRANCH  10  12
HETATM   12  C   UNL     1     -11.539   9.398  71.771  1.00  0.00    -0.433 C  
BRANCH  12  13
HETATM   13  C   UNL     1     -10.431   8.530  71.181  1.00  0.00    -0.221 C  
HETATM   14  O   UNL     1     -11.140   6.510  72.746  1.00  0.00    -0.247 OA 
HETATM   15  S   UNL     1     -10.778   6.810  71.383  1.00  0.00    -0.229 S  
HETATM   16  O   UNL     1     -12.133   6.760  70.502  1.00  0.00    -0.386 OA 
HETATM   17  O   UNL     1      -9.831   6.013  70.635  1.00  0.00    -0.174 OA 
BRANCH  13  18
HETATM   18  C   UNL     1      -9.127   8.813  71.856  1.00  0.00    -0.220 C  
HETATM   19  O   UNL     1      -8.908   8.606  73.042  1.00  0.00    -0.355 OA 
BRANCH  18  20
HETATM   20  O   UNL     1      -8.292   9.498  71.024  1.00  0.00    -0.294 OA 
BRANCH  20  21
HETATM   21  C   UNL     1      -7.935   8.803  69.816  1.00  0.00    -0.095 C  
HETATM   22  C   UNL     1      -8.105   9.632  68.530  1.00  0.00    -0.104 C  
HETATM   23  C   UNL     1      -7.313  10.958  68.575  1.00  0.00    -0.098 C  
HETATM   24  C   UNL     1      -7.746   8.808  67.272  1.00  0.00    -0.096 C  
HETATM   25  C   UNL     1      -5.799  10.809  68.640  1.00  0.00    -0.039 C  
BRANCH  24  26
HETATM   26  C   UNL     1      -8.587   7.539  67.105  1.00  0.00    -0.121 C  
BRANCH  26  27
HETATM   27  C   UNL     1     -10.068   7.866  66.914  1.00  0.00    -0.362 C  
HETATM   28  C   UNL     1     -10.929   6.627  67.123  1.00  0.00    -0.478 C  
ENDBRANCH  26  27
ENDBRANCH  24  26
ENDBRANCH  20  21
ENDBRANCH  18  20
ENDBRANCH  13  18
ENDBRANCH  12  13
ENDBRANCH  10  12
ENDBRANCH   9  10
ENDBRANCH   7   9
ENDBRANCH   3   4
ENDBRANCH   2   3
TORSDOF 11
ENDMDL
MODEL       74
REMARK 921   NORMALIZED FREE ENERGY PREDICTED BY IDOCK:   -4.61 KCAL/MOL
REMARK 922        TOTAL FREE ENERGY PREDICTED BY IDOCK:   -9.82 KCAL/MOL
REMARK 923 INTER-LIGAND FREE ENERGY PREDICTED BY IDOCK:   -8.06 KCAL/MOL
REMARK 924 INTRA-LIGAND FREE ENERGY PREDICTED BY IDOCK:   -1.76 KCAL/MOL
REMARK 927      BINDING AFFINITY PREDICTED BY RF-SCORE:    0.00 PKD
ROOT
HETATM    1  C   UNL     1     -12.497  15.817  71.806  1.00  0.00    -0.524 C  
HETATM    2  C   UNL     1     -12.045  14.551  71.091  1.00  0.00    -0.408 C  
ENDROOT
BRANCH   2   3
HETATM    3  C   UNL     1     -11.881  14.798  69.592  1.00  0.00    -0.362 C  
BRANCH   3   4
HETATM    4  C   UNL     1     -11.591  13.504  68.820  1.00  0.00    -0.362 C  
HETATM    5  C   UNL     1     -11.943  13.593  67.319  1.00  0.00    -0.420 C  
HETATM    6  C   UNL     1     -11.263  14.763  66.573  1.00  0.00    -0.342 C  
HETATM    7  C   UNL     1     -11.674  12.240  66.626  1.00  0.00    -0.349 C  
HETATM    8  C   UNL     1      -9.751  14.645  66.443  1.00  0.00    -0.315 C  
BRANCH   7   9
HETATM    9  O   UNL     1     -11.986  12.364  65.226  1.00  0.00    -0.404 OA 
BRANCH   9  10
HETATM   10  C   UNL     1     -11.049  11.884  64.367  1.00  0.00    -0.336 C  
HETATM   11  O   UNL     1     -10.733  12.409  63.309  1.00  0.00    -0.416 OA 
BRANCH  10  12
HETATM   12  C   UNL     1     -10.298  10.727  64.972  1.00  0.00    -0.357 C  
BRANCH  12  13
HETATM   13  C   UNL     1      -8.788  10.938  65.040  1.00  0.00    -0.139 C  
HETATM   14  O   UNL     1      -8.376   8.379  64.482  1.00  0.00    -0.166 OA 
HETATM   15  S   UNL     1      -7.919   9.700  64.129  1.00  0.00    -0.154 S  
HETATM   16  O   UNL     1      -8.522  10.045  62.669  1.00  0.00    -0.142 OA 
HETATM   17  O   UNL     1      -6.517  10.038  64.030  1.00  0.00    -0.122 OA 
BRANCH  13  18
HETATM   18  C   UNL     1      -8.314  10.877  66.457  1.00  0.00    -0.155 C  
HETATM   19  O   UNL     1      -7.821  11.822  67.058  1.00  0.00    -0.155 OA 
BRANCH  18  20
HETATM   20  O   UNL     1      -8.335   9.594  66.918  1.00  0.00    -0.116 OA 
BRANCH  20  21
HETATM   21  C   UNL     1      -8.902   9.430  68.229  1.00  0.00    -0.128 C  
HETATM   22  C   UNL     1     -10.342   8.883  68.237  1.00  0.00    -0.250 C  
HETATM   23  C   UNL     1     -10.466   7.539  67.486  1.00  0.00    -0.341 C  
HETATM   24  C   UNL     1     -10.900   8.775  69.676  1.00  0.00    -0.175 C  
HETATM   25  C   UNL     1      -9.699   6.377  68.102  1.00  0.00    -0.122 C  
BRANCH  24  26
HETATM   26  C   UNL     1     -10.918  10.106  70.432  1.00  0.00    -0.386 C  
BRANCH  26  27
HETATM   27  C   UNL     1     -12.334  10.487  70.868  1.00  0.00    -0.490 C  
HETATM   28  C   UNL     1     -13.038   9.303  71.517  1.00  0.00    -0.430 C  
ENDBRANCH  26  27
ENDBRANCH  24  26
ENDBRANCH  20  21
ENDBRANCH  18  20
ENDBRANCH  13  18
ENDBRANCH  12  13
ENDBRANCH  10  12
ENDBRANCH   9  10
ENDBRANCH   7   9
ENDBRANCH   3   4
ENDBRANCH   2   3
TORSDOF 11
ENDMDL
MODEL       75
REMARK 921   NORMALIZED FREE ENERGY PREDICTED BY IDOCK:   -4.60 KCAL/MOL
REMARK 922        TOTAL FREE ENERGY PREDICTED BY IDOCK:   -9.81 KCAL/MOL
REMARK 923 INTER-LIGAND FREE ENERGY PREDICTED BY IDOCK:   -7.40 KCAL/MOL
REMARK 924 INTRA-LIGAND FREE ENERGY PREDICTED BY IDOCK:   -2.41 KCAL/MOL
REMARK 927      BINDING AFFINITY PREDICTED BY RF-SCORE:    0.00 PKD
ROOT
HETATM    1  C   UNL     1     -12.085  12.115  63.703  1.00  0.00    -0.648 C  
HETATM    2  C   UNL     1     -10.694  11.677  63.265  1.00  0.00    -0.404 C  
ENDROOT
BRANCH   2   3
HETATM    3  C   UNL     1      -9.782  11.460  64.472  1.00  0.00    -0.268 C  
BRANCH   3   4
HETATM    4  C   UNL     1     -10.447  10.599  65.553  1.00  0.00    -0.246 C  
HETATM    5  C   UNL     1      -9.702   9.274  65.827  1.00  0.00    -0.339 C  
HETATM    6  C   UNL     1      -8.211   9.445  66.195  1.00  0.00    -0.111 C  
HETATM    7  C   UNL     1     -10.460   8.443  66.884  1.00  0.00    -0.289 C  
HETATM    8  C   UNL     1      -7.957  10.126  67.532  1.00  0.00    -0.106 C  
BRANCH   7   9
HETATM    9  O   UNL     1      -9.727   7.231  67.136  1.00  0.00    -0.148 OA 
BRANCH   9  10
HETATM   10  C   UNL     1     -10.453   6.190  67.623  1.00  0.00    -0.234 C  
HETATM   11  O   UNL     1     -10.598   5.113  67.063  1.00  0.00    -0.223 OA 
BRANCH  10  12
HETATM   12  C   UNL     1     -10.899   6.453  69.037  1.00  0.00    -0.385 C  
BRANCH  12  13
HETATM   13  C   UNL     1      -9.753   6.524  70.043  1.00  0.00    -0.165 C  
HETATM   14  O   UNL     1     -11.363   5.701  71.981  1.00  0.00    -0.250 OA 
HETATM   15  S   UNL     1     -10.047   5.480  71.436  1.00  0.00    -0.208 S  
HETATM   16  O   UNL     1     -10.083   4.071  70.644  1.00  0.00    -0.143 OA 
HETATM   17  O   UNL     1      -8.865   5.399  72.264  1.00  0.00    -0.129 OA 
BRANCH  13  18
HETATM   18  C   UNL     1      -9.586   7.922  70.548  1.00  0.00    -0.170 C  
HETATM   19  O   UNL     1      -8.579   8.334  71.109  1.00  0.00    -0.123 OA 
BRANCH  18  20
HETATM   20  O   UNL     1     -10.761   8.608  70.467  1.00  0.00    -0.210 OA 
BRANCH  20  21
HETATM   21  C   UNL     1     -10.623  10.026  70.270  1.00  0.00    -0.295 C  
HETATM   22  C   UNL     1     -11.861  10.708  69.658  1.00  0.00    -0.358 C  
HETATM   23  C   UNL     1     -13.141  10.458  70.486  1.00  0.00    -0.203 C  
HETATM   24  C   UNL     1     -11.623  12.220  69.436  1.00  0.00    -0.378 C  
HETATM   25  C   UNL     1     -13.133  11.050  71.889  1.00  0.00    -0.525 C  
BRANCH  24  26
HETATM   26  C   UNL     1     -10.437  12.530  68.518  1.00  0.00    -0.246 C  
BRANCH  26  27
HETATM   27  C   UNL     1     -10.783  13.615  67.498  1.00  0.00    -0.266 C  
HETATM   28  C   UNL     1     -12.264  13.575  67.144  1.00  0.00    -0.328 C  
ENDBRANCH  26  27
ENDBRANCH  24  26
ENDBRANCH  20  21
ENDBRANCH  18  20
ENDBRANCH  13  18
ENDBRANCH  12  13
ENDBRANCH  10  12
ENDBRANCH   9  10
ENDBRANCH   7   9
ENDBRANCH   3   4
ENDBRANCH   2   3
TORSDOF 11
ENDMDL
MODEL       76
REMARK 921   NORMALIZED FREE ENERGY PREDICTED BY IDOCK:   -4.60 KCAL/MOL
REMARK 922        TOTAL FREE ENERGY PREDICTED BY IDOCK:   -9.81 KCAL/MOL
REMARK 923 INTER-LIGAND FREE ENERGY PREDICTED BY IDOCK:   -8.54 KCAL/MOL
REMARK 924 INTRA-LIGAND FREE ENERGY PREDICTED BY IDOCK:   -1.27 KCAL/MOL
REMARK 927      BINDING AFFINITY PREDICTED BY RF-SCORE:    0.00 PKD
ROOT
HETATM    1  C   UNL     1      -9.986  19.916  66.157  1.00  0.00    -0.593 C  
HETATM    2  C   UNL     1     -10.898  19.292  67.203  1.00  0.00    -0.543 C  
ENDROOT
BRANCH   2   3
HETATM    3  C   UNL     1     -10.092  18.487  68.223  1.00  0.00    -0.424 C  
BRANCH   3   4
HETATM    4  C   UNL     1     -10.553  17.027  68.304  1.00  0.00    -0.372 C  
HETATM    5  C   UNL     1     -10.525  16.298  66.943  1.00  0.00    -0.302 C  
HETATM    6  C   UNL     1      -9.154  16.332  66.230  1.00  0.00    -0.366 C  
HETATM    7  C   UNL     1     -11.053  14.856  67.098  1.00  0.00    -0.332 C  
HETATM    8  C   UNL     1      -8.052  15.549  66.927  1.00  0.00    -0.284 C  
BRANCH   7   9
HETATM    9  O   UNL     1     -10.987  14.196  65.820  1.00  0.00    -0.293 OA 
BRANCH   9  10
HETATM   10  C   UNL     1     -11.322  12.879  65.816  1.00  0.00    -0.315 C  
HETATM   11  O   UNL     1     -12.450  12.443  65.639  1.00  0.00    -0.640 OA 
BRANCH  10  12
HETATM   12  C   UNL     1     -10.096  12.007  65.857  1.00  0.00    -0.264 C  
BRANCH  12  13
HETATM   13  C   UNL     1      -9.817  11.396  67.227  1.00  0.00    -0.189 C  
HETATM   14  O   UNL     1      -7.624  10.234  66.297  1.00  0.00    -0.106 OA 
HETATM   15  S   UNL     1      -8.109  10.992  67.423  1.00  0.00    -0.126 S  
HETATM   16  O   UNL     1      -7.518  12.490  67.286  1.00  0.00    -0.150 OA 
HETATM   17  O   UNL     1      -7.833  10.618  68.792  1.00  0.00    -0.107 OA 
BRANCH  13  18
HETATM   18  C   UNL     1     -10.606  10.139  67.411  1.00  0.00    -0.272 C  
HETATM   19  O   UNL     1     -10.729   9.273  66.555  1.00  0.00    -0.107 OA 
BRANCH  18  20
HETATM   20  O   UNL     1     -11.312  10.178  68.577  1.00  0.00    -0.208 OA 
BRANCH  20  21
HETATM   21  C   UNL     1     -10.873   9.250  69.584  1.00  0.00    -0.212 C  
HETATM   22  C   UNL     1     -10.846   9.823  71.013  1.00  0.00    -0.378 C  
HETATM   23  C   UNL     1     -12.217  10.390  71.445  1.00  0.00    -0.461 C  
HETATM   24  C   UNL     1     -10.323   8.784  72.031  1.00  0.00    -0.411 C  
HETATM   25  C   UNL     1     -13.340   9.367  71.552  1.00  0.00    -0.458 C  
BRANCH  24  26
HETATM   26  C   UNL     1      -8.912   8.274  71.724  1.00  0.00    -0.241 C  
BRANCH  26  27
HETATM   27  C   UNL     1      -8.459   7.225  72.740  1.00  0.00    -0.132 C  
HETATM   28  C   UNL     1      -9.057   7.504  74.112  1.00  0.00    -0.249 C  
ENDBRANCH  26  27
ENDBRANCH  24  26
ENDBRANCH  20  21
ENDBRANCH  18  20
ENDBRANCH  13  18
ENDBRANCH  12  13
ENDBRANCH  10  12
ENDBRANCH   9  10
ENDBRANCH   7   9
ENDBRANCH   3   4
ENDBRANCH   2   3
TORSDOF 11
ENDMDL
MODEL       77
REMARK 921   NORMALIZED FREE ENERGY PREDICTED BY IDOCK:   -4.58 KCAL/MOL
REMARK 922        TOTAL FREE ENERGY PREDICTED BY IDOCK:   -9.78 KCAL/MOL
REMARK 923 INTER-LIGAND FREE ENERGY PREDICTED BY IDOCK:   -7.91 KCAL/MOL
REMARK 924 INTRA-LIGAND FREE ENERGY PREDICTED BY IDOCK:   -1.87 KCAL/MOL
REMARK 927      BINDING AFFINITY PREDICTED BY RF-SCORE:    0.00 PKD
ROOT
HETATM    1  C   UNL     1     -10.778  19.563  66.045  1.00  0.00    -0.529 C  
HETATM    2  C   UNL     1      -9.337  19.873  66.429  1.00  0.00    -0.493 C  
ENDROOT
BRANCH   2   3
HETATM    3  C   UNL     1      -8.631  18.627  66.961  1.00  0.00    -0.280 C  
BRANCH   3   4
HETATM    4  C   UNL     1      -9.248  18.129  68.274  1.00  0.00    -0.307 C  
HETATM    5  C   UNL     1      -9.463  16.600  68.309  1.00  0.00    -0.230 C  
HETATM    6  C   UNL     1      -8.189  15.770  68.028  1.00  0.00    -0.143 C  
HETATM    7  C   UNL     1     -10.134  16.184  69.636  1.00  0.00    -0.212 C  
HETATM    8  C   UNL     1      -7.113  15.871  69.099  1.00  0.00    -0.185 C  
BRANCH   7   9
HETATM    9  O   UNL     1     -10.294  14.754  69.649  1.00  0.00    -0.172 OA 
BRANCH   9  10
HETATM   10  C   UNL     1     -11.568  14.302  69.794  1.00  0.00    -0.293 C  
HETATM   11  O   UNL     1     -12.391  14.763  70.570  1.00  0.00    -0.297 OA 
BRANCH  10  12
HETATM   12  C   UNL     1     -11.908  13.287  68.735  1.00  0.00    -0.371 C  
BRANCH  12  13
HETATM   13  C   UNL     1     -10.742  12.940  67.814  1.00  0.00    -0.224 C  
HETATM   14  O   UNL     1     -12.423  12.403  65.836  1.00  0.00    -0.583 OA 
HETATM   15  S   UNL     1     -11.189  13.095  66.113  1.00  0.00    -0.303 S  
HETATM   16  O   UNL     1     -11.515  14.678  66.121  1.00  0.00    -0.346 OA 
HETATM   17  O   UNL     1     -10.021  12.970  65.271  1.00  0.00    -0.255 OA 
BRANCH  13  18
HETATM   18  C   UNL     1     -10.297  11.530  68.041  1.00  0.00    -0.190 C  
HETATM   19  O   UNL     1      -9.206  11.091  67.705  1.00  0.00    -0.147 OA 
BRANCH  18  20
HETATM   20  O   UNL     1     -11.330  10.766  68.498  1.00  0.00    -0.259 OA 
BRANCH  20  21
HETATM   21  C   UNL     1     -10.941   9.627  69.286  1.00  0.00    -0.168 C  
HETATM   22  C   UNL     1     -10.776   9.917  70.789  1.00  0.00    -0.350 C  
HETATM   23  C   UNL     1     -12.052  10.522  71.415  1.00  0.00    -0.380 C  
HETATM   24  C   UNL     1     -10.315   8.659  71.562  1.00  0.00    -0.341 C  
HETATM   25  C   UNL     1     -13.272   9.610  71.415  1.00  0.00    -0.469 C  
BRANCH  24  26
HETATM   26  C   UNL     1      -8.986   8.083  71.065  1.00  0.00    -0.160 C  
BRANCH  26  27
HETATM   27  C   UNL     1      -7.796   8.904  71.561  1.00  0.00    -0.107 C  
HETATM   28  C   UNL     1      -7.041   9.527  70.394  1.00  0.00    -0.120 C  
ENDBRANCH  26  27
ENDBRANCH  24  26
ENDBRANCH  20  21
ENDBRANCH  18  20
ENDBRANCH  13  18
ENDBRANCH  12  13
ENDBRANCH  10  12
ENDBRANCH   9  10
ENDBRANCH   7   9
ENDBRANCH   3   4
ENDBRANCH   2   3
TORSDOF 11
ENDMDL
MODEL       78
REMARK 921   NORMALIZED FREE ENERGY PREDICTED BY IDOCK:   -4.58 KCAL/MOL
REMARK 922        TOTAL FREE ENERGY PREDICTED BY IDOCK:   -9.77 KCAL/MOL
REMARK 923 INTER-LIGAND FREE ENERGY PREDICTED BY IDOCK:   -8.33 KCAL/MOL
REMARK 924 INTRA-LIGAND FREE ENERGY PREDICTED BY IDOCK:   -1.45 KCAL/MOL
REMARK 927      BINDING AFFINITY PREDICTED BY RF-SCORE:    0.00 PKD
ROOT
HETATM    1  C   UNL     1      -9.998  20.313  66.897  1.00  0.00    -0.592 C  
HETATM    2  C   UNL     1      -9.807  19.686  68.271  1.00  0.00    -0.521 C  
ENDROOT
BRANCH   2   3
HETATM    3  C   UNL     1      -9.697  18.165  68.168  1.00  0.00    -0.331 C  
BRANCH   3   4
HETATM    4  C   UNL     1     -10.473  17.607  66.969  1.00  0.00    -0.305 C  
HETATM    5  C   UNL     1     -10.100  16.149  66.621  1.00  0.00    -0.283 C  
HETATM    6  C   UNL     1     -10.248  15.155  67.796  1.00  0.00    -0.236 C  
HETATM    7  C   UNL     1     -10.882  15.681  65.374  1.00  0.00    -0.381 C  
HETATM    8  C   UNL     1     -11.679  14.919  68.255  1.00  0.00    -0.342 C  
BRANCH   7   9
HETATM    9  O   UNL     1     -10.534  14.313  65.094  1.00  0.00    -0.360 OA 
BRANCH   9  10
HETATM   10  C   UNL     1     -11.571  13.486  64.799  1.00  0.00    -0.349 C  
HETATM   11  O   UNL     1     -12.472  13.744  64.014  1.00  0.00    -0.674 OA 
BRANCH  10  12
HETATM   12  C   UNL     1     -11.372  12.124  65.409  1.00  0.00    -0.388 C  
BRANCH  12  13
HETATM   13  C   UNL     1      -9.997  11.926  66.042  1.00  0.00    -0.232 C  
HETATM   14  O   UNL     1      -9.839   9.491  65.006  1.00  0.00    -0.203 OA 
HETATM   15  S   UNL     1      -9.063  10.692  65.191  1.00  0.00    -0.209 S  
HETATM   16  O   UNL     1      -8.979  11.437  63.759  1.00  0.00    -0.006 OA 
HETATM   17  O   UNL     1      -7.700  10.672  65.670  1.00  0.00    -0.153 OA 
BRANCH  13  18
HETATM   18  C   UNL     1     -10.134  11.491  67.467  1.00  0.00    -0.183 C  
HETATM   19  O   UNL     1      -9.494  11.967  68.395  1.00  0.00    -0.201 OA 
BRANCH  18  20
HETATM   20  O   UNL     1     -10.920  10.381  67.559  1.00  0.00    -0.291 OA 
BRANCH  20  21
HETATM   21  C   UNL     1     -10.951   9.766  68.859  1.00  0.00    -0.150 C  
HETATM   22  C   UNL     1     -10.364   8.343  68.905  1.00  0.00    -0.231 C  
HETATM   23  C   UNL     1      -8.913   8.288  68.380  1.00  0.00    -0.136 C  
HETATM   24  C   UNL     1     -10.472   7.730  70.321  1.00  0.00    -0.225 C  
HETATM   25  C   UNL     1      -7.893   9.061  69.205  1.00  0.00    -0.095 C  
BRANCH  24  26
HETATM   26  C   UNL     1     -11.908   7.644  70.848  1.00  0.00    -0.272 C  
BRANCH  26  27
HETATM   27  C   UNL     1     -12.092   8.476  72.118  1.00  0.00    -0.449 C  
HETATM   28  C   UNL     1     -13.518   9.000  72.222  1.00  0.00    -0.529 C  
ENDBRANCH  26  27
ENDBRANCH  24  26
ENDBRANCH  20  21
ENDBRANCH  18  20
ENDBRANCH  13  18
ENDBRANCH  12  13
ENDBRANCH  10  12
ENDBRANCH   9  10
ENDBRANCH   7   9
ENDBRANCH   3   4
ENDBRANCH   2   3
TORSDOF 11
ENDMDL
MODEL       79
REMARK 921   NORMALIZED FREE ENERGY PREDICTED BY IDOCK:   -4.57 KCAL/MOL
REMARK 922        TOTAL FREE ENERGY PREDICTED BY IDOCK:   -9.76 KCAL/MOL
REMARK 923 INTER-LIGAND FREE ENERGY PREDICTED BY IDOCK:   -8.68 KCAL/MOL
REMARK 924 INTRA-LIGAND FREE ENERGY PREDICTED BY IDOCK:   -1.09 KCAL/MOL
REMARK 927      BINDING AFFINITY PREDICTED BY RF-SCORE:    0.00 PKD
ROOT
HETATM    1  C   UNL     1      -5.366  20.552  67.115  1.00  0.00    -0.197 C  
HETATM    2  C   UNL     1      -6.860  20.772  66.916  1.00  0.00    -0.368 C  
ENDROOT
BRANCH   2   3
HETATM    3  C   UNL     1      -7.664  20.133  68.047  1.00  0.00    -0.267 C  
BRANCH   3   4
HETATM    4  C   UNL     1      -8.992  19.545  67.554  1.00  0.00    -0.367 C  
HETATM    5  C   UNL     1      -8.814  18.345  66.598  1.00  0.00    -0.297 C  
HETATM    6  C   UNL     1      -7.959  17.192  67.173  1.00  0.00    -0.216 C  
HETATM    7  C   UNL     1     -10.189  17.846  66.105  1.00  0.00    -0.343 C  
HETATM    8  C   UNL     1      -8.589  16.454  68.345  1.00  0.00    -0.209 C  
BRANCH   7   9
HETATM    9  O   UNL     1      -9.990  16.713  65.240  1.00  0.00    -0.539 OA 
BRANCH   9  10
HETATM   10  C   UNL     1     -11.118  16.143  64.741  1.00  0.00    -0.333 C  
HETATM   11  O   UNL     1     -11.695  16.503  63.725  1.00  0.00    -1.086 OA 
BRANCH  10  12
HETATM   12  C   UNL     1     -11.465  14.880  65.485  1.00  0.00    -0.307 C  
BRANCH  12  13
HETATM   13  C   UNL     1     -10.757  13.637  64.954  1.00  0.00    -0.391 C  
HETATM   14  O   UNL     1     -13.043  12.294  64.967  1.00  0.00    -0.546 OA 
HETATM   15  S   UNL     1     -11.884  12.544  64.146  1.00  0.00    -0.452 S  
HETATM   16  O   UNL     1     -12.340  13.545  62.961  1.00  0.00    -0.661 OA 
HETATM   17  O   UNL     1     -11.166  11.487  63.470  1.00  0.00    -0.413 OA 
BRANCH  13  18
HETATM   18  C   UNL     1     -10.114  12.882  66.074  1.00  0.00    -0.285 C  
HETATM   19  O   UNL     1     -10.363  13.065  67.257  1.00  0.00    -0.236 OA 
BRANCH  18  20
HETATM   20  O   UNL     1      -9.095  12.105  65.609  1.00  0.00    -0.043 OA 
BRANCH  20  21
HETATM   21  C   UNL     1      -8.335  11.429  66.626  1.00  0.00    -0.172 C  
HETATM   22  C   UNL     1      -8.689   9.941  66.804  1.00  0.00    -0.137 C  
HETATM   23  C   UNL     1      -8.553   9.142  65.489  1.00  0.00    -0.192 C  
HETATM   24  C   UNL     1      -7.865   9.294  67.941  1.00  0.00    -0.092 C  
HETATM   25  C   UNL     1      -7.140   9.050  64.927  1.00  0.00    -0.091 C  
BRANCH  24  26
HETATM   26  C   UNL     1      -8.055   9.969  69.303  1.00  0.00    -0.141 C  
BRANCH  26  27
HETATM   27  C   UNL     1      -7.922   8.968  70.451  1.00  0.00    -0.134 C  
HETATM   28  C   UNL     1      -9.217   8.192  70.647  1.00  0.00    -0.162 C  
ENDBRANCH  26  27
ENDBRANCH  24  26
ENDBRANCH  20  21
ENDBRANCH  18  20
ENDBRANCH  13  18
ENDBRANCH  12  13
ENDBRANCH  10  12
ENDBRANCH   9  10
ENDBRANCH   7   9
ENDBRANCH   3   4
ENDBRANCH   2   3
TORSDOF 11
ENDMDL
MODEL       80
REMARK 921   NORMALIZED FREE ENERGY PREDICTED BY IDOCK:   -4.56 KCAL/MOL
REMARK 922        TOTAL FREE ENERGY PREDICTED BY IDOCK:   -9.74 KCAL/MOL
REMARK 923 INTER-LIGAND FREE ENERGY PREDICTED BY IDOCK:   -8.32 KCAL/MOL
REMARK 924 INTRA-LIGAND FREE ENERGY PREDICTED BY IDOCK:   -1.41 KCAL/MOL
REMARK 927      BINDING AFFINITY PREDICTED BY RF-SCORE:    0.00 PKD
ROOT
HETATM    1  C   UNL     1      -8.439   8.070  73.882  1.00  0.00    -0.321 C  
HETATM    2  C   UNL     1      -8.349   8.031  72.363  1.00  0.00    -0.205 C  
ENDROOT
BRANCH   2   3
HETATM    3  C   UNL     1      -9.610   7.417  71.755  1.00  0.00    -0.168 C  
BRANCH   3   4
HETATM    4  C   UNL     1     -10.679   8.473  71.450  1.00  0.00    -0.317 C  
HETATM    5  C   UNL     1     -10.173   9.613  70.539  1.00  0.00    -0.351 C  
HETATM    6  C   UNL     1      -9.569   9.137  69.198  1.00  0.00    -0.161 C  
HETATM    7  C   UNL     1     -11.287  10.660  70.324  1.00  0.00    -0.319 C  
HETATM    8  C   UNL     1     -10.565   8.506  68.237  1.00  0.00    -0.173 C  
BRANCH   7   9
HETATM    9  O   UNL     1     -10.794  11.692  69.450  1.00  0.00    -0.196 OA 
BRANCH   9  10
HETATM   10  C   UNL     1     -11.740  12.427  68.809  1.00  0.00    -0.332 C  
HETATM   11  O   UNL     1     -12.043  12.307  67.631  1.00  0.00    -0.502 OA 
BRANCH  10  12
HETATM   12  C   UNL     1     -12.516  13.279  69.779  1.00  0.00    -0.072 C  
BRANCH  12  13
HETATM   13  C   UNL     1     -11.676  14.348  70.471  1.00  0.00    -0.264 C  
HETATM   14  O   UNL     1     -13.865  15.706  71.096  1.00  0.00    -0.583 OA 
HETATM   15  S   UNL     1     -12.622  15.246  71.662  1.00  0.00    -0.415 S  
HETATM   16  O   UNL     1     -12.967  14.007  72.640  1.00  0.00    -0.416 OA 
HETATM   17  O   UNL     1     -11.761  16.100  72.449  1.00  0.00    -0.482 OA 
BRANCH  13  18
HETATM   18  C   UNL     1     -11.151  15.330  69.473  1.00  0.00    -0.281 C  
HETATM   19  O   UNL     1     -11.849  15.930  68.666  1.00  0.00    -0.388 OA 
BRANCH  18  20
HETATM   20  O   UNL     1      -9.788  15.323  69.460  1.00  0.00    -0.234 OA 
BRANCH  20  21
HETATM   21  C   UNL     1      -9.188  15.890  68.282  1.00  0.00    -0.189 C  
HETATM   22  C   UNL     1      -8.135  16.978  68.561  1.00  0.00    -0.251 C  
HETATM   23  C   UNL     1      -7.003  16.477  69.485  1.00  0.00    -0.136 C  
HETATM   24  C   UNL     1      -7.569  17.569  67.249  1.00  0.00    -0.217 C  
HETATM   25  C   UNL     1      -6.139  15.363  68.909  1.00  0.00    -0.098 C  
BRANCH  24  26
HETATM   26  C   UNL     1      -8.634  18.194  66.344  1.00  0.00    -0.251 C  
BRANCH  26  27
HETATM   27  C   UNL     1      -9.175  19.499  66.929  1.00  0.00    -0.408 C  
HETATM   28  C   UNL     1     -10.697  19.481  66.982  1.00  0.00    -0.592 C  
ENDBRANCH  26  27
ENDBRANCH  24  26
ENDBRANCH  20  21
ENDBRANCH  18  20
ENDBRANCH  13  18
ENDBRANCH  12  13
ENDBRANCH  10  12
ENDBRANCH   9  10
ENDBRANCH   7   9
ENDBRANCH   3   4
ENDBRANCH   2   3
TORSDOF 11
ENDMDL
MODEL       81
REMARK 921   NORMALIZED FREE ENERGY PREDICTED BY IDOCK:   -4.55 KCAL/MOL
REMARK 922        TOTAL FREE ENERGY PREDICTED BY IDOCK:   -9.73 KCAL/MOL
REMARK 923 INTER-LIGAND FREE ENERGY PREDICTED BY IDOCK:   -8.16 KCAL/MOL
REMARK 924 INTRA-LIGAND FREE ENERGY PREDICTED BY IDOCK:   -1.57 KCAL/MOL
REMARK 927      BINDING AFFINITY PREDICTED BY RF-SCORE:    0.00 PKD
ROOT
HETATM    1  C   UNL     1     -12.378  15.366  74.381  1.00  0.00    -0.766 C  
HETATM    2  C   UNL     1     -13.238  15.930  73.258  1.00  0.00    -0.698 C  
ENDROOT
BRANCH   2   3
HETATM    3  C   UNL     1     -13.987  14.816  72.528  1.00  0.00    -0.527 C  
BRANCH   3   4
HETATM    4  C   UNL     1     -13.036  13.761  71.950  1.00  0.00    -0.474 C  
HETATM    5  C   UNL     1     -12.862  13.864  70.419  1.00  0.00    -0.200 C  
HETATM    6  C   UNL     1     -12.401  15.254  69.922  1.00  0.00    -0.323 C  
HETATM    7  C   UNL     1     -11.937  12.739  69.908  1.00  0.00    -0.298 C  
HETATM    8  C   UNL     1     -10.989  15.643  70.337  1.00  0.00    -0.366 C  
BRANCH   7   9
HETATM    9  O   UNL     1     -11.773  12.881  68.485  1.00  0.00    -0.300 OA 
BRANCH   9  10
HETATM   10  C   UNL     1     -11.015  11.930  67.879  1.00  0.00    -0.222 C  
HETATM   11  O   UNL     1     -11.287  11.387  66.818  1.00  0.00    -0.363 OA 
BRANCH  10  12
HETATM   12  C   UNL     1      -9.689  11.767  68.575  1.00  0.00    -0.181 C  
BRANCH  12  13
HETATM   13  C   UNL     1      -8.508  12.341  67.798  1.00  0.00    -0.163 C  
HETATM   14  O   UNL     1      -6.866  10.615  68.959  1.00  0.00    -0.060 OA 
HETATM   15  S   UNL     1      -7.187  11.177  67.671  1.00  0.00    -0.098 S  
HETATM   16  O   UNL     1      -7.980  10.043  66.835  1.00  0.00    -0.112 OA 
HETATM   17  O   UNL     1      -6.176  11.659  66.758  1.00  0.00    -0.143 OA 
BRANCH  13  18
HETATM   18  C   UNL     1      -7.976  13.561  68.480  1.00  0.00    -0.119 C  
HETATM   19  O   UNL     1      -7.038  13.555  69.266  1.00  0.00    -0.069 OA 
BRANCH  18  20
HETATM   20  O   UNL     1      -8.787  14.633  68.253  1.00  0.00    -0.163 OA 
BRANCH  20  21
HETATM   21  C   UNL     1      -9.157  14.835  66.878  1.00  0.00    -0.248 C  
HETATM   22  C   UNL     1     -10.426  15.683  66.676  1.00  0.00    -0.301 C  
HETATM   23  C   UNL     1     -10.322  17.067  67.355  1.00  0.00    -0.319 C  
HETATM   24  C   UNL     1     -10.785  15.819  65.178  1.00  0.00    -0.455 C  
HETATM   25  C   UNL     1      -9.250  17.990  66.791  1.00  0.00    -0.285 C  
BRANCH  24  26
HETATM   26  C   UNL     1     -11.022  14.478  64.476  1.00  0.00    -0.264 C  
BRANCH  26  27
HETATM   27  C   UNL     1     -12.513  14.198  64.288  1.00  0.00    -0.301 C  
HETATM   28  C   UNL     1     -12.804  12.707  64.401  1.00  0.00    -0.344 C  
ENDBRANCH  26  27
ENDBRANCH  24  26
ENDBRANCH  20  21
ENDBRANCH  18  20
ENDBRANCH  13  18
ENDBRANCH  12  13
ENDBRANCH  10  12
ENDBRANCH   9  10
ENDBRANCH   7   9
ENDBRANCH   3   4
ENDBRANCH   2   3
TORSDOF 11
ENDMDL
MODEL       82
REMARK 921   NORMALIZED FREE ENERGY PREDICTED BY IDOCK:   -4.53 KCAL/MOL
REMARK 922        TOTAL FREE ENERGY PREDICTED BY IDOCK:   -9.69 KCAL/MOL
REMARK 923 INTER-LIGAND FREE ENERGY PREDICTED BY IDOCK:   -7.99 KCAL/MOL
REMARK 924 INTRA-LIGAND FREE ENERGY PREDICTED BY IDOCK:   -1.69 KCAL/MOL
REMARK 927      BINDING AFFINITY PREDICTED BY RF-SCORE:    0.00 PKD
ROOT
HETATM    1  C   UNL     1     -10.770   5.629  69.965  1.00  0.00    -0.390 C  
HETATM    2  C   UNL     1      -9.867   6.284  71.002  1.00  0.00    -0.206 C  
ENDROOT
BRANCH   2   3
HETATM    3  C   UNL     1     -10.689   7.045  72.042  1.00  0.00    -0.243 C  
BRANCH   3   4
HETATM    4  C   UNL     1     -10.593   8.565  71.856  1.00  0.00    -0.392 C  
HETATM    5  C   UNL     1     -11.590   9.120  70.815  1.00  0.00    -0.329 C  
HETATM    6  C   UNL     1     -13.067   8.760  71.092  1.00  0.00    -0.110 C  
HETATM    7  C   UNL     1     -11.394  10.642  70.647  1.00  0.00    -0.198 C  
HETATM    8  C   UNL     1     -13.659   9.405  72.337  1.00  0.00    -0.498 C  
BRANCH   7   9
HETATM    9  O   UNL     1     -12.355  11.132  69.694  1.00  0.00    -0.296 OA 
BRANCH   9  10
HETATM   10  C   UNL     1     -11.881  11.364  68.442  1.00  0.00    -0.274 C  
HETATM   11  O   UNL     1     -11.649  10.501  67.608  1.00  0.00    -0.447 OA 
BRANCH  10  12
HETATM   12  C   UNL     1     -11.862  12.838  68.132  1.00  0.00    -0.372 C  
BRANCH  12  13
HETATM   13  C   UNL     1     -10.873  13.227  67.038  1.00  0.00    -0.269 C  
HETATM   14  O   UNL     1     -11.098  15.784  67.701  1.00  0.00    -0.323 OA 
HETATM   15  S   UNL     1     -10.112  14.785  67.375  1.00  0.00    -0.231 S  
HETATM   16  O   UNL     1      -9.373  14.368  68.752  1.00  0.00    -0.200 OA 
HETATM   17  O   UNL     1      -9.032  15.030  66.445  1.00  0.00    -0.280 OA 
BRANCH  13  18
HETATM   18  C   UNL     1     -11.568  13.336  65.718  1.00  0.00    -0.337 C  
HETATM   19  O   UNL     1     -12.722  13.716  65.579  1.00  0.00    -0.504 OA 
BRANCH  18  20
HETATM   20  O   UNL     1     -10.811  12.784  64.727  1.00  0.00    -0.284 OA 
BRANCH  20  21
HETATM   21  C   UNL     1      -9.796  11.870  65.176  1.00  0.00    -0.218 C  
HETATM   22  C   UNL     1      -9.878  10.466  64.548  1.00  0.00    -0.405 C  
HETATM   23  C   UNL     1      -9.840  10.509  63.005  1.00  0.00    -0.267 C  
HETATM   24  C   UNL     1      -8.786   9.527  65.111  1.00  0.00    -0.200 C  
HETATM   25  C   UNL     1      -8.543  11.033  62.401  1.00  0.00    -0.341 C  
BRANCH  24  26
HETATM   26  C   UNL     1      -8.850   9.346  66.630  1.00  0.00    -0.151 C  
BRANCH  26  27
HETATM   27  C   UNL     1      -7.668  10.019  67.328  1.00  0.00    -0.095 C  
HETATM   28  C   UNL     1      -8.142  10.875  68.496  1.00  0.00    -0.137 C  
ENDBRANCH  26  27
ENDBRANCH  24  26
ENDBRANCH  20  21
ENDBRANCH  18  20
ENDBRANCH  13  18
ENDBRANCH  12  13
ENDBRANCH  10  12
ENDBRANCH   9  10
ENDBRANCH   7   9
ENDBRANCH   3   4
ENDBRANCH   2   3
TORSDOF 11
ENDMDL
MODEL       83
REMARK 921   NORMALIZED FREE ENERGY PREDICTED BY IDOCK:   -4.51 KCAL/MOL
REMARK 922        TOTAL FREE ENERGY PREDICTED BY IDOCK:   -9.66 KCAL/MOL
REMARK 923 INTER-LIGAND FREE ENERGY PREDICTED BY IDOCK:   -8.19 KCAL/MOL
REMARK 924 INTRA-LIGAND FREE ENERGY PREDICTED BY IDOCK:   -1.48 KCAL/MOL
REMARK 927      BINDING AFFINITY PREDICTED BY RF-SCORE:    0.00 PKD
ROOT
HETATM    1  C   UNL     1     -10.491   4.991  70.317  1.00  0.00    -0.243 C  
HETATM    2  C   UNL     1      -9.853   5.552  71.581  1.00  0.00    -0.221 C  
ENDROOT
BRANCH   2   3
HETATM    3  C   UNL     1     -10.865   6.355  72.396  1.00  0.00    -0.267 C  
BRANCH   3   4
HETATM    4  C   UNL     1     -10.647   7.867  72.263  1.00  0.00    -0.331 C  
HETATM    5  C   UNL     1     -11.591   8.536  71.240  1.00  0.00    -0.332 C  
HETATM    6  C   UNL     1     -13.094   8.286  71.502  1.00  0.00    -0.313 C  
HETATM    7  C   UNL     1     -11.274  10.042  71.125  1.00  0.00    -0.267 C  
HETATM    8  C   UNL     1     -13.638   8.934  72.767  1.00  0.00    -0.275 C  
BRANCH   7   9
HETATM    9  O   UNL     1     -12.188  10.639  70.186  1.00  0.00    -0.300 OA 
BRANCH   9  10
HETATM   10  C   UNL     1     -11.652  11.017  68.996  1.00  0.00    -0.323 C  
HETATM   11  O   UNL     1     -12.234  11.665  68.139  1.00  0.00    -0.537 OA 
BRANCH  10  12
HETATM   12  C   UNL     1     -10.179  10.709  68.942  1.00  0.00    -0.216 C  
BRANCH  12  13
HETATM   13  C   UNL     1      -9.484  11.234  67.688  1.00  0.00    -0.167 C  
HETATM   14  O   UNL     1      -7.875   9.127  67.662  1.00  0.00    -0.096 OA 
HETATM   15  S   UNL     1      -8.693   9.934  66.792  1.00  0.00    -0.128 S  
HETATM   16  O   UNL     1     -10.019   9.076  66.446  1.00  0.00    -0.273 OA 
HETATM   17  O   UNL     1      -8.229  10.415  65.510  1.00  0.00    -0.153 OA 
BRANCH  13  18
HETATM   18  C   UNL     1      -8.436  12.238  68.052  1.00  0.00    -0.171 C  
HETATM   19  O   UNL     1      -7.496  12.010  68.800  1.00  0.00    -0.114 OA 
BRANCH  18  20
HETATM   20  O   UNL     1      -8.774  13.476  67.589  1.00  0.00    -0.170 OA 
BRANCH  20  21
HETATM   21  C   UNL     1      -9.669  13.480  66.464  1.00  0.00    -0.283 C  
HETATM   22  C   UNL     1     -10.924  14.353  66.650  1.00  0.00    -0.318 C  
HETATM   23  C   UNL     1     -10.575  15.818  66.994  1.00  0.00    -0.316 C  
HETATM   24  C   UNL     1     -11.858  14.273  65.420  1.00  0.00    -0.363 C  
HETATM   25  C   UNL     1      -9.834  16.583  65.905  1.00  0.00    -0.324 C  
BRANCH  24  26
HETATM   26  C   UNL     1     -12.339  12.854  65.102  1.00  0.00    -0.547 C  
BRANCH  26  27
HETATM   27  C   UNL     1     -12.116  12.501  63.631  1.00  0.00    -0.642 C  
HETATM   28  C   UNL     1     -10.861  11.656  63.460  1.00  0.00    -0.497 C  
ENDBRANCH  26  27
ENDBRANCH  24  26
ENDBRANCH  20  21
ENDBRANCH  18  20
ENDBRANCH  13  18
ENDBRANCH  12  13
ENDBRANCH  10  12
ENDBRANCH   9  10
ENDBRANCH   7   9
ENDBRANCH   3   4
ENDBRANCH   2   3
TORSDOF 11
ENDMDL
MODEL       84
REMARK 921   NORMALIZED FREE ENERGY PREDICTED BY IDOCK:   -4.50 KCAL/MOL
REMARK 922        TOTAL FREE ENERGY PREDICTED BY IDOCK:   -9.65 KCAL/MOL
REMARK 923 INTER-LIGAND FREE ENERGY PREDICTED BY IDOCK:   -7.55 KCAL/MOL
REMARK 924 INTRA-LIGAND FREE ENERGY PREDICTED BY IDOCK:   -2.09 KCAL/MOL
REMARK 927      BINDING AFFINITY PREDICTED BY RF-SCORE:    0.00 PKD
ROOT
HETATM    1  C   UNL     1     -11.784  12.771  63.558  1.00  0.00    -0.597 C  
HETATM    2  C   UNL     1     -12.696  12.930  64.767  1.00  0.00    -0.442 C  
ENDROOT
BRANCH   2   3
HETATM    3  C   UNL     1     -11.889  13.249  66.025  1.00  0.00    -0.440 C  
BRANCH   3   4
HETATM    4  C   UNL     1     -11.758  12.035  66.952  1.00  0.00    -0.342 C  
HETATM    5  C   UNL     1     -10.486  11.198  66.692  1.00  0.00    -0.298 C  
HETATM    6  C   UNL     1      -9.168  12.004  66.761  1.00  0.00    -0.201 C  
HETATM    7  C   UNL     1     -10.454   9.969  67.625  1.00  0.00    -0.246 C  
HETATM    8  C   UNL     1      -8.813  12.529  68.144  1.00  0.00    -0.191 C  
BRANCH   7   9
HETATM    9  O   UNL     1      -9.246   9.228  67.377  1.00  0.00    -0.126 OA 
BRANCH   9  10
HETATM   10  C   UNL     1      -8.647   8.688  68.471  1.00  0.00    -0.135 C  
HETATM   11  O   UNL     1      -8.513   9.252  69.547  1.00  0.00    -0.127 OA 
BRANCH  10  12
HETATM   12  C   UNL     1      -8.343   7.228  68.260  1.00  0.00    -0.125 C  
BRANCH  12  13
HETATM   13  C   UNL     1      -9.147   6.293  69.159  1.00  0.00    -0.130 C  
HETATM   14  O   UNL     1      -8.133   4.181  67.920  1.00  0.00    -0.089 OA 
HETATM   15  S   UNL     1      -8.419   4.686  69.239  1.00  0.00    -0.079 S  
HETATM   16  O   UNL     1      -7.012   5.121  69.905  1.00  0.00    -0.053 OA 
HETATM   17  O   UNL     1      -9.069   3.888  70.254  1.00  0.00    -0.095 OA 
BRANCH  13  18
HETATM   18  C   UNL     1     -10.541   6.137  68.641  1.00  0.00    -0.270 C  
HETATM   19  O   UNL     1     -10.843   6.189  67.456  1.00  0.00    -0.279 OA 
BRANCH  18  20
HETATM   20  O   UNL     1     -11.438   6.116  69.667  1.00  0.00    -0.429 OA 
BRANCH  20  21
HETATM   21  C   UNL     1     -11.654   7.384  70.311  1.00  0.00    -0.128 C  
HETATM   22  C   UNL     1     -12.086   7.286  71.785  1.00  0.00    -0.353 C  
HETATM   23  C   UNL     1     -11.085   6.476  72.639  1.00  0.00    -0.291 C  
HETATM   24  C   UNL     1     -12.343   8.683  72.396  1.00  0.00    -0.426 C  
HETATM   25  C   UNL     1      -9.698   7.091  72.772  1.00  0.00    -0.178 C  
BRANCH  24  26
HETATM   26  C   UNL     1     -13.419   9.489  71.663  1.00  0.00    -0.463 C  
BRANCH  26  27
HETATM   27  C   UNL     1     -13.111  10.986  71.679  1.00  0.00    -0.543 C  
HETATM   28  C   UNL     1     -12.191  11.363  70.525  1.00  0.00    -0.478 C  
ENDBRANCH  26  27
ENDBRANCH  24  26
ENDBRANCH  20  21
ENDBRANCH  18  20
ENDBRANCH  13  18
ENDBRANCH  12  13
ENDBRANCH  10  12
ENDBRANCH   9  10
ENDBRANCH   7   9
ENDBRANCH   3   4
ENDBRANCH   2   3
TORSDOF 11
ENDMDL
MODEL       85
REMARK 921   NORMALIZED FREE ENERGY PREDICTED BY IDOCK:   -4.49 KCAL/MOL
REMARK 922        TOTAL FREE ENERGY PREDICTED BY IDOCK:   -9.63 KCAL/MOL
REMARK 923 INTER-LIGAND FREE ENERGY PREDICTED BY IDOCK:   -8.21 KCAL/MOL
REMARK 924 INTRA-LIGAND FREE ENERGY PREDICTED BY IDOCK:   -1.42 KCAL/MOL
REMARK 927      BINDING AFFINITY PREDICTED BY RF-SCORE:    0.00 PKD
ROOT
HETATM    1  C   UNL     1     -10.620  12.136  63.393  1.00  0.00    -0.454 C  
HETATM    2  C   UNL     1     -12.017  12.699  63.620  1.00  0.00    -0.615 C  
ENDROOT
BRANCH   2   3
HETATM    3  C   UNL     1     -11.960  14.189  63.955  1.00  0.00    -0.359 C  
BRANCH   3   4
HETATM    4  C   UNL     1     -12.410  14.477  65.393  1.00  0.00    -0.286 C  
HETATM    5  C   UNL     1     -11.496  13.837  66.462  1.00  0.00    -0.364 C  
HETATM    6  C   UNL     1     -10.004  14.221  66.337  1.00  0.00    -0.302 C  
HETATM    7  C   UNL     1     -12.045  14.127  67.876  1.00  0.00    -0.274 C  
HETATM    8  C   UNL     1      -9.695  15.684  66.622  1.00  0.00    -0.266 C  
BRANCH   7   9
HETATM    9  O   UNL     1     -11.157  13.543  68.847  1.00  0.00    -0.252 OA 
BRANCH   9  10
HETATM   10  C   UNL     1     -11.672  12.520  69.579  1.00  0.00    -0.309 C  
HETATM   11  O   UNL     1     -12.337  12.652  70.596  1.00  0.00    -0.359 OA 
BRANCH  10  12
HETATM   12  C   UNL     1     -11.492  11.202  68.874  1.00  0.00    -0.363 C  
BRANCH  12  13
HETATM   13  C   UNL     1     -10.066  10.661  68.929  1.00  0.00    -0.202 C  
HETATM   14  O   UNL     1     -10.744   8.629  67.368  1.00  0.00    -0.264 OA 
HETATM   15  S   UNL     1      -9.713   9.620  67.547  1.00  0.00    -0.165 S  
HETATM   16  O   UNL     1      -9.905  10.730  66.388  1.00  0.00    -0.195 OA 
HETATM   17  O   UNL     1      -8.305   9.295  67.508  1.00  0.00    -0.117 OA 
BRANCH  13  18
HETATM   18  C   UNL     1      -9.859   9.855  70.172  1.00  0.00    -0.219 C  
HETATM   19  O   UNL     1      -8.763   9.519  70.599  1.00  0.00    -0.218 OA 
BRANCH  18  20
HETATM   20  O   UNL     1     -11.049   9.394  70.651  1.00  0.00    -0.248 OA 
BRANCH  20  21
HETATM   21  C   UNL     1     -11.130   7.966  70.806  1.00  0.00    -0.256 C  
HETATM   22  C   UNL     1     -11.701   7.502  72.159  1.00  0.00    -0.344 C  
HETATM   23  C   UNL     1     -13.098   8.097  72.443  1.00  0.00    -0.134 C  
HETATM   24  C   UNL     1     -11.715   5.959  72.269  1.00  0.00    -0.309 C  
HETATM   25  C   UNL     1     -14.198   7.659  71.486  1.00  0.00    -0.564 C  
BRANCH  24  26
HETATM   26  C   UNL     1     -10.333   5.317  72.119  1.00  0.00    -0.268 C  
BRANCH  26  27
HETATM   27  C   UNL     1     -10.006   4.402  73.299  1.00  0.00    -0.183 C  
HETATM   28  C   UNL     1     -11.087   3.345  73.483  1.00  0.00    -0.317 C  
ENDBRANCH  26  27
ENDBRANCH  24  26
ENDBRANCH  20  21
ENDBRANCH  18  20
ENDBRANCH  13  18
ENDBRANCH  12  13
ENDBRANCH  10  12
ENDBRANCH   9  10
ENDBRANCH   7   9
ENDBRANCH   3   4
ENDBRANCH   2   3
TORSDOF 11
ENDMDL
MODEL       86
REMARK 921   NORMALIZED FREE ENERGY PREDICTED BY IDOCK:   -4.49 KCAL/MOL
REMARK 922        TOTAL FREE ENERGY PREDICTED BY IDOCK:   -9.62 KCAL/MOL
REMARK 923 INTER-LIGAND FREE ENERGY PREDICTED BY IDOCK:   -8.62 KCAL/MOL
REMARK 924 INTRA-LIGAND FREE ENERGY PREDICTED BY IDOCK:   -1.00 KCAL/MOL
REMARK 927      BINDING AFFINITY PREDICTED BY RF-SCORE:    0.00 PKD
ROOT
HETATM    1  C   UNL     1      -9.186   2.538  65.031  1.00  0.00    -0.128 C  
HETATM    2  C   UNL     1      -8.063   3.491  65.416  1.00  0.00    -0.097 C  
ENDROOT
BRANCH   2   3
HETATM    3  C   UNL     1      -8.598   4.666  66.235  1.00  0.00    -0.113 C  
BRANCH   3   4
HETATM    4  C   UNL     1      -8.116   6.017  65.693  1.00  0.00    -0.126 C  
HETATM    5  C   UNL     1      -9.032   7.197  66.084  1.00  0.00    -0.168 C  
HETATM    6  C   UNL     1      -9.269   7.343  67.605  1.00  0.00    -0.132 C  
HETATM    7  C   UNL     1      -8.511   8.508  65.458  1.00  0.00    -0.167 C  
HETATM    8  C   UNL     1      -8.038   7.738  68.408  1.00  0.00    -0.124 C  
BRANCH   7   9
HETATM    9  O   UNL     1      -9.369   9.590  65.864  1.00  0.00    -0.189 OA 
BRANCH   9  10
HETATM   10  C   UNL     1      -8.740  10.727  66.264  1.00  0.00    -0.169 C  
HETATM   11  O   UNL     1      -7.636  10.770  66.786  1.00  0.00    -0.116 OA 
BRANCH  10  12
HETATM   12  C   UNL     1      -9.485  11.951  65.804  1.00  0.00    -0.210 C  
BRANCH  12  13
HETATM   13  C   UNL     1     -10.999  11.852  65.969  1.00  0.00    -0.309 C  
HETATM   14  O   UNL     1     -11.298  14.291  64.974  1.00  0.00    -0.333 OA 
HETATM   15  S   UNL     1     -11.844  12.960  64.884  1.00  0.00    -0.392 S  
HETATM   16  O   UNL     1     -11.335  12.323  63.488  1.00  0.00    -0.433 OA 
HETATM   17  O   UNL     1     -13.266  12.698  64.903  1.00  0.00    -0.819 OA 
BRANCH  13  18
HETATM   18  C   UNL     1     -11.397  12.194  67.369  1.00  0.00    -0.326 C  
HETATM   19  O   UNL     1     -12.146  11.512  68.056  1.00  0.00    -0.617 OA 
BRANCH  18  20
HETATM   20  O   UNL     1     -10.967  13.443  67.702  1.00  0.00    -0.251 OA 
BRANCH  20  21
HETATM   21  C   UNL     1     -11.825  14.160  68.607  1.00  0.00    -0.348 C  
HETATM   22  C   UNL     1     -11.096  14.806  69.800  1.00  0.00    -0.288 C  
HETATM   23  C   UNL     1      -9.964  15.758  69.353  1.00  0.00    -0.274 C  
HETATM   24  C   UNL     1     -12.086  15.520  70.750  1.00  0.00    -0.435 C  
HETATM   25  C   UNL     1     -10.416  16.986  68.575  1.00  0.00    -0.373 C  
BRANCH  24  26
HETATM   26  C   UNL     1     -13.163  14.596  71.326  1.00  0.00    -0.432 C  
BRANCH  26  27
HETATM   27  C   UNL     1     -13.568  15.016  72.739  1.00  0.00    -0.562 C  
HETATM   28  C   UNL     1     -12.340  15.305  73.592  1.00  0.00    -0.693 C  
ENDBRANCH  26  27
ENDBRANCH  24  26
ENDBRANCH  20  21
ENDBRANCH  18  20
ENDBRANCH  13  18
ENDBRANCH  12  13
ENDBRANCH  10  12
ENDBRANCH   9  10
ENDBRANCH   7   9
ENDBRANCH   3   4
ENDBRANCH   2   3
TORSDOF 11
ENDMDL
MODEL       87
REMARK 921   NORMALIZED FREE ENERGY PREDICTED BY IDOCK:   -4.49 KCAL/MOL
REMARK 922        TOTAL FREE ENERGY PREDICTED BY IDOCK:   -9.62 KCAL/MOL
REMARK 923 INTER-LIGAND FREE ENERGY PREDICTED BY IDOCK:   -8.97 KCAL/MOL
REMARK 924 INTRA-LIGAND FREE ENERGY PREDICTED BY IDOCK:   -0.65 KCAL/MOL
REMARK 927      BINDING AFFINITY PREDICTED BY RF-SCORE:    0.00 PKD
ROOT
HETATM    1  C   UNL     1      -9.809   5.344  67.853  1.00  0.00    -0.179 C  
HETATM    2  C   UNL     1      -9.712   4.352  69.003  1.00  0.00    -0.223 C  
ENDROOT
BRANCH   2   3
HETATM    3  C   UNL     1     -10.096   5.009  70.328  1.00  0.00    -0.339 C  
BRANCH   3   4
HETATM    4  C   UNL     1      -9.972   6.537  70.274  1.00  0.00    -0.198 C  
HETATM    5  C   UNL     1     -11.175   7.273  70.905  1.00  0.00    -0.298 C  
HETATM    6  C   UNL     1     -11.479   6.864  72.364  1.00  0.00    -0.297 C  
HETATM    7  C   UNL     1     -11.002   8.800  70.763  1.00  0.00    -0.247 C  
HETATM    8  C   UNL     1     -10.414   7.267  73.374  1.00  0.00    -0.423 C  
BRANCH   7   9
HETATM    9  O   UNL     1     -12.123   9.455  71.384  1.00  0.00    -0.315 OA 
BRANCH   9  10
HETATM   10  C   UNL     1     -12.338  10.743  71.009  1.00  0.00    -0.404 C  
HETATM   11  O   UNL     1     -13.167  11.490  71.508  1.00  0.00    -0.372 OA 
BRANCH  10  12
HETATM   12  C   UNL     1     -11.290  11.207  70.033  1.00  0.00    -0.326 C  
BRANCH  12  13
HETATM   13  C   UNL     1     -11.862  11.795  68.746  1.00  0.00    -0.320 C  
HETATM   14  O   UNL     1      -9.545  11.422  67.511  1.00  0.00    -0.165 OA 
HETATM   15  S   UNL     1     -10.964  11.246  67.327  1.00  0.00    -0.299 S  
HETATM   16  O   UNL     1     -11.278   9.667  67.473  1.00  0.00    -0.109 OA 
HETATM   17  O   UNL     1     -11.647  11.640  66.115  1.00  0.00    -0.390 OA 
BRANCH  13  18
HETATM   18  C   UNL     1     -11.794  13.289  68.777  1.00  0.00    -0.334 C  
HETATM   19  O   UNL     1     -12.586  14.000  69.380  1.00  0.00    -0.193 OA 
BRANCH  18  20
HETATM   20  O   UNL     1     -10.854  13.748  67.902  1.00  0.00    -0.238 OA 
BRANCH  20  21
HETATM   21  C   UNL     1     -10.962  15.143  67.572  1.00  0.00    -0.310 C  
HETATM   22  C   UNL     1     -10.145  15.573  66.339  1.00  0.00    -0.301 C  
HETATM   23  C   UNL     1     -10.501  14.750  65.081  1.00  0.00    -0.443 C  
HETATM   24  C   UNL     1     -10.275  17.090  66.073  1.00  0.00    -0.337 C  
HETATM   25  C   UNL     1     -11.926  14.924  64.573  1.00  0.00    -0.420 C  
BRANCH  24  26
HETATM   26  C   UNL     1      -9.818  17.964  67.244  1.00  0.00    -0.309 C  
BRANCH  26  27
HETATM   27  C   UNL     1     -10.629  19.258  67.331  1.00  0.00    -0.594 C  
HETATM   28  C   UNL     1      -9.757  20.467  67.017  1.00  0.00    -0.588 C  
ENDBRANCH  26  27
ENDBRANCH  24  26
ENDBRANCH  20  21
ENDBRANCH  18  20
ENDBRANCH  13  18
ENDBRANCH  12  13
ENDBRANCH  10  12
ENDBRANCH   9  10
ENDBRANCH   7   9
ENDBRANCH   3   4
ENDBRANCH   2   3
TORSDOF 11
ENDMDL
MODEL       88
REMARK 921   NORMALIZED FREE ENERGY PREDICTED BY IDOCK:   -4.48 KCAL/MOL
REMARK 922        TOTAL FREE ENERGY PREDICTED BY IDOCK:   -9.61 KCAL/MOL
REMARK 923 INTER-LIGAND FREE ENERGY PREDICTED BY IDOCK:   -8.10 KCAL/MOL
REMARK 924 INTRA-LIGAND FREE ENERGY PREDICTED BY IDOCK:   -1.52 KCAL/MOL
REMARK 927      BINDING AFFINITY PREDICTED BY RF-SCORE:    0.00 PKD
ROOT
HETATM    1  C   UNL     1     -10.195   5.248  66.698  1.00  0.00    -0.291 C  
HETATM    2  C   UNL     1     -11.017   5.925  67.787  1.00  0.00    -0.245 C  
ENDROOT
BRANCH   2   3
HETATM    3  C   UNL     1     -10.306   5.846  69.138  1.00  0.00    -0.303 C  
BRANCH   3   4
HETATM    4  C   UNL     1      -9.598   7.158  69.498  1.00  0.00    -0.154 C  
HETATM    5  C   UNL     1     -10.571   8.302  69.856  1.00  0.00    -0.232 C  
HETATM    6  C   UNL     1     -11.564   7.963  70.992  1.00  0.00    -0.299 C  
HETATM    7  C   UNL     1      -9.786   9.598  70.152  1.00  0.00    -0.262 C  
HETATM    8  C   UNL     1     -10.927   7.771  72.360  1.00  0.00    -0.368 C  
BRANCH   7   9
HETATM    9  O   UNL     1     -10.719  10.635  70.509  1.00  0.00    -0.080 OA 
BRANCH   9  10
HETATM   10  C   UNL     1     -11.514  11.088  69.505  1.00  0.00    -0.299 C  
HETATM   11  O   UNL     1     -12.736  11.087  69.524  1.00  0.00    -0.253 OA 
BRANCH  10  12
HETATM   12  C   UNL     1     -10.705  11.777  68.439  1.00  0.00    -0.249 C  
BRANCH  12  13
HETATM   13  C   UNL     1     -11.325  11.702  67.046  1.00  0.00    -0.305 C  
HETATM   14  O   UNL     1      -8.924  11.880  65.936  1.00  0.00    -0.138 OA 
HETATM   15  S   UNL     1     -10.158  11.139  65.846  1.00  0.00    -0.257 S  
HETATM   16  O   UNL     1      -9.888   9.676  66.479  1.00  0.00    -0.202 OA 
HETATM   17  O   UNL     1     -10.817  10.873  64.588  1.00  0.00    -0.263 OA 
BRANCH  13  18
HETATM   18  C   UNL     1     -11.808  13.050  66.615  1.00  0.00    -0.393 C  
HETATM   19  O   UNL     1     -12.435  13.258  65.584  1.00  0.00    -0.457 OA 
BRANCH  18  20
HETATM   20  O   UNL     1     -11.300  14.025  67.420  1.00  0.00    -0.302 OA 
BRANCH  20  21
HETATM   21  C   UNL     1     -10.710  15.139  66.727  1.00  0.00    -0.311 C  
HETATM   22  C   UNL     1      -9.864  16.069  67.616  1.00  0.00    -0.235 C  
HETATM   23  C   UNL     1      -8.740  15.311  68.357  1.00  0.00    -0.170 C  
HETATM   24  C   UNL     1      -9.300  17.264  66.813  1.00  0.00    -0.272 C  
HETATM   25  C   UNL     1      -7.672  14.696  67.463  1.00  0.00    -0.216 C  
BRANCH  24  26
HETATM   26  C   UNL     1     -10.379  18.128  66.154  1.00  0.00    -0.394 C  
BRANCH  26  27
HETATM   27  C   UNL     1     -10.763  19.317  67.036  1.00  0.00    -0.565 C  
HETATM   28  C   UNL     1      -9.576  20.249  67.239  1.00  0.00    -0.581 C  
ENDBRANCH  26  27
ENDBRANCH  24  26
ENDBRANCH  20  21
ENDBRANCH  18  20
ENDBRANCH  13  18
ENDBRANCH  12  13
ENDBRANCH  10  12
ENDBRANCH   9  10
ENDBRANCH   7   9
ENDBRANCH   3   4
ENDBRANCH   2   3
TORSDOF 11
ENDMDL
MODEL       89
REMARK 921   NORMALIZED FREE ENERGY PREDICTED BY IDOCK:   -4.47 KCAL/MOL
REMARK 922        TOTAL FREE ENERGY PREDICTED BY IDOCK:   -9.59 KCAL/MOL
REMARK 923 INTER-LIGAND FREE ENERGY PREDICTED BY IDOCK:   -8.64 KCAL/MOL
REMARK 924 INTRA-LIGAND FREE ENERGY PREDICTED BY IDOCK:   -0.96 KCAL/MOL
REMARK 927      BINDING AFFINITY PREDICTED BY RF-SCORE:    0.00 PKD
ROOT
HETATM    1  C   UNL     1      -5.557  20.443  71.542  1.00  0.00    -0.323 C  
HETATM    2  C   UNL     1      -5.497  19.477  70.367  1.00  0.00    -0.263 C  
ENDROOT
BRANCH   2   3
HETATM    3  C   UNL     1      -6.614  19.764  69.364  1.00  0.00    -0.390 C  
BRANCH   3   4
HETATM    4  C   UNL     1      -6.798  18.621  68.359  1.00  0.00    -0.265 C  
HETATM    5  C   UNL     1      -8.075  17.787  68.604  1.00  0.00    -0.277 C  
HETATM    6  C   UNL     1      -9.380  18.616  68.637  1.00  0.00    -0.375 C  
HETATM    7  C   UNL     1      -8.160  16.628  67.588  1.00  0.00    -0.171 C  
HETATM    8  C   UNL     1      -9.772  19.243  67.307  1.00  0.00    -0.409 C  
BRANCH   7   9
HETATM    9  O   UNL     1      -9.372  15.890  67.825  1.00  0.00    -0.205 OA 
BRANCH   9  10
HETATM   10  C   UNL     1      -9.544  14.774  67.068  1.00  0.00    -0.241 C  
HETATM   11  O   UNL     1      -8.691  13.920  66.875  1.00  0.00    -0.219 OA 
BRANCH  10  12
HETATM   12  C   UNL     1     -10.983  14.614  66.655  1.00  0.00    -0.323 C  
BRANCH  12  13
HETATM   13  C   UNL     1     -11.201  13.564  65.569  1.00  0.00    -0.292 C  
HETATM   14  O   UNL     1     -13.786  14.145  65.484  1.00  0.00    -0.396 OA 
HETATM   15  S   UNL     1     -12.655  13.899  64.625  1.00  0.00    -0.174 S  
HETATM   16  O   UNL     1     -12.192  15.324  64.017  1.00  0.00    -0.625 OA 
HETATM   17  O   UNL     1     -12.724  13.022  63.478  1.00  0.00    -0.708 OA 
BRANCH  13  18
HETATM   18  C   UNL     1     -11.356  12.206  66.177  1.00  0.00    -0.361 C  
HETATM   19  O   UNL     1     -11.957  11.985  67.220  1.00  0.00    -0.591 OA 
BRANCH  18  20
HETATM   20  O   UNL     1     -10.588  11.292  65.519  1.00  0.00    -0.262 OA 
BRANCH  20  21
HETATM   21  C   UNL     1     -10.230  10.132  66.289  1.00  0.00    -0.219 C  
HETATM   22  C   UNL     1      -9.129   9.260  65.657  1.00  0.00    -0.268 C  
HETATM   23  C   UNL     1      -7.841  10.060  65.363  1.00  0.00    -0.136 C  
HETATM   24  C   UNL     1      -8.830   8.011  66.518  1.00  0.00    -0.175 C  
HETATM   25  C   UNL     1      -7.123  10.610  66.588  1.00  0.00    -0.124 C  
BRANCH  24  26
HETATM   26  C   UNL     1     -10.047   7.109  66.742  1.00  0.00    -0.278 C  
BRANCH  26  27
HETATM   27  C   UNL     1     -10.508   7.138  68.200  1.00  0.00    -0.244 C  
HETATM   28  C   UNL     1     -10.552   5.732  68.783  1.00  0.00    -0.321 C  
ENDBRANCH  26  27
ENDBRANCH  24  26
ENDBRANCH  20  21
ENDBRANCH  18  20
ENDBRANCH  13  18
ENDBRANCH  12  13
ENDBRANCH  10  12
ENDBRANCH   9  10
ENDBRANCH   7   9
ENDBRANCH   3   4
ENDBRANCH   2   3
TORSDOF 11
ENDMDL
MODEL       90
REMARK 921   NORMALIZED FREE ENERGY PREDICTED BY IDOCK:   -4.47 KCAL/MOL
REMARK 922        TOTAL FREE ENERGY PREDICTED BY IDOCK:   -9.59 KCAL/MOL
REMARK 923 INTER-LIGAND FREE ENERGY PREDICTED BY IDOCK:   -7.78 KCAL/MOL
REMARK 924 INTRA-LIGAND FREE ENERGY PREDICTED BY IDOCK:   -1.81 KCAL/MOL
REMARK 927      BINDING AFFINITY PREDICTED BY RF-SCORE:    0.00 PKD
ROOT
HETATM    1  C   UNL     1      -6.442   8.723  63.630  1.00  0.00    -0.088 C  
HETATM    2  C   UNL     1      -7.309   9.974  63.677  1.00  0.00    -0.134 C  
ENDROOT
BRANCH   2   3
HETATM    3  C   UNL     1      -8.794   9.613  63.688  1.00  0.00    -0.256 C  
BRANCH   3   4
HETATM    4  C   UNL     1      -9.474  10.000  65.007  1.00  0.00    -0.339 C  
HETATM    5  C   UNL     1      -9.557  11.526  65.230  1.00  0.00    -0.244 C  
HETATM    6  C   UNL     1     -10.247  12.301  64.085  1.00  0.00    -0.376 C  
HETATM    7  C   UNL     1     -10.203  11.831  66.598  1.00  0.00    -0.210 C  
HETATM    8  C   UNL     1     -11.734  12.015  63.926  1.00  0.00    -0.537 C  
BRANCH   7   9
HETATM    9  O   UNL     1     -10.291  13.259  66.762  1.00  0.00    -0.253 OA 
BRANCH   9  10
HETATM   10  C   UNL     1     -11.381  13.711  67.435  1.00  0.00    -0.315 C  
HETATM   11  O   UNL     1     -12.475  13.928  66.933  1.00  0.00    -0.357 OA 
BRANCH  10  12
HETATM   12  C   UNL     1     -11.137  13.725  68.921  1.00  0.00    -0.300 C  
BRANCH  12  13
HETATM   13  C   UNL     1     -12.371  13.390  69.753  1.00  0.00    -0.159 C  
HETATM   14  O   UNL     1     -11.445  14.846  71.766  1.00  0.00    -0.351 OA 
HETATM   15  S   UNL     1     -12.649  14.594  71.015  1.00  0.00    -0.356 S  
HETATM   16  O   UNL     1     -12.888  15.866  70.046  1.00  0.00    -0.217 OA 
HETATM   17  O   UNL     1     -13.931  14.375  71.647  1.00  0.00    -0.400 OA 
BRANCH  13  18
HETATM   18  C   UNL     1     -12.207  12.061  70.421  1.00  0.00    -0.294 C  
HETATM   19  O   UNL     1     -12.903  11.668  71.348  1.00  0.00    -0.409 OA 
BRANCH  18  20
HETATM   20  O   UNL     1     -11.075  11.439  69.986  1.00  0.00    -0.160 OA 
BRANCH  20  21
HETATM   21  C   UNL     1     -11.279  10.128  69.430  1.00  0.00    -0.215 C  
HETATM   22  C   UNL     1     -10.184   9.106  69.786  1.00  0.00    -0.219 C  
HETATM   23  C   UNL     1      -9.992   8.958  71.312  1.00  0.00    -0.358 C  
HETATM   24  C   UNL     1     -10.447   7.736  69.119  1.00  0.00    -0.219 C  
HETATM   25  C   UNL     1     -11.188   8.393  72.066  1.00  0.00    -0.404 C  
BRANCH  24  26
HETATM   26  C   UNL     1     -10.524   7.799  67.590  1.00  0.00    -0.308 C  
BRANCH  26  27
HETATM   27  C   UNL     1      -9.526   6.844  66.936  1.00  0.00    -0.194 C  
HETATM   28  C   UNL     1      -8.100   7.183  67.349  1.00  0.00    -0.112 C  
ENDBRANCH  26  27
ENDBRANCH  24  26
ENDBRANCH  20  21
ENDBRANCH  18  20
ENDBRANCH  13  18
ENDBRANCH  12  13
ENDBRANCH  10  12
ENDBRANCH   9  10
ENDBRANCH   7   9
ENDBRANCH   3   4
ENDBRANCH   2   3
TORSDOF 11
ENDMDL
MODEL       91
REMARK 921   NORMALIZED FREE ENERGY PREDICTED BY IDOCK:   -4.46 KCAL/MOL
REMARK 922        TOTAL FREE ENERGY PREDICTED BY IDOCK:   -9.57 KCAL/MOL
REMARK 923 INTER-LIGAND FREE ENERGY PREDICTED BY IDOCK:   -8.34 KCAL/MOL
REMARK 924 INTRA-LIGAND FREE ENERGY PREDICTED BY IDOCK:   -1.23 KCAL/MOL
REMARK 927      BINDING AFFINITY PREDICTED BY RF-SCORE:    0.00 PKD
ROOT
HETATM    1  C   UNL     1     -10.565   5.525  69.855  1.00  0.00    -0.387 C  
HETATM    2  C   UNL     1      -9.581   6.658  70.109  1.00  0.00    -0.168 C  
ENDROOT
BRANCH   2   3
HETATM    3  C   UNL     1     -10.275   7.848  70.772  1.00  0.00    -0.202 C  
BRANCH   3   4
HETATM    4  C   UNL     1      -9.543   9.169  70.503  1.00  0.00    -0.293 C  
HETATM    5  C   UNL     1     -10.082   9.929  69.271  1.00  0.00    -0.214 C  
HETATM    6  C   UNL     1     -11.600  10.217  69.313  1.00  0.00    -0.186 C  
HETATM    7  C   UNL     1      -9.262  11.215  69.036  1.00  0.00    -0.031 C  
HETATM    8  C   UNL     1     -12.032  11.201  70.391  1.00  0.00    -0.469 C  
BRANCH   7   9
HETATM    9  O   UNL     1      -9.806  11.912  67.900  1.00  0.00    -0.180 OA 
BRANCH   9  10
HETATM   10  C   UNL     1      -9.146  13.040  67.526  1.00  0.00    -0.191 C  
HETATM   11  O   UNL     1      -8.162  13.496  68.089  1.00  0.00    -0.144 OA 
BRANCH  10  12
HETATM   12  C   UNL     1      -9.655  13.555  66.205  1.00  0.00    -0.245 C  
BRANCH  12  13
HETATM   13  C   UNL     1     -11.012  14.248  66.295  1.00  0.00    -0.317 C  
HETATM   14  O   UNL     1     -11.678  13.317  63.904  1.00  0.00    -0.415 OA 
HETATM   15  S   UNL     1     -12.202  13.485  65.236  1.00  0.00    -0.471 S  
HETATM   16  O   UNL     1     -12.209  12.028  65.938  1.00  0.00    -0.531 OA 
HETATM   17  O   UNL     1     -13.521  14.017  65.494  1.00  0.00    -0.677 OA 
BRANCH  13  18
HETATM   18  C   UNL     1     -10.894  15.683  65.887  1.00  0.00    -0.293 C  
HETATM   19  O   UNL     1     -10.425  16.058  64.821  1.00  0.00    -0.564 OA 
BRANCH  18  20
HETATM   20  O   UNL     1     -11.205  16.507  66.927  1.00  0.00     0.054 OA 
BRANCH  20  21
HETATM   21  C   UNL     1     -10.120  16.780  67.831  1.00  0.00    -0.284 C  
HETATM   22  C   UNL     1      -9.106  17.817  67.315  1.00  0.00    -0.246 C  
HETATM   23  C   UNL     1      -9.773  19.159  66.943  1.00  0.00    -0.389 C  
HETATM   24  C   UNL     1      -7.947  18.025  68.318  1.00  0.00    -0.294 C  
HETATM   25  C   UNL     1     -10.409  19.912  68.104  1.00  0.00    -0.533 C  
BRANCH  24  26
HETATM   26  C   UNL     1      -7.165  16.746  68.632  1.00  0.00    -0.207 C  
BRANCH  26  27
HETATM   27  C   UNL     1      -5.864  17.051  69.376  1.00  0.00    -0.202 C  
HETATM   28  C   UNL     1      -5.810  18.513  69.799  1.00  0.00    -0.260 C  
ENDBRANCH  26  27
ENDBRANCH  24  26
ENDBRANCH  20  21
ENDBRANCH  18  20
ENDBRANCH  13  18
ENDBRANCH  12  13
ENDBRANCH  10  12
ENDBRANCH   9  10
ENDBRANCH   7   9
ENDBRANCH   3   4
ENDBRANCH   2   3
TORSDOF 11
ENDMDL
MODEL       92
REMARK 921   NORMALIZED FREE ENERGY PREDICTED BY IDOCK:   -4.44 KCAL/MOL
REMARK 922        TOTAL FREE ENERGY PREDICTED BY IDOCK:   -9.54 KCAL/MOL
REMARK 923 INTER-LIGAND FREE ENERGY PREDICTED BY IDOCK:   -7.97 KCAL/MOL
REMARK 924 INTRA-LIGAND FREE ENERGY PREDICTED BY IDOCK:   -1.56 KCAL/MOL
REMARK 927      BINDING AFFINITY PREDICTED BY RF-SCORE:    0.00 PKD
ROOT
HETATM    1  C   UNL     1     -10.118   5.254  70.806  1.00  0.00    -0.294 C  
HETATM    2  C   UNL     1      -9.971   5.713  72.250  1.00  0.00    -0.204 C  
ENDROOT
BRANCH   2   3
HETATM    3  C   UNL     1     -11.154   6.584  72.672  1.00  0.00    -0.291 C  
BRANCH   3   4
HETATM    4  C   UNL     1     -10.916   8.069  72.374  1.00  0.00    -0.402 C  
HETATM    5  C   UNL     1     -11.794   8.613  71.225  1.00  0.00    -0.344 C  
HETATM    6  C   UNL     1     -13.312   8.398  71.427  1.00  0.00    -0.244 C  
HETATM    7  C   UNL     1     -11.459  10.094  70.951  1.00  0.00    -0.360 C  
HETATM    8  C   UNL     1     -13.922   9.192  72.573  1.00  0.00    -0.453 C  
BRANCH   7   9
HETATM    9  O   UNL     1     -12.312  10.577  69.897  1.00  0.00    -0.271 OA 
BRANCH   9  10
HETATM   10  C   UNL     1     -11.682  10.982  68.763  1.00  0.00    -0.314 C  
HETATM   11  O   UNL     1     -12.193  11.650  67.877  1.00  0.00    -0.560 OA 
BRANCH  10  12
HETATM   12  C   UNL     1     -10.208  10.676  68.822  1.00  0.00    -0.204 C  
BRANCH  12  13
HETATM   13  C   UNL     1      -9.427  11.164  67.605  1.00  0.00    -0.166 C  
HETATM   14  O   UNL     1      -7.913   8.988  67.667  1.00  0.00    -0.100 OA 
HETATM   15  S   UNL     1      -8.649   9.826  66.754  1.00  0.00    -0.128 S  
HETATM   16  O   UNL     1      -9.992   9.026  66.341  1.00  0.00    -0.273 OA 
HETATM   17  O   UNL     1      -8.099  10.280  65.497  1.00  0.00    -0.145 OA 
BRANCH  13  18
HETATM   18  C   UNL     1      -8.357  12.123  68.020  1.00  0.00    -0.167 C  
HETATM   19  O   UNL     1      -7.535  11.897  68.898  1.00  0.00    -0.113 OA 
BRANCH  18  20
HETATM   20  O   UNL     1      -8.538  13.335  67.424  1.00  0.00    -0.183 OA 
BRANCH  20  21
HETATM   21  C   UNL     1      -9.656  14.093  67.918  1.00  0.00    -0.223 C  
HETATM   22  C   UNL     1      -9.569  15.607  67.652  1.00  0.00    -0.220 C  
HETATM   23  C   UNL     1      -9.390  15.932  66.153  1.00  0.00    -0.385 C  
HETATM   24  C   UNL     1     -10.781  16.359  68.249  1.00  0.00    -0.337 C  
HETATM   25  C   UNL     1     -10.558  15.537  65.258  1.00  0.00    -0.446 C  
BRANCH  24  26
HETATM   26  C   UNL     1     -10.939  16.175  69.761  1.00  0.00    -0.349 C  
BRANCH  26  27
HETATM   27  C   UNL     1     -12.308  15.594  70.117  1.00  0.00    -0.366 C  
HETATM   28  C   UNL     1     -12.176  14.161  70.616  1.00  0.00    -0.432 C  
ENDBRANCH  26  27
ENDBRANCH  24  26
ENDBRANCH  20  21
ENDBRANCH  18  20
ENDBRANCH  13  18
ENDBRANCH  12  13
ENDBRANCH  10  12
ENDBRANCH   9  10
ENDBRANCH   7   9
ENDBRANCH   3   4
ENDBRANCH   2   3
TORSDOF 11
ENDMDL
MODEL       93
REMARK 921   NORMALIZED FREE ENERGY PREDICTED BY IDOCK:   -4.42 KCAL/MOL
REMARK 922        TOTAL FREE ENERGY PREDICTED BY IDOCK:   -9.51 KCAL/MOL
REMARK 923 INTER-LIGAND FREE ENERGY PREDICTED BY IDOCK:   -8.05 KCAL/MOL
REMARK 924 INTRA-LIGAND FREE ENERGY PREDICTED BY IDOCK:   -1.46 KCAL/MOL
REMARK 927      BINDING AFFINITY PREDICTED BY RF-SCORE:    0.00 PKD
ROOT
HETATM    1  C   UNL     1     -10.953  11.493  63.650  1.00  0.00    -0.482 C  
HETATM    2  C   UNL     1     -12.252  12.267  63.828  1.00  0.00    -0.642 C  
ENDROOT
BRANCH   2   3
HETATM    3  C   UNL     1     -11.977  13.713  64.240  1.00  0.00    -0.488 C  
BRANCH   3   4
HETATM    4  C   UNL     1     -12.436  14.004  65.674  1.00  0.00    -0.531 C  
HETATM    5  C   UNL     1     -11.583  13.294  66.748  1.00  0.00    -0.408 C  
HETATM    6  C   UNL     1     -10.068  13.589  66.657  1.00  0.00    -0.277 C  
HETATM    7  C   UNL     1     -12.139  13.593  68.157  1.00  0.00    -0.275 C  
HETATM    8  C   UNL     1      -9.678  15.026  66.973  1.00  0.00    -0.241 C  
BRANCH   7   9
HETATM    9  O   UNL     1     -11.307  12.941  69.133  1.00  0.00    -0.261 OA 
BRANCH   9  10
HETATM   10  C   UNL     1     -11.944  12.091  69.982  1.00  0.00    -0.324 C  
HETATM   11  O   UNL     1     -12.583  12.432  70.966  1.00  0.00    -0.360 OA 
BRANCH  10  12
HETATM   12  C   UNL     1     -11.935  10.683  69.449  1.00  0.00    -0.298 C  
BRANCH  12  13
HETATM   13  C   UNL     1     -10.806   9.820  70.006  1.00  0.00    -0.278 C  
HETATM   14  O   UNL     1     -10.897   8.265  67.860  1.00  0.00    -0.117 OA 
HETATM   15  S   UNL     1      -9.964   8.946  68.723  1.00  0.00    -0.189 S  
HETATM   16  O   UNL     1      -9.412  10.233  67.915  1.00  0.00    -0.141 OA 
HETATM   17  O   UNL     1      -8.775   8.309  69.243  1.00  0.00    -0.136 OA 
BRANCH  13  18
HETATM   18  C   UNL     1     -11.345   8.808  70.967  1.00  0.00    -0.278 C  
HETATM   19  O   UNL     1     -12.249   8.025  70.705  1.00  0.00    -0.178 OA 
BRANCH  18  20
HETATM   20  O   UNL     1     -10.827   9.002  72.213  1.00  0.00    -0.278 OA 
BRANCH  20  21
HETATM   21  C   UNL     1     -10.770   7.824  73.036  1.00  0.00    -0.384 C  
HETATM   22  C   UNL     1      -9.498   6.976  72.849  1.00  0.00    -0.171 C  
HETATM   23  C   UNL     1      -8.207   7.792  73.083  1.00  0.00    -0.197 C  
HETATM   24  C   UNL     1      -9.528   5.707  73.732  1.00  0.00    -0.139 C  
HETATM   25  C   UNL     1      -8.016   8.313  74.501  1.00  0.00    -0.276 C  
BRANCH  24  26
HETATM   26  C   UNL     1     -10.725   4.792  73.458  1.00  0.00    -0.338 C  
BRANCH  26  27
HETATM   27  C   UNL     1     -10.364   3.319  73.655  1.00  0.00    -0.232 C  
HETATM   28  C   UNL     1     -10.287   2.595  72.317  1.00  0.00    -0.136 C  
ENDBRANCH  26  27
ENDBRANCH  24  26
ENDBRANCH  20  21
ENDBRANCH  18  20
ENDBRANCH  13  18
ENDBRANCH  12  13
ENDBRANCH  10  12
ENDBRANCH   9  10
ENDBRANCH   7   9
ENDBRANCH   3   4
ENDBRANCH   2   3
TORSDOF 11
ENDMDL
MODEL       94
REMARK 921   NORMALIZED FREE ENERGY PREDICTED BY IDOCK:   -4.40 KCAL/MOL
REMARK 922        TOTAL FREE ENERGY PREDICTED BY IDOCK:   -9.48 KCAL/MOL
REMARK 923 INTER-LIGAND FREE ENERGY PREDICTED BY IDOCK:   -7.65 KCAL/MOL
REMARK 924 INTRA-LIGAND FREE ENERGY PREDICTED BY IDOCK:   -1.83 KCAL/MOL
REMARK 927      BINDING AFFINITY PREDICTED BY RF-SCORE:    0.00 PKD
ROOT
HETATM    1  C   UNL     1      -8.899  17.521  67.971  1.00  0.00    -0.258 C  
HETATM    2  C   UNL     1     -10.160  17.448  67.122  1.00  0.00    -0.307 C  
ENDROOT
BRANCH   2   3
HETATM    3  C   UNL     1     -10.156  16.199  66.240  1.00  0.00    -0.337 C  
BRANCH   3   4
HETATM    4  C   UNL     1      -9.821  14.930  67.034  1.00  0.00    -0.239 C  
HETATM    5  C   UNL     1     -11.027  14.357  67.811  1.00  0.00    -0.283 C  
HETATM    6  C   UNL     1     -12.269  14.067  66.937  1.00  0.00    -0.415 C  
HETATM    7  C   UNL     1     -10.598  13.117  68.624  1.00  0.00    -0.239 C  
HETATM    8  C   UNL     1     -12.092  12.939  65.932  1.00  0.00    -0.503 C  
BRANCH   7   9
HETATM    9  O   UNL     1     -11.747  12.592  69.313  1.00  0.00    -0.292 OA 
BRANCH   9  10
HETATM   10  C   UNL     1     -11.898  11.242  69.269  1.00  0.00    -0.354 C  
HETATM   11  O   UNL     1     -12.027  10.584  68.247  1.00  0.00    -0.377 OA 
BRANCH  10  12
HETATM   12  C   UNL     1     -11.688  10.627  70.627  1.00  0.00    -0.454 C  
BRANCH  12  13
HETATM   13  C   UNL     1     -11.767   9.103  70.634  1.00  0.00    -0.209 C  
HETATM   14  O   UNL     1     -12.924   9.145  73.019  1.00  0.00    -0.232 OA 
HETATM   15  S   UNL     1     -13.032   8.524  71.722  1.00  0.00    -0.364 S  
HETATM   16  O   UNL     1     -14.290   9.202  70.967  1.00  0.00    -0.091 OA 
HETATM   17  O   UNL     1     -13.231   7.103  71.553  1.00  0.00    -0.383 OA 
BRANCH  13  18
HETATM   18  C   UNL     1     -10.470   8.513  71.089  1.00  0.00    -0.221 C  
HETATM   19  O   UNL     1      -9.728   9.036  71.910  1.00  0.00    -0.299 OA 
BRANCH  18  20
HETATM   20  O   UNL     1     -10.145   7.424  70.336  1.00  0.00    -0.191 OA 
BRANCH  20  21
HETATM   21  C   UNL     1     -10.363   7.576  68.923  1.00  0.00    -0.211 C  
HETATM   22  C   UNL     1      -9.137   7.253  68.049  1.00  0.00    -0.133 C  
HETATM   23  C   UNL     1      -8.593   5.829  68.303  1.00  0.00    -0.112 C  
HETATM   24  C   UNL     1      -9.433   7.481  66.549  1.00  0.00    -0.237 C  
HETATM   25  C   UNL     1      -9.538   4.696  67.927  1.00  0.00    -0.205 C  
BRANCH  24  26
HETATM   26  C   UNL     1      -9.860   8.914  66.215  1.00  0.00    -0.355 C  
BRANCH  26  27
HETATM   27  C   UNL     1      -8.916   9.942  66.839  1.00  0.00    -0.154 C  
HETATM   28  C   UNL     1      -8.831  11.195  65.978  1.00  0.00    -0.196 C  
ENDBRANCH  26  27
ENDBRANCH  24  26
ENDBRANCH  20  21
ENDBRANCH  18  20
ENDBRANCH  13  18
ENDBRANCH  12  13
ENDBRANCH  10  12
ENDBRANCH   9  10
ENDBRANCH   7   9
ENDBRANCH   3   4
ENDBRANCH   2   3
TORSDOF 11
ENDMDL
MODEL       95
REMARK 921   NORMALIZED FREE ENERGY PREDICTED BY IDOCK:   -4.40 KCAL/MOL
REMARK 922        TOTAL FREE ENERGY PREDICTED BY IDOCK:   -9.47 KCAL/MOL
REMARK 923 INTER-LIGAND FREE ENERGY PREDICTED BY IDOCK:   -7.91 KCAL/MOL
REMARK 924 INTRA-LIGAND FREE ENERGY PREDICTED BY IDOCK:   -1.56 KCAL/MOL
REMARK 927      BINDING AFFINITY PREDICTED BY RF-SCORE:    0.00 PKD
ROOT
HETATM    1  C   UNL     1      -9.842   6.436  72.681  1.00  0.00    -0.175 C  
HETATM    2  C   UNL     1      -8.616   7.264  73.041  1.00  0.00    -0.152 C  
ENDROOT
BRANCH   2   3
HETATM    3  C   UNL     1      -8.389   8.379  72.021  1.00  0.00    -0.231 C  
BRANCH   3   4
HETATM    4  C   UNL     1      -9.695   8.826  71.351  1.00  0.00    -0.351 C  
HETATM    5  C   UNL     1      -9.498   9.350  69.911  1.00  0.00    -0.235 C  
HETATM    6  C   UNL     1      -8.784   8.358  68.964  1.00  0.00    -0.142 C  
HETATM    7  C   UNL     1     -10.844   9.829  69.328  1.00  0.00    -0.216 C  
HETATM    8  C   UNL     1      -9.578   7.101  68.640  1.00  0.00    -0.140 C  
BRANCH   7   9
HETATM    9  O   UNL     1     -10.631  10.283  67.979  1.00  0.00    -0.198 OA 
BRANCH   9  10
HETATM   10  C   UNL     1     -11.494  11.232  67.531  1.00  0.00    -0.246 C  
HETATM   11  O   UNL     1     -12.261  11.872  68.236  1.00  0.00    -0.447 OA 
BRANCH  10  12
HETATM   12  C   UNL     1     -11.252  11.544  66.078  1.00  0.00    -0.240 C  
BRANCH  12  13
HETATM   13  C   UNL     1     -11.854  12.871  65.622  1.00  0.00    -0.417 C  
HETATM   14  O   UNL     1     -10.702  12.612  63.249  1.00  0.00    -0.327 OA 
HETATM   15  S   UNL     1     -11.958  12.966  63.862  1.00  0.00    -0.514 S  
HETATM   16  O   UNL     1     -12.969  11.724  63.640  1.00  0.00    -0.591 OA 
HETATM   17  O   UNL     1     -12.720  14.128  63.463  1.00  0.00    -0.794 OA 
BRANCH  13  18
HETATM   18  C   UNL     1     -11.014  14.016  66.091  1.00  0.00    -0.295 C  
HETATM   19  O   UNL     1     -11.455  15.121  66.377  1.00  0.00    -0.285 OA 
BRANCH  18  20
HETATM   20  O   UNL     1      -9.688  13.719  65.978  1.00  0.00    -0.286 OA 
BRANCH  20  21
HETATM   21  C   UNL     1      -8.809  14.563  66.742  1.00  0.00    -0.220 C  
HETATM   22  C   UNL     1      -8.578  14.097  68.192  1.00  0.00    -0.175 C  
HETATM   23  C   UNL     1      -8.042  12.650  68.267  1.00  0.00    -0.161 C  
HETATM   24  C   UNL     1      -7.661  15.076  68.963  1.00  0.00    -0.170 C  
HETATM   25  C   UNL     1      -6.663  12.436  67.658  1.00  0.00    -0.132 C  
BRANCH  24  26
HETATM   26  C   UNL     1      -8.203  16.507  69.030  1.00  0.00    -0.208 C  
BRANCH  26  27
HETATM   27  C   UNL     1      -7.362  17.466  68.187  1.00  0.00    -0.205 C  
HETATM   28  C   UNL     1      -7.452  18.887  68.730  1.00  0.00    -0.360 C  
ENDBRANCH  26  27
ENDBRANCH  24  26
ENDBRANCH  20  21
ENDBRANCH  18  20
ENDBRANCH  13  18
ENDBRANCH  12  13
ENDBRANCH  10  12
ENDBRANCH   9  10
ENDBRANCH   7   9
ENDBRANCH   3   4
ENDBRANCH   2   3
TORSDOF 11
ENDMDL
MODEL       96
REMARK 921   NORMALIZED FREE ENERGY PREDICTED BY IDOCK:   -4.38 KCAL/MOL
REMARK 922        TOTAL FREE ENERGY PREDICTED BY IDOCK:   -9.44 KCAL/MOL
REMARK 923 INTER-LIGAND FREE ENERGY PREDICTED BY IDOCK:   -6.96 KCAL/MOL
REMARK 924 INTRA-LIGAND FREE ENERGY PREDICTED BY IDOCK:   -2.49 KCAL/MOL
REMARK 927      BINDING AFFINITY PREDICTED BY RF-SCORE:    0.00 PKD
ROOT
HETATM    1  C   UNL     1      -9.580   5.299  71.471  1.00  0.00    -0.201 C  
HETATM    2  C   UNL     1      -9.063   5.253  70.040  1.00  0.00    -0.163 C  
ENDROOT
BRANCH   2   3
HETATM    3  C   UNL     1     -10.170   4.842  69.070  1.00  0.00    -0.164 C  
BRANCH   3   4
HETATM    4  C   UNL     1     -10.601   5.999  68.160  1.00  0.00    -0.328 C  
HETATM    5  C   UNL     1      -9.418   6.695  67.451  1.00  0.00    -0.143 C  
HETATM    6  C   UNL     1      -8.517   5.744  66.630  1.00  0.00    -0.113 C  
HETATM    7  C   UNL     1      -9.927   7.877  66.599  1.00  0.00    -0.246 C  
HETATM    8  C   UNL     1      -9.183   5.131  65.407  1.00  0.00    -0.122 C  
BRANCH   7   9
HETATM    9  O   UNL     1      -8.806   8.486  65.932  1.00  0.00    -0.162 OA 
BRANCH   9  10
HETATM   10  C   UNL     1      -9.068   9.646  65.273  1.00  0.00    -0.218 C  
HETATM   11  O   UNL     1      -9.302   9.735  64.077  1.00  0.00    -0.264 OA 
BRANCH  10  12
HETATM   12  C   UNL     1      -9.232  10.792  66.235  1.00  0.00    -0.195 C  
BRANCH  12  13
HETATM   13  C   UNL     1     -10.678  11.243  66.419  1.00  0.00    -0.267 C  
HETATM   14  O   UNL     1      -9.888  13.756  66.714  1.00  0.00    -0.258 OA 
HETATM   15  S   UNL     1     -10.877  12.956  66.036  1.00  0.00    -0.283 S  
HETATM   16  O   UNL     1     -10.450  12.878  64.479  1.00  0.00    -0.341 OA 
HETATM   17  O   UNL     1     -12.279  13.307  66.010  1.00  0.00    -0.421 OA 
BRANCH  13  18
HETATM   18  C   UNL     1     -11.115  11.039  67.834  1.00  0.00    -0.288 C  
HETATM   19  O   UNL     1     -12.280  11.070  68.205  1.00  0.00    -0.582 OA 
BRANCH  18  20
HETATM   20  O   UNL     1     -10.039  11.001  68.670  1.00  0.00    -0.183 OA 
BRANCH  20  21
HETATM   21  C   UNL     1     -10.321  10.535  70.002  1.00  0.00    -0.034 C  
HETATM   22  C   UNL     1      -9.853   9.096  70.288  1.00  0.00    -0.245 C  
HETATM   23  C   UNL     1      -8.344   8.904  70.019  1.00  0.00    -0.133 C  
HETATM   24  C   UNL     1     -10.229   8.652  71.720  1.00  0.00    -0.378 C  
HETATM   25  C   UNL     1      -7.415   9.707  70.920  1.00  0.00     0.040 C  
BRANCH  24  26
HETATM   26  C   UNL     1     -11.732   8.703  72.008  1.00  0.00    -0.439 C  
BRANCH  26  27
HETATM   27  C   UNL     1     -12.479   7.571  71.302  1.00  0.00    -0.354 C  
HETATM   28  C   UNL     1     -13.914   7.472  71.802  1.00  0.00    -0.473 C  
ENDBRANCH  26  27
ENDBRANCH  24  26
ENDBRANCH  20  21
ENDBRANCH  18  20
ENDBRANCH  13  18
ENDBRANCH  12  13
ENDBRANCH  10  12
ENDBRANCH   9  10
ENDBRANCH   7   9
ENDBRANCH   3   4
ENDBRANCH   2   3
TORSDOF 11
ENDMDL
MODEL       97
REMARK 921   NORMALIZED FREE ENERGY PREDICTED BY IDOCK:   -4.37 KCAL/MOL
REMARK 922        TOTAL FREE ENERGY PREDICTED BY IDOCK:   -9.43 KCAL/MOL
REMARK 923 INTER-LIGAND FREE ENERGY PREDICTED BY IDOCK:   -8.08 KCAL/MOL
REMARK 924 INTRA-LIGAND FREE ENERGY PREDICTED BY IDOCK:   -1.35 KCAL/MOL
REMARK 927      BINDING AFFINITY PREDICTED BY RF-SCORE:    0.00 PKD
ROOT
HETATM    1  C   UNL     1     -11.526  12.095  63.566  1.00  0.00    -0.544 C  
HETATM    2  C   UNL     1     -10.633  12.857  64.535  1.00  0.00    -0.403 C  
ENDROOT
BRANCH   2   3
HETATM    3  C   UNL     1     -11.456  13.490  65.658  1.00  0.00    -0.330 C  
BRANCH   3   4
HETATM    4  C   UNL     1     -11.989  12.445  66.645  1.00  0.00    -0.300 C  
HETATM    5  C   UNL     1     -11.014  12.142  67.804  1.00  0.00    -0.278 C  
HETATM    6  C   UNL     1     -10.574  13.387  68.609  1.00  0.00    -0.257 C  
HETATM    7  C   UNL     1     -11.597  11.046  68.721  1.00  0.00    -0.318 C  
HETATM    8  C   UNL     1     -11.682  14.050  69.414  1.00  0.00    -0.365 C  
BRANCH   7   9
HETATM    9  O   UNL     1     -10.679  10.808  69.804  1.00  0.00    -0.245 OA 
BRANCH   9  10
HETATM   10  C   UNL     1     -11.169  10.090  70.848  1.00  0.00    -0.341 C  
HETATM   11  O   UNL     1     -12.233  10.306  71.410  1.00  0.00    -0.363 OA 
BRANCH  10  12
HETATM   12  C   UNL     1     -10.332   8.865  71.106  1.00  0.00    -0.338 C  
BRANCH  12  13
HETATM   13  C   UNL     1     -10.836   8.004  72.262  1.00  0.00    -0.305 C  
HETATM   14  O   UNL     1      -8.565   6.636  72.271  1.00  0.00    -0.122 OA 
HETATM   15  S   UNL     1      -9.499   7.279  73.161  1.00  0.00    -0.206 S  
HETATM   16  O   UNL     1      -8.814   8.652  73.669  1.00  0.00    -0.224 OA 
HETATM   17  O   UNL     1      -9.986   6.650  74.367  1.00  0.00    -0.314 OA 
BRANCH  13  18
HETATM   18  C   UNL     1     -11.697   6.893  71.751  1.00  0.00    -0.302 C  
HETATM   19  O   UNL     1     -12.890   6.781  71.996  1.00  0.00    -0.285 OA 
BRANCH  18  20
HETATM   20  O   UNL     1     -10.940   5.938  71.141  1.00  0.00    -0.270 OA 
BRANCH  20  21
HETATM   21  C   UNL     1     -11.085   5.869  69.712  1.00  0.00    -0.352 C  
HETATM   22  C   UNL     1      -9.755   5.846  68.935  1.00  0.00    -0.168 C  
HETATM   23  C   UNL     1      -8.834   4.690  69.382  1.00  0.00    -0.124 C  
HETATM   24  C   UNL     1      -9.991   5.817  67.407  1.00  0.00    -0.172 C  
HETATM   25  C   UNL     1      -9.367   3.290  69.108  1.00  0.00    -0.233 C  
BRANCH  24  26
HETATM   26  C   UNL     1     -10.798   7.010  66.885  1.00  0.00    -0.350 C  
BRANCH  26  27
HETATM   27  C   UNL     1     -10.047   8.327  67.082  1.00  0.00    -0.334 C  
HETATM   28  C   UNL     1      -9.412   8.790  65.777  1.00  0.00    -0.239 C  
ENDBRANCH  26  27
ENDBRANCH  24  26
ENDBRANCH  20  21
ENDBRANCH  18  20
ENDBRANCH  13  18
ENDBRANCH  12  13
ENDBRANCH  10  12
ENDBRANCH   9  10
ENDBRANCH   7   9
ENDBRANCH   3   4
ENDBRANCH   2   3
TORSDOF 11
ENDMDL
MODEL       98
REMARK 921   NORMALIZED FREE ENERGY PREDICTED BY IDOCK:   -4.37 KCAL/MOL
REMARK 922        TOTAL FREE ENERGY PREDICTED BY IDOCK:   -9.43 KCAL/MOL
REMARK 923 INTER-LIGAND FREE ENERGY PREDICTED BY IDOCK:   -8.03 KCAL/MOL
REMARK 924 INTRA-LIGAND FREE ENERGY PREDICTED BY IDOCK:   -1.40 KCAL/MOL
REMARK 927      BINDING AFFINITY PREDICTED BY RF-SCORE:    0.00 PKD
ROOT
HETATM    1  C   UNL     1     -12.118  14.703  64.426  1.00  0.00    -0.481 C  
HETATM    2  C   UNL     1     -12.661  13.873  65.581  1.00  0.00    -0.534 C  
ENDROOT
BRANCH   2   3
HETATM    3  C   UNL     1     -11.916  12.544  65.700  1.00  0.00    -0.492 C  
BRANCH   3   4
HETATM    4  C   UNL     1     -10.411  12.742  65.921  1.00  0.00    -0.295 C  
HETATM    5  C   UNL     1      -9.707  11.494  66.497  1.00  0.00    -0.226 C  
HETATM    6  C   UNL     1      -9.907  10.207  65.664  1.00  0.00    -0.347 C  
HETATM    7  C   UNL     1      -8.211  11.789  66.742  1.00  0.00    -0.147 C  
HETATM    8  C   UNL     1      -9.248  10.226  64.293  1.00  0.00    -0.300 C  
BRANCH   7   9
HETATM    9  O   UNL     1      -7.580  10.600  67.251  1.00  0.00    -0.096 OA 
BRANCH   9  10
HETATM   10  C   UNL     1      -7.647  10.423  68.596  1.00  0.00    -0.092 C  
HETATM   11  O   UNL     1      -7.407  11.285  69.430  1.00  0.00    -0.105 OA 
BRANCH  10  12
HETATM   12  C   UNL     1      -8.251   9.087  68.940  1.00  0.00    -0.120 C  
BRANCH  12  13
HETATM   13  C   UNL     1      -9.146   9.113  70.176  1.00  0.00    -0.206 C  
HETATM   14  O   UNL     1      -8.345   6.675  70.842  1.00  0.00    -0.123 OA 
HETATM   15  S   UNL     1      -8.583   7.979  71.408  1.00  0.00    -0.142 S  
HETATM   16  O   UNL     1      -7.141   8.658  71.679  1.00  0.00    -0.088 OA 
HETATM   17  O   UNL     1      -9.312   8.173  72.641  1.00  0.00    -0.217 OA 
BRANCH  13  18
HETATM   18  C   UNL     1     -10.547   8.734  69.815  1.00  0.00    -0.224 C  
HETATM   19  O   UNL     1     -10.948   7.581  69.735  1.00  0.00    -0.244 OA 
BRANCH  18  20
HETATM   20  O   UNL     1     -11.254   9.828  69.413  1.00  0.00    -0.205 OA 
BRANCH  20  21
HETATM   21  C   UNL     1     -11.517  10.794  70.445  1.00  0.00    -0.307 C  
HETATM   22  C   UNL     1     -12.982  10.844  70.915  1.00  0.00    -0.347 C  
HETATM   23  C   UNL     1     -13.491   9.469  71.402  1.00  0.00    -0.405 C  
HETATM   24  C   UNL     1     -13.197  11.934  71.991  1.00  0.00    -0.461 C  
HETATM   25  C   UNL     1     -12.796   8.919  72.640  1.00  0.00    -0.316 C  
BRANCH  24  26
HETATM   26  C   UNL     1     -12.825  13.344  71.524  1.00  0.00    -0.427 C  
BRANCH  26  27
HETATM   27  C   UNL     1     -13.511  14.417  72.371  1.00  0.00    -0.557 C  
HETATM   28  C   UNL     1     -12.763  15.741  72.279  1.00  0.00    -0.525 C  
ENDBRANCH  26  27
ENDBRANCH  24  26
ENDBRANCH  20  21
ENDBRANCH  18  20
ENDBRANCH  13  18
ENDBRANCH  12  13
ENDBRANCH  10  12
ENDBRANCH   9  10
ENDBRANCH   7   9
ENDBRANCH   3   4
ENDBRANCH   2   3
TORSDOF 11
ENDMDL
MODEL       99
REMARK 921   NORMALIZED FREE ENERGY PREDICTED BY IDOCK:   -4.36 KCAL/MOL
REMARK 922        TOTAL FREE ENERGY PREDICTED BY IDOCK:   -9.40 KCAL/MOL
REMARK 923 INTER-LIGAND FREE ENERGY PREDICTED BY IDOCK:   -8.08 KCAL/MOL
REMARK 924 INTRA-LIGAND FREE ENERGY PREDICTED BY IDOCK:   -1.33 KCAL/MOL
REMARK 927      BINDING AFFINITY PREDICTED BY RF-SCORE:    0.00 PKD
ROOT
HETATM    1  C   UNL     1      -6.814  20.063  65.212  1.00  0.00    -0.328 C  
HETATM    2  C   UNL     1      -6.013  19.063  66.035  1.00  0.00    -0.194 C  
ENDROOT
BRANCH   2   3
HETATM    3  C   UNL     1      -6.866  18.464  67.153  1.00  0.00    -0.207 C  
BRANCH   3   4
HETATM    4  C   UNL     1      -8.144  17.808  66.618  1.00  0.00    -0.288 C  
HETATM    5  C   UNL     1      -9.186  17.507  67.718  1.00  0.00    -0.253 C  
HETATM    6  C   UNL     1      -9.591  18.735  68.566  1.00  0.00    -0.413 C  
HETATM    7  C   UNL     1     -10.417  16.801  67.110  1.00  0.00    -0.299 C  
HETATM    8  C   UNL     1     -10.365  19.805  67.810  1.00  0.00    -0.573 C  
BRANCH   7   9
HETATM    9  O   UNL     1     -11.378  16.560  68.154  1.00  0.00    -0.308 OA 
BRANCH   9  10
HETATM   10  C   UNL     1     -11.240  15.387  68.827  1.00  0.00    -0.301 C  
HETATM   11  O   UNL     1     -11.250  15.271  70.043  1.00  0.00    -0.249 OA 
BRANCH  10  12
HETATM   12  C   UNL     1     -11.272  14.214  67.884  1.00  0.00    -0.299 C  
BRANCH  12  13
HETATM   13  C   UNL     1     -10.470  13.009  68.370  1.00  0.00    -0.252 C  
HETATM   14  O   UNL     1      -9.561  12.587  65.915  1.00  0.00    -0.240 OA 
HETATM   15  S   UNL     1      -9.122  12.648  67.287  1.00  0.00    -0.199 S  
HETATM   16  O   UNL     1      -8.318  14.038  67.475  1.00  0.00    -0.167 OA 
HETATM   17  O   UNL     1      -8.259  11.648  67.874  1.00  0.00    -0.127 OA 
BRANCH  13  18
HETATM   18  C   UNL     1     -11.339  11.794  68.436  1.00  0.00    -0.270 C  
HETATM   19  O   UNL     1     -12.141  11.475  67.569  1.00  0.00    -0.614 OA 
BRANCH  18  20
HETATM   20  O   UNL     1     -11.250  11.203  69.661  1.00  0.00    -0.250 OA 
BRANCH  20  21
HETATM   21  C   UNL     1     -11.387   9.771  69.656  1.00  0.00    -0.122 C  
HETATM   22  C   UNL     1     -11.366   9.123  71.053  1.00  0.00    -0.377 C  
HETATM   23  C   UNL     1     -12.447   9.708  71.989  1.00  0.00    -0.412 C  
HETATM   24  C   UNL     1     -11.473   7.583  70.965  1.00  0.00    -0.299 C  
HETATM   25  C   UNL     1     -13.886   9.452  71.560  1.00  0.00    -0.297 C  
BRANCH  24  26
HETATM   26  C   UNL     1     -10.353   6.931  70.149  1.00  0.00    -0.218 C  
BRANCH  26  27
HETATM   27  C   UNL     1     -10.294   5.421  70.379  1.00  0.00    -0.353 C  
HETATM   28  C   UNL     1      -8.936   5.008  70.929  1.00  0.00    -0.165 C  
ENDBRANCH  26  27
ENDBRANCH  24  26
ENDBRANCH  20  21
ENDBRANCH  18  20
ENDBRANCH  13  18
ENDBRANCH  12  13
ENDBRANCH  10  12
ENDBRANCH   9  10
ENDBRANCH   7   9
ENDBRANCH   3   4
ENDBRANCH   2   3
TORSDOF 11
ENDMDL
MODEL      100
REMARK 921   NORMALIZED FREE ENERGY PREDICTED BY IDOCK:   -4.35 KCAL/MOL
REMARK 922        TOTAL FREE ENERGY PREDICTED BY IDOCK:   -9.40 KCAL/MOL
REMARK 923 INTER-LIGAND FREE ENERGY PREDICTED BY IDOCK:   -7.60 KCAL/MOL
REMARK 924 INTRA-LIGAND FREE ENERGY PREDICTED BY IDOCK:   -1.81 KCAL/MOL
REMARK 927      BINDING AFFINITY PREDICTED BY RF-SCORE:    0.00 PKD
ROOT
HETATM    1  C   UNL     1     -12.192  12.526  63.467  1.00  0.00    -0.652 C  
HETATM    2  C   UNL     1     -12.898  12.760  64.795  1.00  0.00    -0.374 C  
ENDROOT
BRANCH   2   3
HETATM    3  C   UNL     1     -12.177  13.826  65.619  1.00  0.00    -0.484 C  
BRANCH   3   4
HETATM    4  C   UNL     1     -11.907  13.363  67.056  1.00  0.00    -0.443 C  
HETATM    5  C   UNL     1     -11.352  11.924  67.143  1.00  0.00    -0.393 C  
HETATM    6  C   UNL     1     -10.073  11.682  66.309  1.00  0.00    -0.254 C  
HETATM    7  C   UNL     1     -11.159  11.514  68.618  1.00  0.00    -0.238 C  
HETATM    8  C   UNL     1      -8.841  12.429  66.800  1.00  0.00    -0.189 C  
BRANCH   7   9
HETATM    9  O   UNL     1     -10.616  10.182  68.664  1.00  0.00    -0.190 OA 
BRANCH   9  10
HETATM   10  C   UNL     1      -9.579   9.994  69.522  1.00  0.00    -0.230 C  
HETATM   11  O   UNL     1      -8.491  10.546  69.439  1.00  0.00    -0.154 OA 
BRANCH  10  12
HETATM   12  C   UNL     1      -9.999   9.170  70.710  1.00  0.00    -0.334 C  
BRANCH  12  13
HETATM   13  C   UNL     1     -11.173   8.236  70.430  1.00  0.00    -0.219 C  
HETATM   14  O   UNL     1     -11.526   7.853  73.030  1.00  0.00    -0.383 OA 
HETATM   15  S   UNL     1     -12.259   8.125  71.818  1.00  0.00    -0.335 S  
HETATM   16  O   UNL     1     -12.707   9.678  71.865  1.00  0.00    -0.374 OA 
HETATM   17  O   UNL     1     -13.464   7.411  71.460  1.00  0.00    -0.376 OA 
BRANCH  13  18
HETATM   18  C   UNL     1     -10.683   6.856  70.124  1.00  0.00    -0.237 C  
HETATM   19  O   UNL     1      -9.824   6.273  70.771  1.00  0.00    -0.181 OA 
BRANCH  18  20
HETATM   20  O   UNL     1     -11.183   6.420  68.933  1.00  0.00    -0.343 OA 
BRANCH  20  21
HETATM   21  C   UNL     1     -10.438   6.833  67.774  1.00  0.00    -0.222 C  
HETATM   22  C   UNL     1      -9.022   6.236  67.679  1.00  0.00    -0.115 C  
HETATM   23  C   UNL     1      -9.030   4.692  67.722  1.00  0.00    -0.126 C  
HETATM   24  C   UNL     1      -8.268   6.759  66.435  1.00  0.00    -0.117 C  
HETATM   25  C   UNL     1      -9.722   4.013  66.548  1.00  0.00    -0.211 C  
BRANCH  24  26
HETATM   26  C   UNL     1      -8.119   8.283  66.398  1.00  0.00    -0.105 C  
BRANCH  26  27
HETATM   27  C   UNL     1      -8.424   8.845  65.009  1.00  0.00    -0.194 C  
HETATM   28  C   UNL     1      -7.239   9.634  64.470  1.00  0.00    -0.121 C  
ENDBRANCH  26  27
ENDBRANCH  24  26
ENDBRANCH  20  21
ENDBRANCH  18  20
ENDBRANCH  13  18
ENDBRANCH  12  13
ENDBRANCH  10  12
ENDBRANCH   9  10
ENDBRANCH   7   9
ENDBRANCH   3   4
ENDBRANCH   2   3
TORSDOF 11
ENDMDL
MODEL      101
REMARK 921   NORMALIZED FREE ENERGY PREDICTED BY IDOCK:   -4.35 KCAL/MOL
REMARK 922        TOTAL FREE ENERGY PREDICTED BY IDOCK:   -9.39 KCAL/MOL
REMARK 923 INTER-LIGAND FREE ENERGY PREDICTED BY IDOCK:   -8.39 KCAL/MOL
REMARK 924 INTRA-LIGAND FREE ENERGY PREDICTED BY IDOCK:   -1.01 KCAL/MOL
REMARK 927      BINDING AFFINITY PREDICTED BY RF-SCORE:    0.00 PKD
ROOT
HETATM    1  C   UNL     1      -8.555   4.982  70.292  1.00  0.00    -0.116 C  
HETATM    2  C   UNL     1      -9.747   5.572  71.033  1.00  0.00    -0.229 C  
ENDROOT
BRANCH   2   3
HETATM    3  C   UNL     1     -10.346   6.747  70.260  1.00  0.00    -0.224 C  
BRANCH   3   4
HETATM    4  C   UNL     1      -9.509   7.119  69.030  1.00  0.00    -0.143 C  
HETATM    5  C   UNL     1     -10.123   8.262  68.193  1.00  0.00    -0.238 C  
HETATM    6  C   UNL     1     -10.409   9.555  68.991  1.00  0.00    -0.219 C  
HETATM    7  C   UNL     1      -9.252   8.541  66.949  1.00  0.00    -0.158 C  
HETATM    8  C   UNL     1      -9.171  10.283  69.493  1.00  0.00    -0.191 C  
BRANCH   7   9
HETATM    9  O   UNL     1      -9.835   9.627  66.206  1.00  0.00    -0.218 OA 
BRANCH   9  10
HETATM   10  C   UNL     1      -8.991  10.640  65.877  1.00  0.00    -0.175 C  
HETATM   11  O   UNL     1      -7.856  10.495  65.447  1.00  0.00    -0.152 OA 
BRANCH  10  12
HETATM   12  C   UNL     1      -9.695  11.970  65.919  1.00  0.00    -0.256 C  
BRANCH  12  13
HETATM   13  C   UNL     1     -11.217  11.863  65.947  1.00  0.00    -0.322 C  
HETATM   14  O   UNL     1     -11.424  13.960  64.339  1.00  0.00    -0.378 OA 
HETATM   15  S   UNL     1     -11.948  12.631  64.535  1.00  0.00    -0.427 S  
HETATM   16  O   UNL     1     -11.285  11.681  63.407  1.00  0.00    -0.396 OA 
HETATM   17  O   UNL     1     -13.361  12.334  64.474  1.00  0.00    -0.769 OA 
BRANCH  13  18
HETATM   18  C   UNL     1     -11.767  12.533  67.166  1.00  0.00    -0.355 C  
HETATM   19  O   UNL     1     -12.256  11.938  68.116  1.00  0.00    -0.470 OA 
BRANCH  18  20
HETATM   20  O   UNL     1     -11.819  13.884  66.991  1.00  0.00    -0.369 OA 
BRANCH  20  21
HETATM   21  C   UNL     1     -10.858  14.632  67.756  1.00  0.00    -0.267 C  
HETATM   22  C   UNL     1     -11.469  15.708  68.673  1.00  0.00    -0.381 C  
HETATM   23  C   UNL     1     -12.514  15.124  69.650  1.00  0.00    -0.171 C  
HETATM   24  C   UNL     1     -10.376  16.499  69.428  1.00  0.00    -0.298 C  
HETATM   25  C   UNL     1     -11.968  14.134  70.670  1.00  0.00    -0.385 C  
BRANCH  24  26
HETATM   26  C   UNL     1      -9.378  17.206  68.507  1.00  0.00    -0.274 C  
BRANCH  26  27
HETATM   27  C   UNL     1     -10.058  18.284  67.662  1.00  0.00    -0.368 C  
HETATM   28  C   UNL     1     -10.374  19.513  68.504  1.00  0.00    -0.436 C  
ENDBRANCH  26  27
ENDBRANCH  24  26
ENDBRANCH  20  21
ENDBRANCH  18  20
ENDBRANCH  13  18
ENDBRANCH  12  13
ENDBRANCH  10  12
ENDBRANCH   9  10
ENDBRANCH   7   9
ENDBRANCH   3   4
ENDBRANCH   2   3
TORSDOF 11
ENDMDL
MODEL      102
REMARK 921   NORMALIZED FREE ENERGY PREDICTED BY IDOCK:   -4.35 KCAL/MOL
REMARK 922        TOTAL FREE ENERGY PREDICTED BY IDOCK:   -9.39 KCAL/MOL
REMARK 923 INTER-LIGAND FREE ENERGY PREDICTED BY IDOCK:   -8.08 KCAL/MOL
REMARK 924 INTRA-LIGAND FREE ENERGY PREDICTED BY IDOCK:   -1.31 KCAL/MOL
REMARK 927      BINDING AFFINITY PREDICTED BY RF-SCORE:    0.00 PKD
ROOT
HETATM    1  C   UNL     1     -10.029  17.945  66.939  1.00  0.00    -0.335 C  
HETATM    2  C   UNL     1     -10.407  18.465  68.320  1.00  0.00    -0.384 C  
ENDROOT
BRANCH   2   3
HETATM    3  C   UNL     1     -10.521  17.319  69.325  1.00  0.00    -0.220 C  
BRANCH   3   4
HETATM    4  C   UNL     1     -11.183  16.078  68.715  1.00  0.00    -0.360 C  
HETATM    5  C   UNL     1     -11.164  14.850  69.652  1.00  0.00    -0.300 C  
HETATM    6  C   UNL     1     -11.792  15.098  71.042  1.00  0.00    -0.382 C  
HETATM    7  C   UNL     1     -11.797  13.631  68.948  1.00  0.00    -0.364 C  
HETATM    8  C   UNL     1     -13.293  15.348  71.029  1.00  0.00    -0.545 C  
BRANCH   7   9
HETATM    9  O   UNL     1     -11.789  12.514  69.856  1.00  0.00    -0.325 OA 
BRANCH   9  10
HETATM   10  C   UNL     1     -11.859  11.284  69.281  1.00  0.00    -0.354 C  
HETATM   11  O   UNL     1     -12.256  11.061  68.147  1.00  0.00    -0.578 OA 
BRANCH  10  12
HETATM   12  C   UNL     1     -11.198  10.242  70.145  1.00  0.00    -0.387 C  
BRANCH  12  13
HETATM   13  C   UNL     1     -10.495   9.142  69.356  1.00  0.00    -0.219 C  
HETATM   14  O   UNL     1      -9.214   8.355  71.540  1.00  0.00    -0.159 OA 
HETATM   15  S   UNL     1      -9.946   7.836  70.412  1.00  0.00    -0.189 S  
HETATM   16  O   UNL     1     -11.398   7.373  70.951  1.00  0.00    -0.264 OA 
HETATM   17  O   UNL     1      -9.478   6.716  69.627  1.00  0.00    -0.143 OA 
BRANCH  13  18
HETATM   18  C   UNL     1      -9.296   9.689  68.649  1.00  0.00    -0.143 C  
HETATM   19  O   UNL     1      -8.720  10.720  68.969  1.00  0.00    -0.161 OA 
BRANCH  18  20
HETATM   20  O   UNL     1      -9.051   8.991  67.504  1.00  0.00    -0.131 OA 
BRANCH  20  21
HETATM   21  C   UNL     1      -9.857   9.373  66.375  1.00  0.00    -0.269 C  
HETATM   22  C   UNL     1      -9.190  10.388  65.428  1.00  0.00    -0.233 C  
HETATM   23  C   UNL     1      -7.826   9.890  64.900  1.00  0.00    -0.136 C  
HETATM   24  C   UNL     1     -10.130  10.784  64.267  1.00  0.00    -0.427 C  
HETATM   25  C   UNL     1      -7.883   8.649  64.020  1.00  0.00    -0.146 C  
BRANCH  24  26
HETATM   26  C   UNL     1     -11.454  11.401  64.728  1.00  0.00    -0.056 C  
BRANCH  26  27
HETATM   27  C   UNL     1     -11.351  12.920  64.861  1.00  0.00    -0.340 C  
HETATM   28  C   UNL     1     -12.646  13.507  65.407  1.00  0.00    -0.531 C  
ENDBRANCH  26  27
ENDBRANCH  24  26
ENDBRANCH  20  21
ENDBRANCH  18  20
ENDBRANCH  13  18
ENDBRANCH  12  13
ENDBRANCH  10  12
ENDBRANCH   9  10
ENDBRANCH   7   9
ENDBRANCH   3   4
ENDBRANCH   2   3
TORSDOF 11
ENDMDL
MODEL      103
REMARK 921   NORMALIZED FREE ENERGY PREDICTED BY IDOCK:   -4.34 KCAL/MOL
REMARK 922        TOTAL FREE ENERGY PREDICTED BY IDOCK:   -9.39 KCAL/MOL
REMARK 923 INTER-LIGAND FREE ENERGY PREDICTED BY IDOCK:   -7.30 KCAL/MOL
REMARK 924 INTRA-LIGAND FREE ENERGY PREDICTED BY IDOCK:   -2.08 KCAL/MOL
REMARK 927      BINDING AFFINITY PREDICTED BY RF-SCORE:    0.00 PKD
ROOT
HETATM    1  C   UNL     1     -10.702  16.409  68.216  1.00  0.00    -0.337 C  
HETATM    2  C   UNL     1     -10.697  15.138  67.378  1.00  0.00    -0.286 C  
ENDROOT
BRANCH   2   3
HETATM    3  C   UNL     1     -11.952  14.305  67.638  1.00  0.00    -0.400 C  
BRANCH   3   4
HETATM    4  C   UNL     1     -11.921  13.624  69.011  1.00  0.00    -0.392 C  
HETATM    5  C   UNL     1     -11.865  12.083  68.932  1.00  0.00    -0.356 C  
HETATM    6  C   UNL     1     -10.690  11.530  68.093  1.00  0.00    -0.242 C  
HETATM    7  C   UNL     1     -11.891  11.473  70.350  1.00  0.00    -0.320 C  
HETATM    8  C   UNL     1      -9.310  11.776  68.687  1.00  0.00    -0.096 C  
BRANCH   7   9
HETATM    9  O   UNL     1     -11.809  10.040  70.241  1.00  0.00    -0.252 OA 
BRANCH   9  10
HETATM   10  C   UNL     1     -12.250   9.339  71.319  1.00  0.00    -0.334 C  
HETATM   11  O   UNL     1     -13.403   8.971  71.492  1.00  0.00    -0.346 OA 
BRANCH  10  12
HETATM   12  C   UNL     1     -11.101   8.893  72.184  1.00  0.00    -0.355 C  
BRANCH  12  13
HETATM   13  C   UNL     1     -10.286   7.748  71.587  1.00  0.00    -0.186 C  
HETATM   14  O   UNL     1     -10.142   6.574  73.959  1.00  0.00    -0.260 OA 
HETATM   15  S   UNL     1     -10.403   6.286  72.570  1.00  0.00    -0.198 S  
HETATM   16  O   UNL     1     -11.995   6.052  72.417  1.00  0.00    -0.302 OA 
HETATM   17  O   UNL     1      -9.804   5.166  71.881  1.00  0.00    -0.166 OA 
BRANCH  13  18
HETATM   18  C   UNL     1      -8.841   8.124  71.500  1.00  0.00    -0.154 C  
HETATM   19  O   UNL     1      -8.276   8.868  72.290  1.00  0.00    -0.379 OA 
BRANCH  18  20
HETATM   20  O   UNL     1      -8.296   7.681  70.332  1.00  0.00    -0.120 OA 
BRANCH  20  21
HETATM   21  C   UNL     1      -8.868   8.250  69.141  1.00  0.00    -0.143 C  
HETATM   22  C   UNL     1      -8.983   7.272  67.957  1.00  0.00    -0.131 C  
HETATM   23  C   UNL     1      -9.786   6.003  68.318  1.00  0.00    -0.152 C  
HETATM   24  C   UNL     1      -9.563   7.965  66.702  1.00  0.00    -0.293 C  
HETATM   25  C   UNL     1     -11.252   6.237  68.659  1.00  0.00    -0.328 C  
BRANCH  24  26
HETATM   26  C   UNL     1      -8.736   9.161  66.220  1.00  0.00    -0.159 C  
BRANCH  26  27
HETATM   27  C   UNL     1      -9.095   9.551  64.786  1.00  0.00    -0.271 C  
HETATM   28  C   UNL     1      -9.831  10.883  64.753  1.00  0.00    -0.343 C  
ENDBRANCH  26  27
ENDBRANCH  24  26
ENDBRANCH  20  21
ENDBRANCH  18  20
ENDBRANCH  13  18
ENDBRANCH  12  13
ENDBRANCH  10  12
ENDBRANCH   9  10
ENDBRANCH   7   9
ENDBRANCH   3   4
ENDBRANCH   2   3
TORSDOF 11
ENDMDL
MODEL      104
REMARK 921   NORMALIZED FREE ENERGY PREDICTED BY IDOCK:   -4.33 KCAL/MOL
REMARK 922        TOTAL FREE ENERGY PREDICTED BY IDOCK:   -9.37 KCAL/MOL
REMARK 923 INTER-LIGAND FREE ENERGY PREDICTED BY IDOCK:   -7.17 KCAL/MOL
REMARK 924 INTRA-LIGAND FREE ENERGY PREDICTED BY IDOCK:   -2.20 KCAL/MOL
REMARK 927      BINDING AFFINITY PREDICTED BY RF-SCORE:    0.00 PKD
ROOT
HETATM    1  C   UNL     1      -7.666  10.716  66.477  1.00  0.00    -0.137 C  
HETATM    2  C   UNL     1      -7.485  10.114  65.091  1.00  0.00    -0.141 C  
ENDROOT
BRANCH   2   3
HETATM    3  C   UNL     1      -8.708   9.292  64.686  1.00  0.00    -0.223 C  
BRANCH   3   4
HETATM    4  C   UNL     1      -9.653   9.040  65.867  1.00  0.00    -0.317 C  
HETATM    5  C   UNL     1      -9.756   7.551  66.263  1.00  0.00    -0.099 C  
HETATM    6  C   UNL     1      -8.400   6.880  66.579  1.00  0.00    -0.121 C  
HETATM    7  C   UNL     1     -10.764   7.374  67.419  1.00  0.00    -0.278 C  
HETATM    8  C   UNL     1      -7.707   7.399  67.831  1.00  0.00    -0.116 C  
BRANCH   7   9
HETATM    9  O   UNL     1     -10.815   5.982  67.783  1.00  0.00    -0.281 OA 
BRANCH   9  10
HETATM   10  C   UNL     1     -10.724   5.714  69.112  1.00  0.00    -0.255 C  
HETATM   11  O   UNL     1     -10.141   4.754  69.595  1.00  0.00    -0.229 OA 
BRANCH  10  12
HETATM   12  C   UNL     1     -11.259   6.856  69.935  1.00  0.00    -0.334 C  
BRANCH  12  13
HETATM   13  C   UNL     1     -10.353   7.259  71.095  1.00  0.00    -0.198 C  
HETATM   14  O   UNL     1     -12.461   8.008  72.519  1.00  0.00    -0.260 OA 
HETATM   15  S   UNL     1     -11.228   7.268  72.629  1.00  0.00    -0.306 S  
HETATM   16  O   UNL     1     -11.611   5.697  72.666  1.00  0.00    -0.307 OA 
HETATM   17  O   UNL     1     -10.311   7.442  73.732  1.00  0.00    -0.348 OA 
BRANCH  13  18
HETATM   18  C   UNL     1      -9.804   8.633  70.877  1.00  0.00    -0.205 C  
HETATM   19  O   UNL     1      -9.285   9.312  71.753  1.00  0.00    -0.306 OA 
BRANCH  18  20
HETATM   20  O   UNL     1     -10.125   9.090  69.634  1.00  0.00    -0.185 OA 
BRANCH  20  21
HETATM   21  C   UNL     1     -10.091  10.520  69.484  1.00  0.00    -0.178 C  
HETATM   22  C   UNL     1     -11.424  11.146  69.034  1.00  0.00    -0.364 C  
HETATM   23  C   UNL     1     -12.591  10.788  69.981  1.00  0.00    -0.247 C  
HETATM   24  C   UNL     1     -11.298  12.677  68.853  1.00  0.00    -0.345 C  
HETATM   25  C   UNL     1     -12.468  11.329  71.399  1.00  0.00    -0.392 C  
BRANCH  24  26
HETATM   26  C   UNL     1     -10.237  13.092  67.830  1.00  0.00    -0.231 C  
BRANCH  26  27
HETATM   27  C   UNL     1     -10.745  12.935  66.396  1.00  0.00    -0.286 C  
HETATM   28  C   UNL     1     -12.155  13.493  66.255  1.00  0.00    -0.476 C  
ENDBRANCH  26  27
ENDBRANCH  24  26
ENDBRANCH  20  21
ENDBRANCH  18  20
ENDBRANCH  13  18
ENDBRANCH  12  13
ENDBRANCH  10  12
ENDBRANCH   9  10
ENDBRANCH   7   9
ENDBRANCH   3   4
ENDBRANCH   2   3
TORSDOF 11
ENDMDL
MODEL      105
REMARK 921   NORMALIZED FREE ENERGY PREDICTED BY IDOCK:   -4.33 KCAL/MOL
REMARK 922        TOTAL FREE ENERGY PREDICTED BY IDOCK:   -9.36 KCAL/MOL
REMARK 923 INTER-LIGAND FREE ENERGY PREDICTED BY IDOCK:   -8.14 KCAL/MOL
REMARK 924 INTRA-LIGAND FREE ENERGY PREDICTED BY IDOCK:   -1.21 KCAL/MOL
REMARK 927      BINDING AFFINITY PREDICTED BY RF-SCORE:    0.00 PKD
ROOT
HETATM    1  C   UNL     1      -9.122  16.905  66.944  1.00  0.00    -0.248 C  
HETATM    2  C   UNL     1     -10.373  17.554  67.520  1.00  0.00    -0.356 C  
ENDROOT
BRANCH   2   3
HETATM    3  C   UNL     1     -10.695  16.991  68.904  1.00  0.00    -0.300 C  
BRANCH   3   4
HETATM    4  C   UNL     1     -11.754  15.884  68.847  1.00  0.00    -0.376 C  
HETATM    5  C   UNL     1     -11.488  14.728  69.837  1.00  0.00    -0.322 C  
HETATM    6  C   UNL     1     -11.333  15.173  71.310  1.00  0.00    -0.368 C  
HETATM    7  C   UNL     1     -12.565  13.633  69.682  1.00  0.00     0.063 C  
HETATM    8  C   UNL     1     -12.599  15.728  71.946  1.00  0.00    -0.522 C  
BRANCH   7   9
HETATM    9  O   UNL     1     -12.305  12.587  70.635  1.00  0.00    -0.355 OA 
BRANCH   9  10
HETATM   10  C   UNL     1     -12.186  11.334  70.122  1.00  0.00    -0.330 C  
HETATM   11  O   UNL     1     -12.170  11.063  68.930  1.00  0.00    -0.519 OA 
BRANCH  10  12
HETATM   12  C   UNL     1     -11.872  10.332  71.201  1.00  0.00    -0.455 C  
BRANCH  12  13
HETATM   13  C   UNL     1     -11.266   9.032  70.680  1.00  0.00    -0.270 C  
HETATM   14  O   UNL     1     -11.658   7.872  73.032  1.00  0.00    -0.351 OA 
HETATM   15  S   UNL     1     -11.813   7.639  71.618  1.00  0.00    -0.305 S  
HETATM   16  O   UNL     1     -13.390   7.760  71.280  1.00  0.00    -0.280 OA 
HETATM   17  O   UNL     1     -11.400   6.409  70.980  1.00  0.00    -0.298 OA 
BRANCH  13  18
HETATM   18  C   UNL     1      -9.773   9.079  70.765  1.00  0.00    -0.246 C  
HETATM   19  O   UNL     1      -9.145   9.094  71.815  1.00  0.00    -0.346 OA 
BRANCH  18  20
HETATM   20  O   UNL     1      -9.226   9.289  69.535  1.00  0.00    -0.150 OA 
BRANCH  20  21
HETATM   21  C   UNL     1      -9.178   8.129  68.686  1.00  0.00    -0.143 C  
HETATM   22  C   UNL     1     -10.262   8.092  67.592  1.00  0.00    -0.296 C  
HETATM   23  C   UNL     1     -10.234   9.349  66.694  1.00  0.00    -0.319 C  
HETATM   24  C   UNL     1     -10.175   6.798  66.750  1.00  0.00    -0.273 C  
HETATM   25  C   UNL     1      -8.971   9.524  65.861  1.00  0.00    -0.210 C  
BRANCH  24  26
HETATM   26  C   UNL     1     -10.321   5.515  67.574  1.00  0.00    -0.268 C  
BRANCH  26  27
HETATM   27  C   UNL     1      -9.532   4.359  66.958  1.00  0.00    -0.194 C  
HETATM   28  C   UNL     1      -8.042   4.508  67.240  1.00  0.00    -0.101 C  
ENDBRANCH  26  27
ENDBRANCH  24  26
ENDBRANCH  20  21
ENDBRANCH  18  20
ENDBRANCH  13  18
ENDBRANCH  12  13
ENDBRANCH  10  12
ENDBRANCH   9  10
ENDBRANCH   7   9
ENDBRANCH   3   4
ENDBRANCH   2   3
TORSDOF 11
ENDMDL
MODEL      106
REMARK 921   NORMALIZED FREE ENERGY PREDICTED BY IDOCK:   -4.32 KCAL/MOL
REMARK 922        TOTAL FREE ENERGY PREDICTED BY IDOCK:   -9.35 KCAL/MOL
REMARK 923 INTER-LIGAND FREE ENERGY PREDICTED BY IDOCK:   -8.47 KCAL/MOL
REMARK 924 INTRA-LIGAND FREE ENERGY PREDICTED BY IDOCK:   -0.88 KCAL/MOL
REMARK 927      BINDING AFFINITY PREDICTED BY RF-SCORE:    0.00 PKD
ROOT
HETATM    1  C   UNL     1      -6.398  20.661  65.872  1.00  0.00    -0.277 C  
HETATM    2  C   UNL     1      -5.748  19.465  66.554  1.00  0.00    -0.170 C  
ENDROOT
BRANCH   2   3
HETATM    3  C   UNL     1      -6.669  18.875  67.621  1.00  0.00    -0.218 C  
BRANCH   3   4
HETATM    4  C   UNL     1      -7.694  17.901  67.027  1.00  0.00    -0.232 C  
HETATM    5  C   UNL     1      -8.954  17.727  67.904  1.00  0.00    -0.255 C  
HETATM    6  C   UNL     1      -9.682  19.048  68.243  1.00  0.00    -0.419 C  
HETATM    7  C   UNL     1      -9.910  16.695  67.267  1.00  0.00    -0.255 C  
HETATM    8  C   UNL     1     -10.329  19.744  67.054  1.00  0.00    -0.593 C  
BRANCH   7   9
HETATM    9  O   UNL     1     -11.084  16.578  68.092  1.00  0.00    -0.354 OA 
BRANCH   9  10
HETATM   10  C   UNL     1     -11.077  15.557  68.989  1.00  0.00    -0.267 C  
HETATM   11  O   UNL     1     -10.668  15.636  70.138  1.00  0.00    -0.302 OA 
BRANCH  10  12
HETATM   12  C   UNL     1     -11.822  14.361  68.457  1.00  0.00    -0.369 C  
BRANCH  12  13
HETATM   13  C   UNL     1     -11.024  13.061  68.513  1.00  0.00    -0.263 C  
HETATM   14  O   UNL     1     -12.340  12.128  66.409  1.00  0.00    -0.489 OA 
HETATM   15  S   UNL     1     -11.008  12.242  66.949  1.00  0.00    -0.282 S  
HETATM   16  O   UNL     1     -10.246  13.395  66.111  1.00  0.00    -0.287 OA 
HETATM   17  O   UNL     1     -10.079  11.135  66.969  1.00  0.00    -0.191 OA 
BRANCH  13  18
HETATM   18  C   UNL     1     -11.622  12.122  69.512  1.00  0.00    -0.315 C  
HETATM   19  O   UNL     1     -12.175  12.478  70.544  1.00  0.00    -0.365 OA 
BRANCH  18  20
HETATM   20  O   UNL     1     -11.306  10.831  69.210  1.00  0.00    -0.242 OA 
BRANCH  20  21
HETATM   21  C   UNL     1     -11.078   9.980  70.347  1.00  0.00    -0.327 C  
HETATM   22  C   UNL     1     -10.996   8.479  70.015  1.00  0.00    -0.197 C  
HETATM   23  C   UNL     1      -9.914   8.169  68.956  1.00  0.00    -0.191 C  
HETATM   24  C   UNL     1     -10.795   7.626  71.289  1.00  0.00    -0.252 C  
HETATM   25  C   UNL     1      -8.483   8.461  69.385  1.00  0.00    -0.125 C  
BRANCH  24  26
HETATM   26  C   UNL     1     -11.906   7.797  72.329  1.00  0.00    -0.378 C  
BRANCH  26  27
HETATM   27  C   UNL     1     -13.196   7.100  71.894  1.00  0.00    -0.278 C  
HETATM   28  C   UNL     1     -14.332   8.104  71.745  1.00  0.00    -0.582 C  
ENDBRANCH  26  27
ENDBRANCH  24  26
ENDBRANCH  20  21
ENDBRANCH  18  20
ENDBRANCH  13  18
ENDBRANCH  12  13
ENDBRANCH  10  12
ENDBRANCH   9  10
ENDBRANCH   7   9
ENDBRANCH   3   4
ENDBRANCH   2   3
TORSDOF 11
ENDMDL
MODEL      107
REMARK 921   NORMALIZED FREE ENERGY PREDICTED BY IDOCK:   -4.32 KCAL/MOL
REMARK 922        TOTAL FREE ENERGY PREDICTED BY IDOCK:   -9.35 KCAL/MOL
REMARK 923 INTER-LIGAND FREE ENERGY PREDICTED BY IDOCK:   -7.88 KCAL/MOL
REMARK 924 INTRA-LIGAND FREE ENERGY PREDICTED BY IDOCK:   -1.47 KCAL/MOL
REMARK 927      BINDING AFFINITY PREDICTED BY RF-SCORE:    0.00 PKD
ROOT
HETATM    1  C   UNL     1     -10.660   3.676  64.045  1.00  0.00    -0.272 C  
HETATM    2  C   UNL     1      -9.477   3.768  64.998  1.00  0.00    -0.167 C  
ENDROOT
BRANCH   2   3
HETATM    3  C   UNL     1      -9.170   5.223  65.352  1.00  0.00    -0.091 C  
BRANCH   3   4
HETATM    4  C   UNL     1      -9.768   5.629  66.705  1.00  0.00    -0.176 C  
HETATM    5  C   UNL     1      -8.940   6.702  67.445  1.00  0.00    -0.114 C  
HETATM    6  C   UNL     1      -8.684   7.987  66.626  1.00  0.00    -0.153 C  
HETATM    7  C   UNL     1      -9.575   7.015  68.817  1.00  0.00    -0.139 C  
HETATM    8  C   UNL     1      -9.926   8.819  66.339  1.00  0.00    -0.346 C  
BRANCH   7   9
HETATM    9  O   UNL     1      -8.797   8.037  69.467  1.00  0.00    -0.142 OA 
BRANCH   9  10
HETATM   10  C   UNL     1      -9.449   8.766  70.411  1.00  0.00    -0.179 C  
HETATM   11  O   UNL     1      -8.932   9.235  71.415  1.00  0.00    -0.311 OA 
BRANCH  10  12
HETATM   12  C   UNL     1     -10.849   9.100  69.969  1.00  0.00    -0.256 C  
BRANCH  12  13
HETATM   13  C   UNL     1     -11.363  10.435  70.501  1.00  0.00    -0.341 C  
HETATM   14  O   UNL     1     -13.780   9.401  70.844  1.00  0.00    -0.173 OA 
HETATM   15  S   UNL     1     -12.798  10.222  71.508  1.00  0.00    -0.488 S  
HETATM   16  O   UNL     1     -12.117   9.321  72.664  1.00  0.00    -0.059 OA 
HETATM   17  O   UNL     1     -13.139  11.462  72.169  1.00  0.00    -0.462 OA 
BRANCH  13  18
HETATM   18  C   UNL     1     -11.730  11.343  69.371  1.00  0.00    -0.338 C  
HETATM   19  O   UNL     1     -12.200  10.961  68.307  1.00  0.00    -0.526 OA 
BRANCH  18  20
HETATM   20  O   UNL     1     -11.302  12.614  69.614  1.00  0.00    -0.207 OA 
BRANCH  20  21
HETATM   21  C   UNL     1     -10.696  13.276  68.491  1.00  0.00    -0.262 C  
HETATM   22  C   UNL     1     -11.497  14.472  67.946  1.00  0.00    -0.348 C  
HETATM   23  C   UNL     1     -11.785  15.532  69.032  1.00  0.00    -0.392 C  
HETATM   24  C   UNL     1     -10.807  15.104  66.715  1.00  0.00    -0.322 C  
HETATM   25  C   UNL     1     -10.556  16.228  69.603  1.00  0.00    -0.320 C  
BRANCH  24  26
HETATM   26  C   UNL     1     -10.606  14.129  65.551  1.00  0.00    -0.335 C  
BRANCH  26  27
HETATM   27  C   UNL     1     -11.846  14.051  64.661  1.00  0.00    -0.433 C  
HETATM   28  C   UNL     1     -12.174  12.605  64.312  1.00  0.00    -0.524 C  
ENDBRANCH  26  27
ENDBRANCH  24  26
ENDBRANCH  20  21
ENDBRANCH  18  20
ENDBRANCH  13  18
ENDBRANCH  12  13
ENDBRANCH  10  12
ENDBRANCH   9  10
ENDBRANCH   7   9
ENDBRANCH   3   4
ENDBRANCH   2   3
TORSDOF 11
ENDMDL
MODEL      108
REMARK 921   NORMALIZED FREE ENERGY PREDICTED BY IDOCK:   -4.31 KCAL/MOL
REMARK 922        TOTAL FREE ENERGY PREDICTED BY IDOCK:   -9.33 KCAL/MOL
REMARK 923 INTER-LIGAND FREE ENERGY PREDICTED BY IDOCK:   -7.44 KCAL/MOL
REMARK 924 INTRA-LIGAND FREE ENERGY PREDICTED BY IDOCK:   -1.89 KCAL/MOL
REMARK 927      BINDING AFFINITY PREDICTED BY RF-SCORE:    0.00 PKD
ROOT
HETATM    1  C   UNL     1     -11.694  15.658  64.369  1.00  0.00    -0.218 C  
HETATM    2  C   UNL     1     -10.692  15.566  65.511  1.00  0.00    -0.395 C  
ENDROOT
BRANCH   2   3
HETATM    3  C   UNL     1     -11.267  14.768  66.682  1.00  0.00    -0.346 C  
BRANCH   3   4
HETATM    4  C   UNL     1     -10.405  13.550  67.032  1.00  0.00    -0.252 C  
HETATM    5  C   UNL     1     -11.100  12.202  66.740  1.00  0.00    -0.349 C  
HETATM    6  C   UNL     1     -11.594  12.042  65.283  1.00  0.00    -0.337 C  
HETATM    7  C   UNL     1     -10.192  11.029  67.167  1.00  0.00    -0.206 C  
HETATM    8  C   UNL     1     -10.489  11.956  64.241  1.00  0.00    -0.370 C  
BRANCH   7   9
HETATM    9  O   UNL     1     -10.856   9.790  66.856  1.00  0.00    -0.170 OA 
BRANCH   9  10
HETATM   10  C   UNL     1     -10.081   8.830  66.285  1.00  0.00    -0.184 C  
HETATM   11  O   UNL     1      -9.253   9.028  65.408  1.00  0.00    -0.220 OA 
BRANCH  10  12
HETATM   12  C   UNL     1     -10.224   7.516  67.005  1.00  0.00    -0.368 C  
BRANCH  12  13
HETATM   13  C   UNL     1      -9.006   7.133  67.841  1.00  0.00    -0.122 C  
HETATM   14  O   UNL     1      -9.734   4.585  67.791  1.00  0.00    -0.161 OA 
HETATM   15  S   UNL     1      -8.580   5.433  67.626  1.00  0.00    -0.103 S  
HETATM   16  O   UNL     1      -8.248   5.493  66.045  1.00  0.00    -0.109 OA 
HETATM   17  O   UNL     1      -7.309   5.148  68.253  1.00  0.00    -0.069 OA 
BRANCH  13  18
HETATM   18  C   UNL     1      -9.277   7.355  69.295  1.00  0.00    -0.147 C  
HETATM   19  O   UNL     1      -8.406   7.454  70.149  1.00  0.00    -0.131 OA 
BRANCH  18  20
HETATM   20  O   UNL     1     -10.609   7.246  69.559  1.00  0.00    -0.225 OA 
BRANCH  20  21
HETATM   21  C   UNL     1     -11.159   8.309  70.356  1.00  0.00    -0.235 C  
HETATM   22  C   UNL     1     -12.157   7.848  71.435  1.00  0.00    -0.333 C  
HETATM   23  C   UNL     1     -11.549   6.796  72.388  1.00  0.00    -0.284 C  
HETATM   24  C   UNL     1     -12.738   9.047  72.220  1.00  0.00    -0.457 C  
HETATM   25  C   UNL     1     -10.389   7.286  73.243  1.00  0.00    -0.389 C  
BRANCH  24  26
HETATM   26  C   UNL     1     -13.465  10.068  71.339  1.00  0.00    -0.355 C  
BRANCH  26  27
HETATM   27  C   UNL     1     -12.962  11.490  71.594  1.00  0.00    -0.499 C  
HETATM   28  C   UNL     1     -12.127  11.988  70.422  1.00  0.00    -0.407 C  
ENDBRANCH  26  27
ENDBRANCH  24  26
ENDBRANCH  20  21
ENDBRANCH  18  20
ENDBRANCH  13  18
ENDBRANCH  12  13
ENDBRANCH  10  12
ENDBRANCH   9  10
ENDBRANCH   7   9
ENDBRANCH   3   4
ENDBRANCH   2   3
TORSDOF 11
ENDMDL
MODEL      109
REMARK 921   NORMALIZED FREE ENERGY PREDICTED BY IDOCK:   -4.31 KCAL/MOL
REMARK 922        TOTAL FREE ENERGY PREDICTED BY IDOCK:   -9.33 KCAL/MOL
REMARK 923 INTER-LIGAND FREE ENERGY PREDICTED BY IDOCK:   -7.20 KCAL/MOL
REMARK 924 INTRA-LIGAND FREE ENERGY PREDICTED BY IDOCK:   -2.12 KCAL/MOL
REMARK 927      BINDING AFFINITY PREDICTED BY RF-SCORE:    0.00 PKD
ROOT
HETATM    1  C   UNL     1     -11.527   6.393  70.268  1.00  0.00    -0.468 C  
HETATM    2  C   UNL     1     -11.902   6.934  71.641  1.00  0.00    -0.363 C  
ENDROOT
BRANCH   2   3
HETATM    3  C   UNL     1     -11.323   8.332  71.857  1.00  0.00    -0.372 C  
BRANCH   3   4
HETATM    4  C   UNL     1     -12.143   9.415  71.146  1.00  0.00    -0.406 C  
HETATM    5  C   UNL     1     -11.275  10.516  70.498  1.00  0.00    -0.348 C  
HETATM    6  C   UNL     1     -10.211   9.989  69.509  1.00  0.00    -0.255 C  
HETATM    7  C   UNL     1     -12.173  11.593  69.852  1.00  0.00    -0.239 C  
HETATM    8  C   UNL     1     -10.772   9.369  68.238  1.00  0.00    -0.220 C  
BRANCH   7   9
HETATM    9  O   UNL     1     -11.335  12.588  69.235  1.00  0.00    -0.257 OA 
BRANCH   9  10
HETATM   10  C   UNL     1     -11.919  13.793  69.003  1.00  0.00    -0.360 C  
HETATM   11  O   UNL     1     -12.344  14.544  69.868  1.00  0.00    -0.320 OA 
BRANCH  10  12
HETATM   12  C   UNL     1     -11.800  14.184  67.553  1.00  0.00    -0.437 C  
BRANCH  12  13
HETATM   13  C   UNL     1     -10.386  14.574  67.132  1.00  0.00    -0.265 C  
HETATM   14  O   UNL     1     -11.344  15.924  65.062  1.00  0.00    -0.288 OA 
HETATM   15  S   UNL     1     -10.385  16.030  66.133  1.00  0.00    -0.340 S  
HETATM   16  O   UNL     1     -11.001  17.044  67.232  1.00  0.00    -0.181 OA 
HETATM   17  O   UNL     1      -9.033  16.498  65.926  1.00  0.00    -0.461 OA 
BRANCH  13  18
HETATM   18  C   UNL     1      -9.755  13.476  66.337  1.00  0.00    -0.289 C  
HETATM   19  O   UNL     1     -10.306  12.893  65.412  1.00  0.00    -0.288 OA 
BRANCH  18  20
HETATM   20  O   UNL     1      -8.572  13.093  66.896  1.00  0.00    -0.191 OA 
BRANCH  20  21
HETATM   21  C   UNL     1      -8.318  11.678  66.870  1.00  0.00    -0.169 C  
HETATM   22  C   UNL     1      -6.827  11.296  66.923  1.00  0.00    -0.134 C  
HETATM   23  C   UNL     1      -6.110  11.892  68.155  1.00  0.00    -0.051 C  
HETATM   24  C   UNL     1      -6.631   9.764  66.847  1.00  0.00    -0.067 C  
HETATM   25  C   UNL     1      -6.600  11.380  69.503  1.00  0.00    -0.129 C  
BRANCH  24  26
HETATM   26  C   UNL     1      -7.214   9.129  65.581  1.00  0.00    -0.082 C  
BRANCH  26  27
HETATM   27  C   UNL     1      -7.955   7.828  65.894  1.00  0.00    -0.107 C  
HETATM   28  C   UNL     1      -7.688   7.383  67.326  1.00  0.00    -0.116 C  
ENDBRANCH  26  27
ENDBRANCH  24  26
ENDBRANCH  20  21
ENDBRANCH  18  20
ENDBRANCH  13  18
ENDBRANCH  12  13
ENDBRANCH  10  12
ENDBRANCH   9  10
ENDBRANCH   7   9
ENDBRANCH   3   4
ENDBRANCH   2   3
TORSDOF 11
ENDMDL
MODEL      110
REMARK 921   NORMALIZED FREE ENERGY PREDICTED BY IDOCK:   -4.28 KCAL/MOL
REMARK 922        TOTAL FREE ENERGY PREDICTED BY IDOCK:   -9.28 KCAL/MOL
REMARK 923 INTER-LIGAND FREE ENERGY PREDICTED BY IDOCK:   -8.81 KCAL/MOL
REMARK 924 INTRA-LIGAND FREE ENERGY PREDICTED BY IDOCK:   -0.47 KCAL/MOL
REMARK 927      BINDING AFFINITY PREDICTED BY RF-SCORE:    0.00 PKD
ROOT
HETATM    1  C   UNL     1      -5.744  18.113  67.602  1.00  0.00    -0.150 C  
HETATM    2  C   UNL     1      -6.497  19.406  67.321  1.00  0.00    -0.204 C  
ENDROOT
BRANCH   2   3
HETATM    3  C   UNL     1      -7.726  19.532  68.221  1.00  0.00    -0.356 C  
BRANCH   3   4
HETATM    4  C   UNL     1      -9.026  19.212  67.474  1.00  0.00    -0.332 C  
HETATM    5  C   UNL     1      -9.284  17.698  67.311  1.00  0.00    -0.241 C  
HETATM    6  C   UNL     1      -9.282  16.905  68.638  1.00  0.00    -0.265 C  
HETATM    7  C   UNL     1     -10.579  17.460  66.505  1.00  0.00    -0.184 C  
HETATM    8  C   UNL     1     -10.434  17.230  69.578  1.00  0.00    -0.054 C  
BRANCH   7   9
HETATM    9  O   UNL     1     -10.805  16.042  66.396  1.00  0.00    -0.269 OA 
BRANCH   9  10
HETATM   10  C   UNL     1     -10.857  15.547  65.131  1.00  0.00    -0.436 C  
HETATM   11  O   UNL     1     -11.177  16.186  64.140  1.00  0.00    -0.661 OA 
BRANCH  10  12
HETATM   12  C   UNL     1     -10.279  14.158  65.067  1.00  0.00    -0.399 C  
BRANCH  12  13
HETATM   13  C   UNL     1     -11.057  13.206  64.163  1.00  0.00    -0.394 C  
HETATM   14  O   UNL     1     -12.255  12.135  66.272  1.00  0.00    -0.604 OA 
HETATM   15  S   UNL     1     -12.531  12.627  64.945  1.00  0.00    -0.422 S  
HETATM   16  O   UNL     1     -13.264  14.059  65.105  1.00  0.00    -0.768 OA 
HETATM   17  O   UNL     1     -13.352  11.904  64.001  1.00  0.00    -0.646 OA 
BRANCH  13  18
HETATM   18  C   UNL     1     -10.224  12.011  63.821  1.00  0.00    -0.422 C  
HETATM   19  O   UNL     1      -9.644  11.861  62.754  1.00  0.00    -0.307 OA 
BRANCH  18  20
HETATM   20  O   UNL     1     -10.353  11.045  64.774  1.00  0.00    -0.294 OA 
BRANCH  20  21
HETATM   21  C   UNL     1      -9.139  10.716  65.473  1.00  0.00    -0.190 C  
HETATM   22  C   UNL     1      -9.319  10.466  66.981  1.00  0.00    -0.176 C  
HETATM   23  C   UNL     1     -10.359   9.362  67.275  1.00  0.00    -0.325 C  
HETATM   24  C   UNL     1      -7.969  10.163  67.671  1.00  0.00    -0.102 C  
HETATM   25  C   UNL     1      -9.986   7.970  66.782  1.00  0.00    -0.344 C  
BRANCH  24  26
HETATM   26  C   UNL     1      -6.933  11.282  67.520  1.00  0.00    -0.091 C  
BRANCH  26  27
HETATM   27  C   UNL     1      -6.066  11.419  68.771  1.00  0.00    -0.048 C  
HETATM   28  C   UNL     1      -6.571  10.511  69.884  1.00  0.00    -0.130 C  
ENDBRANCH  26  27
ENDBRANCH  24  26
ENDBRANCH  20  21
ENDBRANCH  18  20
ENDBRANCH  13  18
ENDBRANCH  12  13
ENDBRANCH  10  12
ENDBRANCH   9  10
ENDBRANCH   7   9
ENDBRANCH   3   4
ENDBRANCH   2   3
TORSDOF 11
ENDMDL
MODEL      111
REMARK 921   NORMALIZED FREE ENERGY PREDICTED BY IDOCK:   -4.27 KCAL/MOL
REMARK 922        TOTAL FREE ENERGY PREDICTED BY IDOCK:   -9.26 KCAL/MOL
REMARK 923 INTER-LIGAND FREE ENERGY PREDICTED BY IDOCK:   -7.70 KCAL/MOL
REMARK 924 INTRA-LIGAND FREE ENERGY PREDICTED BY IDOCK:   -1.55 KCAL/MOL
REMARK 927      BINDING AFFINITY PREDICTED BY RF-SCORE:    0.00 PKD
ROOT
HETATM    1  C   UNL     1      -9.694   2.898  71.219  1.00  0.00    -0.205 C  
HETATM    2  C   UNL     1      -9.683   3.486  72.623  1.00  0.00    -0.200 C  
ENDROOT
BRANCH   2   3
HETATM    3  C   UNL     1     -11.050   4.066  72.986  1.00  0.00    -0.180 C  
BRANCH   3   4
HETATM    4  C   UNL     1     -10.954   5.519  73.465  1.00  0.00    -0.289 C  
HETATM    5  C   UNL     1     -10.730   6.530  72.319  1.00  0.00    -0.252 C  
HETATM    6  C   UNL     1     -11.787   6.462  71.193  1.00  0.00    -0.325 C  
HETATM    7  C   UNL     1     -10.591   7.959  72.886  1.00  0.00    -0.368 C  
HETATM    8  C   UNL     1     -13.186   6.894  71.604  1.00  0.00    -0.315 C  
BRANCH   7   9
HETATM    9  O   UNL     1     -10.411   8.878  71.793  1.00  0.00    -0.314 OA 
BRANCH   9  10
HETATM   10  C   UNL     1      -9.124   9.125  71.432  1.00  0.00    -0.109 C  
HETATM   11  O   UNL     1      -8.144   8.871  72.116  1.00  0.00    -0.369 OA 
BRANCH  10  12
HETATM   12  C   UNL     1      -9.038   9.570  69.996  1.00  0.00    -0.255 C  
BRANCH  12  13
HETATM   13  C   UNL     1     -10.269   9.216  69.165  1.00  0.00    -0.207 C  
HETATM   14  O   UNL     1      -8.760   8.914  67.006  1.00  0.00    -0.121 OA 
HETATM   15  S   UNL     1      -9.836   8.283  67.730  1.00  0.00    -0.181 S  
HETATM   16  O   UNL     1      -9.217   6.997  68.489  1.00  0.00    -0.138 OA 
HETATM   17  O   UNL     1     -11.024   7.781  67.077  1.00  0.00    -0.247 OA 
BRANCH  13  18
HETATM   18  C   UNL     1     -10.966  10.458  68.708  1.00  0.00    -0.245 C  
HETATM   19  O   UNL     1     -12.156  10.514  68.429  1.00  0.00    -0.330 OA 
BRANCH  18  20
HETATM   20  O   UNL     1     -10.068  11.456  68.470  1.00  0.00    -0.194 OA 
BRANCH  20  21
HETATM   21  C   UNL     1     -10.471  12.409  67.470  1.00  0.00    -0.215 C  
HETATM   22  C   UNL     1     -11.172  13.661  68.028  1.00  0.00    -0.295 C  
HETATM   23  C   UNL     1     -10.313  14.398  69.079  1.00  0.00    -0.204 C  
HETATM   24  C   UNL     1     -11.614  14.616  66.895  1.00  0.00    -0.374 C  
HETATM   25  C   UNL     1      -9.012  14.990  68.555  1.00  0.00    -0.186 C  
BRANCH  24  26
HETATM   26  C   UNL     1     -12.571  13.975  65.885  1.00  0.00    -0.484 C  
BRANCH  26  27
HETATM   27  C   UNL     1     -12.149  14.269  64.445  1.00  0.00    -0.490 C  
HETATM   28  C   UNL     1     -11.992  12.979  63.651  1.00  0.00    -0.608 C  
ENDBRANCH  26  27
ENDBRANCH  24  26
ENDBRANCH  20  21
ENDBRANCH  18  20
ENDBRANCH  13  18
ENDBRANCH  12  13
ENDBRANCH  10  12
ENDBRANCH   9  10
ENDBRANCH   7   9
ENDBRANCH   3   4
ENDBRANCH   2   3
TORSDOF 11
ENDMDL
MODEL      112
REMARK 921   NORMALIZED FREE ENERGY PREDICTED BY IDOCK:   -4.26 KCAL/MOL
REMARK 922        TOTAL FREE ENERGY PREDICTED BY IDOCK:   -9.24 KCAL/MOL
REMARK 923 INTER-LIGAND FREE ENERGY PREDICTED BY IDOCK:   -7.57 KCAL/MOL
REMARK 924 INTRA-LIGAND FREE ENERGY PREDICTED BY IDOCK:   -1.67 KCAL/MOL
REMARK 927      BINDING AFFINITY PREDICTED BY RF-SCORE:    0.00 PKD
ROOT
HETATM    1  C   UNL     1     -10.528   6.765  73.575  1.00  0.00    -0.356 C  
HETATM    2  C   UNL     1     -10.816   8.056  72.823  1.00  0.00    -0.438 C  
ENDROOT
BRANCH   2   3
HETATM    3  C   UNL     1     -11.519   7.773  71.495  1.00  0.00    -0.298 C  
BRANCH   3   4
HETATM    4  C   UNL     1     -12.298   8.990  70.981  1.00  0.00    -0.244 C  
HETATM    5  C   UNL     1     -11.393  10.179  70.593  1.00  0.00    -0.433 C  
HETATM    6  C   UNL     1     -10.297   9.835  69.558  1.00  0.00    -0.247 C  
HETATM    7  C   UNL     1     -12.252  11.379  70.139  1.00  0.00    -0.321 C  
HETATM    8  C   UNL     1     -10.817   9.485  68.171  1.00  0.00    -0.208 C  
BRANCH   7   9
HETATM    9  O   UNL     1     -11.379  12.458  69.758  1.00  0.00    -0.178 OA 
BRANCH   9  10
HETATM   10  C   UNL     1     -11.946  13.444  69.014  1.00  0.00    -0.315 C  
HETATM   11  O   UNL     1     -12.468  14.452  69.466  1.00  0.00    -0.273 OA 
BRANCH  10  12
HETATM   12  C   UNL     1     -11.676  13.240  67.546  1.00  0.00    -0.410 C  
BRANCH  12  13
HETATM   13  C   UNL     1     -11.452  14.537  66.774  1.00  0.00    -0.367 C  
HETATM   14  O   UNL     1     -11.118  13.175  64.525  1.00  0.00    -0.323 OA 
HETATM   15  S   UNL     1     -11.791  14.335  65.053  1.00  0.00    -0.416 S  
HETATM   16  O   UNL     1     -13.359  13.962  65.186  1.00  0.00    -0.698 OA 
HETATM   17  O   UNL     1     -11.779  15.615  64.382  1.00  0.00    -0.382 OA 
BRANCH  13  18
HETATM   18  C   UNL     1     -10.032  14.988  66.908  1.00  0.00    -0.244 C  
HETATM   19  O   UNL     1      -9.675  16.157  66.868  1.00  0.00    -0.227 OA 
BRANCH  18  20
HETATM   20  O   UNL     1      -9.184  13.920  66.892  1.00  0.00    -0.242 OA 
BRANCH  20  21
HETATM   21  C   UNL     1      -7.823  14.221  67.245  1.00  0.00    -0.147 C  
HETATM   22  C   UNL     1      -7.279  13.415  68.440  1.00  0.00    -0.110 C  
HETATM   23  C   UNL     1      -7.395  11.890  68.222  1.00  0.00    -0.093 C  
HETATM   24  C   UNL     1      -5.829  13.823  68.788  1.00  0.00    -0.084 C  
HETATM   25  C   UNL     1      -6.560  11.332  67.078  1.00  0.00    -0.116 C  
BRANCH  24  26
HETATM   26  C   UNL     1      -5.672  15.307  69.135  1.00  0.00    -0.099 C  
BRANCH  26  27
HETATM   27  C   UNL     1      -5.590  15.525  70.646  1.00  0.00    -0.094 C  
HETATM   28  C   UNL     1      -5.463  14.197  71.381  1.00  0.00    -0.211 C  
ENDBRANCH  26  27
ENDBRANCH  24  26
ENDBRANCH  20  21
ENDBRANCH  18  20
ENDBRANCH  13  18
ENDBRANCH  12  13
ENDBRANCH  10  12
ENDBRANCH   9  10
ENDBRANCH   7   9
ENDBRANCH   3   4
ENDBRANCH   2   3
TORSDOF 11
ENDMDL
MODEL      113
REMARK 921   NORMALIZED FREE ENERGY PREDICTED BY IDOCK:   -4.25 KCAL/MOL
REMARK 922        TOTAL FREE ENERGY PREDICTED BY IDOCK:   -9.22 KCAL/MOL
REMARK 923 INTER-LIGAND FREE ENERGY PREDICTED BY IDOCK:   -8.42 KCAL/MOL
REMARK 924 INTRA-LIGAND FREE ENERGY PREDICTED BY IDOCK:   -0.81 KCAL/MOL
REMARK 927      BINDING AFFINITY PREDICTED BY RF-SCORE:    0.00 PKD
ROOT
HETATM    1  C   UNL     1      -9.584   3.761  63.792  1.00  0.00    -0.154 C  
HETATM    2  C   UNL     1      -9.469   3.601  65.301  1.00  0.00    -0.162 C  
ENDROOT
BRANCH   2   3
HETATM    3  C   UNL     1     -10.080   4.799  66.028  1.00  0.00    -0.282 C  
BRANCH   3   4
HETATM    4  C   UNL     1      -9.162   6.027  65.992  1.00  0.00    -0.129 C  
HETATM    5  C   UNL     1      -9.888   7.345  66.340  1.00  0.00    -0.137 C  
HETATM    6  C   UNL     1     -10.620   7.329  67.702  1.00  0.00    -0.316 C  
HETATM    7  C   UNL     1      -8.914   8.538  66.230  1.00  0.00    -0.168 C  
HETATM    8  C   UNL     1      -9.707   7.246  68.917  1.00  0.00    -0.148 C  
BRANCH   7   9
HETATM    9  O   UNL     1      -9.613   9.744  66.588  1.00  0.00    -0.168 OA 
BRANCH   9  10
HETATM   10  C   UNL     1      -8.891  10.893  66.506  1.00  0.00    -0.163 C  
HETATM   11  O   UNL     1      -7.716  11.007  66.823  1.00  0.00    -0.132 OA 
BRANCH  10  12
HETATM   12  C   UNL     1      -9.661  11.968  65.785  1.00  0.00    -0.227 C  
BRANCH  12  13
HETATM   13  C   UNL     1     -11.176  11.814  65.884  1.00  0.00    -0.290 C  
HETATM   14  O   UNL     1     -11.522  13.942  64.341  1.00  0.00    -0.378 OA 
HETATM   15  S   UNL     1     -11.997  12.594  64.528  1.00  0.00    -0.427 S  
HETATM   16  O   UNL     1     -11.363  11.691  63.347  1.00  0.00    -0.395 OA 
HETATM   17  O   UNL     1     -13.402  12.255  64.528  1.00  0.00    -0.769 OA 
BRANCH  13  18
HETATM   18  C   UNL     1     -11.685  12.438  67.144  1.00  0.00    -0.345 C  
HETATM   19  O   UNL     1     -12.098  11.805  68.106  1.00  0.00    -0.556 OA 
BRANCH  18  20
HETATM   20  O   UNL     1     -11.798  13.789  67.002  1.00  0.00    -0.365 OA 
BRANCH  20  21
HETATM   21  C   UNL     1     -10.892  14.562  67.809  1.00  0.00    -0.264 C  
HETATM   22  C   UNL     1     -11.576  15.591  68.728  1.00  0.00    -0.390 C  
HETATM   23  C   UNL     1     -12.621  14.942  69.663  1.00  0.00    -0.094 C  
HETATM   24  C   UNL     1     -10.540  16.413  69.530  1.00  0.00    -0.320 C  
HETATM   25  C   UNL     1     -12.060  13.956  70.679  1.00  0.00    -0.417 C  
BRANCH  24  26
HETATM   26  C   UNL     1      -9.548  17.181  68.651  1.00  0.00    -0.281 C  
BRANCH  26  27
HETATM   27  C   UNL     1      -9.951  18.649  68.499  1.00  0.00    -0.430 C  
HETATM   28  C   UNL     1     -10.455  18.930  67.090  1.00  0.00    -0.509 C  
ENDBRANCH  26  27
ENDBRANCH  24  26
ENDBRANCH  20  21
ENDBRANCH  18  20
ENDBRANCH  13  18
ENDBRANCH  12  13
ENDBRANCH  10  12
ENDBRANCH   9  10
ENDBRANCH   7   9
ENDBRANCH   3   4
ENDBRANCH   2   3
TORSDOF 11
ENDMDL
MODEL      114
REMARK 921   NORMALIZED FREE ENERGY PREDICTED BY IDOCK:   -4.24 KCAL/MOL
REMARK 922        TOTAL FREE ENERGY PREDICTED BY IDOCK:   -9.22 KCAL/MOL
REMARK 923 INTER-LIGAND FREE ENERGY PREDICTED BY IDOCK:   -7.56 KCAL/MOL
REMARK 924 INTRA-LIGAND FREE ENERGY PREDICTED BY IDOCK:   -1.66 KCAL/MOL
REMARK 927      BINDING AFFINITY PREDICTED BY RF-SCORE:    0.00 PKD
ROOT
HETATM    1  C   UNL     1     -11.019  11.986  63.301  1.00  0.00    -0.399 C  
HETATM    2  C   UNL     1     -12.032  13.122  63.331  1.00  0.00    -0.552 C  
ENDROOT
BRANCH   2   3
HETATM    3  C   UNL     1     -11.972  13.875  64.659  1.00  0.00    -0.443 C  
BRANCH   3   4
HETATM    4  C   UNL     1     -12.405  13.001  65.842  1.00  0.00    -0.432 C  
HETATM    5  C   UNL     1     -11.290  12.789  66.889  1.00  0.00    -0.371 C  
HETATM    6  C   UNL     1     -10.686  14.096  67.451  1.00  0.00    -0.284 C  
HETATM    7  C   UNL     1     -11.785  11.857  68.017  1.00  0.00    -0.312 C  
HETATM    8  C   UNL     1     -11.638  14.925  68.301  1.00  0.00    -0.356 C  
BRANCH   7   9
HETATM    9  O   UNL     1     -10.734  11.703  68.988  1.00  0.00    -0.209 OA 
BRANCH   9  10
HETATM   10  C   UNL     1     -10.378  10.424  69.277  1.00  0.00    -0.230 C  
HETATM   11  O   UNL     1     -10.056  10.019  70.385  1.00  0.00    -0.247 OA 
BRANCH  10  12
HETATM   12  C   UNL     1     -10.621   9.514  68.102  1.00  0.00    -0.265 C  
BRANCH  12  13
HETATM   13  C   UNL     1      -9.386   8.734  67.660  1.00  0.00    -0.137 C  
HETATM   14  O   UNL     1      -9.744   9.528  65.157  1.00  0.00    -0.277 OA 
HETATM   15  S   UNL     1      -8.717   9.375  66.157  1.00  0.00    -0.153 S  
HETATM   16  O   UNL     1      -8.348  10.852  66.700  1.00  0.00    -0.132 OA 
HETATM   17  O   UNL     1      -7.438   8.764  65.873  1.00  0.00    -0.087 OA 
BRANCH  13  18
HETATM   18  C   UNL     1      -9.730   7.296  67.429  1.00  0.00    -0.150 C  
HETATM   19  O   UNL     1     -10.693   6.917  66.777  1.00  0.00    -0.297 OA 
BRANCH  18  20
HETATM   20  O   UNL     1      -8.941   6.484  68.187  1.00  0.00    -0.119 OA 
BRANCH  20  21
HETATM   21  C   UNL     1      -9.178   6.558  69.604  1.00  0.00    -0.143 C  
HETATM   22  C   UNL     1     -10.137   5.484  70.149  1.00  0.00    -0.308 C  
HETATM   23  C   UNL     1      -9.667   4.051  69.813  1.00  0.00    -0.254 C  
HETATM   24  C   UNL     1     -10.377   5.654  71.667  1.00  0.00    -0.270 C  
HETATM   25  C   UNL     1      -8.351   3.631  70.454  1.00  0.00    -0.082 C  
BRANCH  24  26
HETATM   26  C   UNL     1     -10.962   7.017  72.050  1.00  0.00    -0.264 C  
BRANCH  26  27
HETATM   27  C   UNL     1     -12.434   7.130  71.652  1.00  0.00    -0.405 C  
HETATM   28  C   UNL     1     -12.906   8.576  71.723  1.00  0.00    -0.380 C  
ENDBRANCH  26  27
ENDBRANCH  24  26
ENDBRANCH  20  21
ENDBRANCH  18  20
ENDBRANCH  13  18
ENDBRANCH  12  13
ENDBRANCH  10  12
ENDBRANCH   9  10
ENDBRANCH   7   9
ENDBRANCH   3   4
ENDBRANCH   2   3
TORSDOF 11
ENDMDL
MODEL      115
REMARK 921   NORMALIZED FREE ENERGY PREDICTED BY IDOCK:   -4.21 KCAL/MOL
REMARK 922        TOTAL FREE ENERGY PREDICTED BY IDOCK:   -9.17 KCAL/MOL
REMARK 923 INTER-LIGAND FREE ENERGY PREDICTED BY IDOCK:   -7.08 KCAL/MOL
REMARK 924 INTRA-LIGAND FREE ENERGY PREDICTED BY IDOCK:   -2.09 KCAL/MOL
REMARK 927      BINDING AFFINITY PREDICTED BY RF-SCORE:    0.00 PKD
ROOT
HETATM    1  C   UNL     1      -8.406   8.861  63.329  1.00  0.00    -0.180 C  
HETATM    2  C   UNL     1      -8.035   9.964  64.312  1.00  0.00    -0.146 C  
ENDROOT
BRANCH   2   3
HETATM    3  C   UNL     1      -9.255  10.812  64.669  1.00  0.00    -0.249 C  
BRANCH   3   4
HETATM    4  C   UNL     1     -10.122  10.155  65.751  1.00  0.00    -0.324 C  
HETATM    5  C   UNL     1      -9.914  10.762  67.156  1.00  0.00    -0.230 C  
HETATM    6  C   UNL     1     -10.129  12.292  67.227  1.00  0.00    -0.212 C  
HETATM    7  C   UNL     1     -10.777  10.015  68.194  1.00  0.00    -0.239 C  
HETATM    8  C   UNL     1     -11.563  12.746  66.995  1.00  0.00    -0.422 C  
BRANCH   7   9
HETATM    9  O   UNL     1     -10.582  10.622  69.485  1.00  0.00    -0.227 OA 
BRANCH   9  10
HETATM   10  C   UNL     1      -9.997   9.836  70.426  1.00  0.00    -0.233 C  
HETATM   11  O   UNL     1      -8.819   9.509  70.433  1.00  0.00    -0.229 OA 
BRANCH  10  12
HETATM   12  C   UNL     1     -10.933   9.576  71.576  1.00  0.00    -0.369 C  
BRANCH  12  13
HETATM   13  C   UNL     1     -11.839   8.364  71.374  1.00  0.00    -0.296 C  
HETATM   14  O   UNL     1     -13.608   9.366  73.075  1.00  0.00    -0.131 OA 
HETATM   15  S   UNL     1     -13.517   8.733  71.783  1.00  0.00    -0.406 S  
HETATM   16  O   UNL     1     -13.762   9.877  70.667  1.00  0.00    -0.113 OA 
HETATM   17  O   UNL     1     -14.383   7.647  71.385  1.00  0.00    -0.433 OA 
BRANCH  13  18
HETATM   18  C   UNL     1     -11.397   7.230  72.243  1.00  0.00    -0.272 C  
HETATM   19  O   UNL     1     -10.838   7.368  73.323  1.00  0.00    -0.374 OA 
BRANCH  18  20
HETATM   20  O   UNL     1     -11.534   6.041  71.590  1.00  0.00    -0.282 OA 
BRANCH  20  21
HETATM   21  C   UNL     1     -10.896   5.978  70.303  1.00  0.00    -0.329 C  
HETATM   22  C   UNL     1      -9.376   5.739  70.354  1.00  0.00    -0.186 C  
HETATM   23  C   UNL     1      -9.009   4.458  71.137  1.00  0.00    -0.167 C  
HETATM   24  C   UNL     1      -8.755   5.728  68.938  1.00  0.00    -0.111 C  
HETATM   25  C   UNL     1      -9.498   3.156  70.519  1.00  0.00    -0.236 C  
BRANCH  24  26
HETATM   26  C   UNL     1      -8.981   7.025  68.155  1.00  0.00    -0.127 C  
BRANCH  26  27
HETATM   27  C   UNL     1      -9.612   6.755  66.789  1.00  0.00    -0.210 C  
HETATM   28  C   UNL     1     -10.664   5.657  66.885  1.00  0.00    -0.350 C  
ENDBRANCH  26  27
ENDBRANCH  24  26
ENDBRANCH  20  21
ENDBRANCH  18  20
ENDBRANCH  13  18
ENDBRANCH  12  13
ENDBRANCH  10  12
ENDBRANCH   9  10
ENDBRANCH   7   9
ENDBRANCH   3   4
ENDBRANCH   2   3
TORSDOF 11
ENDMDL
MODEL      116
REMARK 921   NORMALIZED FREE ENERGY PREDICTED BY IDOCK:   -4.20 KCAL/MOL
REMARK 922        TOTAL FREE ENERGY PREDICTED BY IDOCK:   -9.16 KCAL/MOL
REMARK 923 INTER-LIGAND FREE ENERGY PREDICTED BY IDOCK:   -7.71 KCAL/MOL
REMARK 924 INTRA-LIGAND FREE ENERGY PREDICTED BY IDOCK:   -1.45 KCAL/MOL
REMARK 927      BINDING AFFINITY PREDICTED BY RF-SCORE:    0.00 PKD
ROOT
HETATM    1  C   UNL     1     -10.518  17.899  65.965  1.00  0.00    -0.293 C  
HETATM    2  C   UNL     1     -10.400  17.733  67.474  1.00  0.00    -0.371 C  
ENDROOT
BRANCH   2   3
HETATM    3  C   UNL     1     -10.865  16.344  67.910  1.00  0.00    -0.328 C  
BRANCH   3   4
HETATM    4  C   UNL     1     -10.038  15.226  67.263  1.00  0.00    -0.236 C  
HETATM    5  C   UNL     1     -10.844  13.932  67.015  1.00  0.00    -0.288 C  
HETATM    6  C   UNL     1     -12.128  14.131  66.177  1.00  0.00    -0.454 C  
HETATM    7  C   UNL     1      -9.932  12.842  66.413  1.00  0.00    -0.265 C  
HETATM    8  C   UNL     1     -11.888  14.528  64.727  1.00  0.00    -0.446 C  
BRANCH   7   9
HETATM    9  O   UNL     1     -10.718  11.661  66.169  1.00  0.00    -0.260 OA 
BRANCH   9  10
HETATM   10  C   UNL     1     -10.877  10.826  67.229  1.00  0.00    -0.288 C  
HETATM   11  O   UNL     1     -11.898  10.720  67.892  1.00  0.00    -0.553 OA 
BRANCH  10  12
HETATM   12  C   UNL     1      -9.701   9.894  67.368  1.00  0.00    -0.199 C  
BRANCH  12  13
HETATM   13  C   UNL     1      -9.329   9.583  68.815  1.00  0.00    -0.146 C  
HETATM   14  O   UNL     1      -6.756   9.543  68.175  1.00  0.00    -0.061 OA 
HETATM   15  S   UNL     1      -7.664  10.053  69.172  1.00  0.00    -0.116 S  
HETATM   16  O   UNL     1      -7.829  11.639  68.908  1.00  0.00    -0.118 OA 
HETATM   17  O   UNL     1      -7.403   9.947  70.590  1.00  0.00    -0.278 OA 
BRANCH  13  18
HETATM   18  C   UNL     1      -9.455   8.117  69.084  1.00  0.00    -0.155 C  
HETATM   19  O   UNL     1      -8.537   7.316  68.973  1.00  0.00    -0.129 OA 
BRANCH  18  20
HETATM   20  O   UNL     1     -10.759   7.774  69.286  1.00  0.00    -0.216 OA 
BRANCH  20  21
HETATM   21  C   UNL     1     -11.059   7.271  70.599  1.00  0.00    -0.264 C  
HETATM   22  C   UNL     1     -10.902   8.305  71.730  1.00  0.00    -0.332 C  
HETATM   23  C   UNL     1     -11.755   9.571  71.492  1.00  0.00    -0.472 C  
HETATM   24  C   UNL     1     -11.197   7.682  73.114  1.00  0.00    -0.311 C  
HETATM   25  C   UNL     1     -13.261   9.349  71.493  1.00  0.00    -0.456 C  
BRANCH  24  26
HETATM   26  C   UNL     1     -10.295   6.494  73.461  1.00  0.00    -0.299 C  
BRANCH  26  27
HETATM   27  C   UNL     1      -9.181   6.897  74.427  1.00  0.00    -0.244 C  
HETATM   28  C   UNL     1      -7.905   7.241  73.671  1.00  0.00    -0.129 C  
ENDBRANCH  26  27
ENDBRANCH  24  26
ENDBRANCH  20  21
ENDBRANCH  18  20
ENDBRANCH  13  18
ENDBRANCH  12  13
ENDBRANCH  10  12
ENDBRANCH   9  10
ENDBRANCH   7   9
ENDBRANCH   3   4
ENDBRANCH   2   3
TORSDOF 11
ENDMDL
MODEL      117
REMARK 921   NORMALIZED FREE ENERGY PREDICTED BY IDOCK:   -4.18 KCAL/MOL
REMARK 922        TOTAL FREE ENERGY PREDICTED BY IDOCK:   -9.12 KCAL/MOL
REMARK 923 INTER-LIGAND FREE ENERGY PREDICTED BY IDOCK:   -7.86 KCAL/MOL
REMARK 924 INTRA-LIGAND FREE ENERGY PREDICTED BY IDOCK:   -1.26 KCAL/MOL
REMARK 927      BINDING AFFINITY PREDICTED BY RF-SCORE:    0.00 PKD
ROOT
HETATM    1  C   UNL     1      -5.433  18.527  69.337  1.00  0.00    -0.214 C  
HETATM    2  C   UNL     1      -6.601  19.493  69.473  1.00  0.00    -0.365 C  
ENDROOT
BRANCH   2   3
HETATM    3  C   UNL     1      -7.119  19.925  68.101  1.00  0.00    -0.326 C  
BRANCH   3   4
HETATM    4  C   UNL     1      -7.560  18.731  67.246  1.00  0.00    -0.232 C  
HETATM    5  C   UNL     1      -8.773  17.974  67.829  1.00  0.00    -0.251 C  
HETATM    6  C   UNL     1     -10.011  18.862  68.095  1.00  0.00    -0.431 C  
HETATM    7  C   UNL     1      -9.121  16.759  66.943  1.00  0.00    -0.229 C  
HETATM    8  C   UNL     1     -10.674  19.422  66.845  1.00  0.00    -0.570 C  
BRANCH   7   9
HETATM    9  O   UNL     1     -10.271  16.093  67.498  1.00  0.00    -0.255 OA 
BRANCH   9  10
HETATM   10  C   UNL     1     -10.150  14.751  67.673  1.00  0.00    -0.227 C  
HETATM   11  O   UNL     1      -9.281  14.206  68.338  1.00  0.00    -0.197 OA 
BRANCH  10  12
HETATM   12  C   UNL     1     -11.340  14.020  67.110  1.00  0.00    -0.348 C  
BRANCH  12  13
HETATM   13  C   UNL     1     -11.012  12.635  66.561  1.00  0.00    -0.269 C  
HETATM   14  O   UNL     1     -13.037  12.796  64.858  1.00  0.00    -0.833 OA 
HETATM   15  S   UNL     1     -11.648  12.416  64.928  1.00  0.00    -0.349 S  
HETATM   16  O   UNL     1     -10.791  13.582  64.207  1.00  0.00    -0.391 OA 
HETATM   17  O   UNL     1     -11.146  11.189  64.352  1.00  0.00    -0.279 OA 
BRANCH  13  18
HETATM   18  C   UNL     1     -11.609  11.572  67.428  1.00  0.00    -0.228 C  
HETATM   19  O   UNL     1     -12.394  11.791  68.341  1.00  0.00    -0.364 OA 
BRANCH  18  20
HETATM   20  O   UNL     1     -11.023  10.366  67.186  1.00  0.00    -0.267 OA 
BRANCH  20  21
HETATM   21  C   UNL     1      -9.691  10.222  67.709  1.00  0.00    -0.156 C  
HETATM   22  C   UNL     1      -9.598  10.281  69.245  1.00  0.00    -0.239 C  
HETATM   23  C   UNL     1     -10.501   9.232  69.930  1.00  0.00    -0.247 C  
HETATM   24  C   UNL     1      -8.134  10.164  69.730  1.00  0.00    -0.167 C  
HETATM   25  C   UNL     1     -10.129   7.780  69.662  1.00  0.00    -0.196 C  
BRANCH  24  26
HETATM   26  C   UNL     1      -7.212  11.256  69.180  1.00  0.00    -0.115 C  
BRANCH  26  27
HETATM   27  C   UNL     1      -5.992  10.661  68.476  1.00  0.00    -0.039 C  
HETATM   28  C   UNL     1      -6.068  10.889  66.972  1.00  0.00    -0.074 C  
ENDBRANCH  26  27
ENDBRANCH  24  26
ENDBRANCH  20  21
ENDBRANCH  18  20
ENDBRANCH  13  18
ENDBRANCH  12  13
ENDBRANCH  10  12
ENDBRANCH   9  10
ENDBRANCH   7   9
ENDBRANCH   3   4
ENDBRANCH   2   3
TORSDOF 11
ENDMDL
MODEL      118
REMARK 921   NORMALIZED FREE ENERGY PREDICTED BY IDOCK:   -4.17 KCAL/MOL
REMARK 922        TOTAL FREE ENERGY PREDICTED BY IDOCK:   -9.10 KCAL/MOL
REMARK 923 INTER-LIGAND FREE ENERGY PREDICTED BY IDOCK:   -7.22 KCAL/MOL
REMARK 924 INTRA-LIGAND FREE ENERGY PREDICTED BY IDOCK:   -1.88 KCAL/MOL
REMARK 927      BINDING AFFINITY PREDICTED BY RF-SCORE:    0.00 PKD
ROOT
HETATM    1  C   UNL     1     -12.195  13.761  66.781  1.00  0.00    -0.440 C  
HETATM    2  C   UNL     1     -12.254  13.514  65.280  1.00  0.00    -0.474 C  
ENDROOT
BRANCH   2   3
HETATM    3  C   UNL     1     -11.010  12.770  64.797  1.00  0.00    -0.334 C  
BRANCH   3   4
HETATM    4  C   UNL     1     -10.917  11.356  65.384  1.00  0.00    -0.249 C  
HETATM    5  C   UNL     1      -9.478  10.944  65.766  1.00  0.00    -0.246 C  
HETATM    6  C   UNL     1      -8.773  11.917  66.738  1.00  0.00    -0.193 C  
HETATM    7  C   UNL     1      -9.460   9.494  66.296  1.00  0.00    -0.210 C  
HETATM    8  C   UNL     1      -9.372  11.968  68.136  1.00  0.00    -0.199 C  
BRANCH   7   9
HETATM    9  O   UNL     1      -8.113   9.152  66.669  1.00  0.00    -0.109 OA 
BRANCH   9  10
HETATM   10  C   UNL     1      -7.777   7.841  66.538  1.00  0.00    -0.097 C  
HETATM   11  O   UNL     1      -6.689   7.364  66.822  1.00  0.00    -0.060 OA 
BRANCH  10  12
HETATM   12  C   UNL     1      -8.979   7.005  66.185  1.00  0.00    -0.162 C  
BRANCH  12  13
HETATM   13  C   UNL     1      -9.274   5.893  67.187  1.00  0.00    -0.116 C  
HETATM   14  O   UNL     1     -10.358   4.414  65.273  1.00  0.00    -0.242 OA 
HETATM   15  S   UNL     1      -9.449   4.328  66.388  1.00  0.00    -0.198 S  
HETATM   16  O   UNL     1      -7.953   4.229  65.783  1.00  0.00    -0.094 OA 
HETATM   17  O   UNL     1      -9.514   3.267  67.367  1.00  0.00    -0.204 OA 
BRANCH  13  18
HETATM   18  C   UNL     1     -10.547   6.174  67.921  1.00  0.00    -0.263 C  
HETATM   19  O   UNL     1     -11.530   6.698  67.415  1.00  0.00    -0.183 OA 
BRANCH  18  20
HETATM   20  O   UNL     1     -10.396   5.940  69.255  1.00  0.00    -0.198 OA 
BRANCH  20  21
HETATM   21  C   UNL     1     -10.235   7.119  70.064  1.00  0.00    -0.196 C  
HETATM   22  C   UNL     1     -11.431   7.430  70.983  1.00  0.00    -0.307 C  
HETATM   23  C   UNL     1     -11.779   6.249  71.916  1.00  0.00    -0.370 C  
HETATM   24  C   UNL     1     -11.205   8.732  71.787  1.00  0.00    -0.410 C  
HETATM   25  C   UNL     1     -10.705   5.885  72.932  1.00  0.00    -0.281 C  
BRANCH  24  26
HETATM   26  C   UNL     1     -10.976   9.967  70.910  1.00  0.00    -0.392 C  
BRANCH  26  27
HETATM   27  C   UNL     1     -12.281  10.720  70.647  1.00  0.00    -0.474 C  
HETATM   28  C   UNL     1     -13.266  10.515  71.790  1.00  0.00    -0.522 C  
ENDBRANCH  26  27
ENDBRANCH  24  26
ENDBRANCH  20  21
ENDBRANCH  18  20
ENDBRANCH  13  18
ENDBRANCH  12  13
ENDBRANCH  10  12
ENDBRANCH   9  10
ENDBRANCH   7   9
ENDBRANCH   3   4
ENDBRANCH   2   3
TORSDOF 11
ENDMDL
MODEL      119
REMARK 921   NORMALIZED FREE ENERGY PREDICTED BY IDOCK:   -4.17 KCAL/MOL
REMARK 922        TOTAL FREE ENERGY PREDICTED BY IDOCK:   -9.09 KCAL/MOL
REMARK 923 INTER-LIGAND FREE ENERGY PREDICTED BY IDOCK:   -8.24 KCAL/MOL
REMARK 924 INTRA-LIGAND FREE ENERGY PREDICTED BY IDOCK:   -0.85 KCAL/MOL
REMARK 927      BINDING AFFINITY PREDICTED BY RF-SCORE:    0.00 PKD
ROOT
HETATM    1  C   UNL     1      -9.848   2.857  72.541  1.00  0.00    -0.220 C  
HETATM    2  C   UNL     1     -10.826   3.469  73.534  1.00  0.00    -0.321 C  
ENDROOT
BRANCH   2   3
HETATM    3  C   UNL     1     -11.606   4.620  72.898  1.00  0.00    -0.120 C  
BRANCH   3   4
HETATM    4  C   UNL     1     -10.686   5.753  72.429  1.00  0.00    -0.280 C  
HETATM    5  C   UNL     1     -11.212   6.493  71.179  1.00  0.00    -0.353 C  
HETATM    6  C   UNL     1     -12.641   7.062  71.330  1.00  0.00    -0.418 C  
HETATM    7  C   UNL     1     -10.208   7.580  70.739  1.00  0.00    -0.194 C  
HETATM    8  C   UNL     1     -12.774   8.196  72.336  1.00  0.00    -0.235 C  
BRANCH   7   9
HETATM    9  O   UNL     1     -10.740   8.268  69.592  1.00  0.00    -0.230 OA 
BRANCH   9  10
HETATM   10  C   UNL     1     -10.600   9.620  69.595  1.00  0.00    -0.233 C  
HETATM   11  O   UNL     1     -10.935  10.357  70.510  1.00  0.00    -0.299 OA 
BRANCH  10  12
HETATM   12  C   UNL     1      -9.794  10.085  68.411  1.00  0.00    -0.169 C  
BRANCH  12  13
HETATM   13  C   UNL     1     -10.641  10.619  67.259  1.00  0.00    -0.263 C  
HETATM   14  O   UNL     1      -8.453  11.289  65.921  1.00  0.00    -0.150 OA 
HETATM   15  S   UNL     1      -9.733  10.649  65.745  1.00  0.00    -0.236 S  
HETATM   16  O   UNL     1      -9.465   9.060  65.625  1.00  0.00    -0.244 OA 
HETATM   17  O   UNL     1     -10.610  10.953  64.637  1.00  0.00    -0.334 OA 
BRANCH  13  18
HETATM   18  C   UNL     1     -11.094  12.016  67.546  1.00  0.00    -0.275 C  
HETATM   19  O   UNL     1     -12.259  12.332  67.747  1.00  0.00    -0.425 OA 
BRANCH  18  20
HETATM   20  O   UNL     1     -10.072  12.900  67.370  1.00  0.00    -0.219 OA 
BRANCH  20  21
HETATM   21  C   UNL     1     -10.467  14.282  67.316  1.00  0.00    -0.269 C  
HETATM   22  C   UNL     1     -10.032  15.021  66.037  1.00  0.00    -0.334 C  
HETATM   23  C   UNL     1     -10.536  14.325  64.754  1.00  0.00    -0.434 C  
HETATM   24  C   UNL     1     -10.452  16.509  66.071  1.00  0.00    -0.320 C  
HETATM   25  C   UNL     1     -12.049  14.295  64.583  1.00  0.00    -0.478 C  
BRANCH  24  26
HETATM   26  C   UNL     1      -9.878  17.286  67.260  1.00  0.00    -0.267 C  
BRANCH  26  27
HETATM   27  C   UNL     1      -9.784  18.783  66.961  1.00  0.00    -0.340 C  
HETATM   28  C   UNL     1     -10.266  19.605  68.149  1.00  0.00    -0.580 C  
ENDBRANCH  26  27
ENDBRANCH  24  26
ENDBRANCH  20  21
ENDBRANCH  18  20
ENDBRANCH  13  18
ENDBRANCH  12  13
ENDBRANCH  10  12
ENDBRANCH   9  10
ENDBRANCH   7   9
ENDBRANCH   3   4
ENDBRANCH   2   3
TORSDOF 11
ENDMDL
MODEL      120
REMARK 921   NORMALIZED FREE ENERGY PREDICTED BY IDOCK:   -4.16 KCAL/MOL
REMARK 922        TOTAL FREE ENERGY PREDICTED BY IDOCK:   -9.08 KCAL/MOL
REMARK 923 INTER-LIGAND FREE ENERGY PREDICTED BY IDOCK:   -7.78 KCAL/MOL
REMARK 924 INTRA-LIGAND FREE ENERGY PREDICTED BY IDOCK:   -1.31 KCAL/MOL
REMARK 927      BINDING AFFINITY PREDICTED BY RF-SCORE:    0.00 PKD
ROOT
HETATM    1  C   UNL     1      -5.864  19.972  71.476  1.00  0.00    -0.360 C  
HETATM    2  C   UNL     1      -5.175  18.755  70.873  1.00  0.00    -0.267 C  
ENDROOT
BRANCH   2   3
HETATM    3  C   UNL     1      -5.290  18.758  69.349  1.00  0.00    -0.206 C  
BRANCH   3   4
HETATM    4  C   UNL     1      -5.513  17.351  68.782  1.00  0.00    -0.154 C  
HETATM    5  C   UNL     1      -6.996  16.922  68.770  1.00  0.00    -0.204 C  
HETATM    6  C   UNL     1      -7.936  17.897  68.025  1.00  0.00    -0.250 C  
HETATM    7  C   UNL     1      -7.131  15.479  68.238  1.00  0.00    -0.114 C  
HETATM    8  C   UNL     1      -7.712  17.976  66.522  1.00  0.00    -0.283 C  
BRANCH   7   9
HETATM    9  O   UNL     1      -8.525  15.121  68.213  1.00  0.00    -0.144 OA 
BRANCH   9  10
HETATM   10  C   UNL     1      -8.861  14.106  67.373  1.00  0.00    -0.206 C  
HETATM   11  O   UNL     1      -8.142  13.157  67.098  1.00  0.00    -0.168 OA 
BRANCH  10  12
HETATM   12  C   UNL     1     -10.310  14.189  66.974  1.00  0.00    -0.267 C  
BRANCH  12  13
HETATM   13  C   UNL     1     -10.910  12.852  66.546  1.00  0.00    -0.271 C  
HETATM   14  O   UNL     1     -13.045  14.087  65.575  1.00  0.00    -0.713 OA 
HETATM   15  S   UNL     1     -12.091  13.056  65.249  1.00  0.00    -0.467 S  
HETATM   16  O   UNL     1     -11.086  13.663  64.138  1.00  0.00    -0.354 OA 
HETATM   17  O   UNL     1     -12.484  11.771  64.718  1.00  0.00    -0.203 OA 
BRANCH  13  18
HETATM   18  C   UNL     1     -11.606  12.198  67.697  1.00  0.00    -0.343 C  
HETATM   19  O   UNL     1     -12.167  12.807  68.597  1.00  0.00    -0.189 OA 
BRANCH  18  20
HETATM   20  O   UNL     1     -11.371  10.855  67.702  1.00  0.00    -0.372 OA 
BRANCH  20  21
HETATM   21  C   UNL     1     -10.649  10.369  68.847  1.00  0.00    -0.216 C  
HETATM   22  C   UNL     1     -10.832   8.866  69.126  1.00  0.00    -0.091 C  
HETATM   23  C   UNL     1     -10.453   7.991  67.911  1.00  0.00    -0.259 C  
HETATM   24  C   UNL     1     -10.063   8.427  70.395  1.00  0.00    -0.202 C  
HETATM   25  C   UNL     1      -8.987   8.046  67.503  1.00  0.00    -0.143 C  
BRANCH  24  26
HETATM   26  C   UNL     1     -10.485   9.176  71.662  1.00  0.00    -0.403 C  
BRANCH  26  27
HETATM   27  C   UNL     1     -11.956   8.929  71.998  1.00  0.00    -0.439 C  
HETATM   28  C   UNL     1     -12.763  10.215  71.883  1.00  0.00    -0.493 C  
ENDBRANCH  26  27
ENDBRANCH  24  26
ENDBRANCH  20  21
ENDBRANCH  18  20
ENDBRANCH  13  18
ENDBRANCH  12  13
ENDBRANCH  10  12
ENDBRANCH   9  10
ENDBRANCH   7   9
ENDBRANCH   3   4
ENDBRANCH   2   3
TORSDOF 11
ENDMDL
MODEL      121
REMARK 921   NORMALIZED FREE ENERGY PREDICTED BY IDOCK:   -4.14 KCAL/MOL
REMARK 922        TOTAL FREE ENERGY PREDICTED BY IDOCK:   -9.05 KCAL/MOL
REMARK 923 INTER-LIGAND FREE ENERGY PREDICTED BY IDOCK:   -7.41 KCAL/MOL
REMARK 924 INTRA-LIGAND FREE ENERGY PREDICTED BY IDOCK:   -1.64 KCAL/MOL
REMARK 927      BINDING AFFINITY PREDICTED BY RF-SCORE:    0.00 PKD
ROOT
HETATM    1  C   UNL     1     -11.258  15.802  64.762  1.00  0.00    -0.375 C  
HETATM    2  C   UNL     1     -12.215  14.676  64.397  1.00  0.00    -0.473 C  
ENDROOT
BRANCH   2   3
HETATM    3  C   UNL     1     -12.527  13.806  65.615  1.00  0.00    -0.541 C  
BRANCH   3   4
HETATM    4  C   UNL     1     -12.086  12.351  65.415  1.00  0.00    -0.428 C  
HETATM    5  C   UNL     1     -10.565  12.195  65.198  1.00  0.00    -0.324 C  
HETATM    6  C   UNL     1      -9.694  12.815  66.316  1.00  0.00    -0.262 C  
HETATM    7  C   UNL     1     -10.209  10.713  64.952  1.00  0.00    -0.324 C  
HETATM    8  C   UNL     1      -9.801  12.121  67.666  1.00  0.00    -0.194 C  
BRANCH   7   9
HETATM    9  O   UNL     1      -8.784  10.599  64.782  1.00  0.00    -0.184 OA 
BRANCH   9  10
HETATM   10  C   UNL     1      -8.163   9.692  65.581  1.00  0.00    -0.120 C  
HETATM   11  O   UNL     1      -7.045   9.826  66.057  1.00  0.00    -0.094 OA 
BRANCH  10  12
HETATM   12  C   UNL     1      -9.102   8.583  65.976  1.00  0.00    -0.246 C  
BRANCH  12  13
HETATM   13  C   UNL     1      -8.435   7.460  66.765  1.00  0.00    -0.124 C  
HETATM   14  O   UNL     1     -10.624   5.978  66.564  1.00  0.00    -0.228 OA 
HETATM   15  S   UNL     1      -9.190   5.898  66.436  1.00  0.00    -0.150 S  
HETATM   16  O   UNL     1      -8.851   5.825  64.857  1.00  0.00    -0.071 OA 
HETATM   17  O   UNL     1      -8.414   4.829  67.022  1.00  0.00    -0.106 OA 
BRANCH  13  18
HETATM   18  C   UNL     1      -8.543   7.717  68.234  1.00  0.00    -0.124 C  
HETATM   19  O   UNL     1      -7.685   7.408  69.051  1.00  0.00    -0.112 OA 
BRANCH  18  20
HETATM   20  O   UNL     1      -9.789   8.166  68.555  1.00  0.00    -0.169 OA 
BRANCH  20  21
HETATM   21  C   UNL     1     -10.108   8.124  69.957  1.00  0.00    -0.196 C  
HETATM   22  C   UNL     1     -11.204   7.109  70.333  1.00  0.00    -0.320 C  
HETATM   23  C   UNL     1     -10.861   5.675  69.873  1.00  0.00    -0.370 C  
HETATM   24  C   UNL     1     -11.523   7.152  71.845  1.00  0.00    -0.305 C  
HETATM   25  C   UNL     1      -9.638   5.055  70.535  1.00  0.00    -0.252 C  
BRANCH  24  26
HETATM   26  C   UNL     1     -11.990   8.525  72.339  1.00  0.00    -0.434 C  
BRANCH  26  27
HETATM   27  C   UNL     1     -13.193   9.030  71.542  1.00  0.00    -0.388 C  
HETATM   28  C   UNL     1     -12.919  10.412  70.964  1.00  0.00    -0.490 C  
ENDBRANCH  26  27
ENDBRANCH  24  26
ENDBRANCH  20  21
ENDBRANCH  18  20
ENDBRANCH  13  18
ENDBRANCH  12  13
ENDBRANCH  10  12
ENDBRANCH   9  10
ENDBRANCH   7   9
ENDBRANCH   3   4
ENDBRANCH   2   3
TORSDOF 11
ENDMDL
MODEL      122
REMARK 921   NORMALIZED FREE ENERGY PREDICTED BY IDOCK:   -4.13 KCAL/MOL
REMARK 922        TOTAL FREE ENERGY PREDICTED BY IDOCK:   -9.03 KCAL/MOL
REMARK 923 INTER-LIGAND FREE ENERGY PREDICTED BY IDOCK:   -7.67 KCAL/MOL
REMARK 924 INTRA-LIGAND FREE ENERGY PREDICTED BY IDOCK:   -1.36 KCAL/MOL
REMARK 927      BINDING AFFINITY PREDICTED BY RF-SCORE:    0.00 PKD
ROOT
HETATM    1  C   UNL     1      -7.717   6.933  72.558  1.00  0.00    -0.095 C  
HETATM    2  C   UNL     1      -6.343   7.575  72.421  1.00  0.00    -0.050 C  
ENDROOT
BRANCH   2   3
HETATM    3  C   UNL     1      -6.382   8.752  71.447  1.00  0.00    -0.068 C  
BRANCH   3   4
HETATM    4  C   UNL     1      -7.808   9.068  70.977  1.00  0.00    -0.174 C  
HETATM    5  C   UNL     1      -7.858  10.051  69.787  1.00  0.00    -0.185 C  
HETATM    6  C   UNL     1      -7.031   9.607  68.558  1.00  0.00    -0.065 C  
HETATM    7  C   UNL     1      -9.322  10.359  69.409  1.00  0.00    -0.167 C  
HETATM    8  C   UNL     1      -7.558   8.368  67.849  1.00  0.00    -0.099 C  
BRANCH   7   9
HETATM    9  O   UNL     1      -9.334  11.254  68.282  1.00  0.00    -0.166 OA 
BRANCH   9  10
HETATM   10  C   UNL     1     -10.379  11.113  67.425  1.00  0.00    -0.196 C  
HETATM   11  O   UNL     1     -11.243  10.253  67.508  1.00  0.00    -0.295 OA 
BRANCH  10  12
HETATM   12  C   UNL     1     -10.457  12.273  66.468  1.00  0.00    -0.254 C  
BRANCH  12  13
HETATM   13  C   UNL     1     -11.638  13.205  66.721  1.00  0.00    -0.366 C  
HETATM   14  O   UNL     1     -11.410  14.207  64.278  1.00  0.00    -0.332 OA 
HETATM   15  S   UNL     1     -12.395  13.719  65.211  1.00  0.00    -0.482 S  
HETATM   16  O   UNL     1     -12.863  12.259  64.697  1.00  0.00    -0.665 OA 
HETATM   17  O   UNL     1     -13.630  14.421  65.479  1.00  0.00    -0.390 OA 
BRANCH  13  18
HETATM   18  C   UNL     1     -11.190  14.433  67.447  1.00  0.00    -0.325 C  
HETATM   19  O   UNL     1     -11.899  15.078  68.208  1.00  0.00    -0.327 OA 
BRANCH  18  20
HETATM   20  O   UNL     1      -9.964  14.834  67.006  1.00  0.00    -0.233 OA 
BRANCH  20  21
HETATM   21  C   UNL     1      -9.727  16.250  67.076  1.00  0.00    -0.239 C  
HETATM   22  C   UNL     1      -8.862  16.695  68.270  1.00  0.00    -0.214 C  
HETATM   23  C   UNL     1      -7.495  15.974  68.307  1.00  0.00    -0.136 C  
HETATM   24  C   UNL     1      -8.687  18.231  68.305  1.00  0.00    -0.302 C  
HETATM   25  C   UNL     1      -6.570  16.276  67.136  1.00  0.00    -0.230 C  
BRANCH  24  26
HETATM   26  C   UNL     1     -10.008  19.000  68.394  1.00  0.00    -0.473 C  
BRANCH  26  27
HETATM   27  C   UNL     1      -9.970  20.281  67.560  1.00  0.00    -0.557 C  
HETATM   28  C   UNL     1     -10.206  19.977  66.086  1.00  0.00    -0.589 C  
ENDBRANCH  26  27
ENDBRANCH  24  26
ENDBRANCH  20  21
ENDBRANCH  18  20
ENDBRANCH  13  18
ENDBRANCH  12  13
ENDBRANCH  10  12
ENDBRANCH   9  10
ENDBRANCH   7   9
ENDBRANCH   3   4
ENDBRANCH   2   3
TORSDOF 11
ENDMDL
MODEL      123
REMARK 921   NORMALIZED FREE ENERGY PREDICTED BY IDOCK:   -4.13 KCAL/MOL
REMARK 922        TOTAL FREE ENERGY PREDICTED BY IDOCK:   -9.03 KCAL/MOL
REMARK 923 INTER-LIGAND FREE ENERGY PREDICTED BY IDOCK:   -7.99 KCAL/MOL
REMARK 924 INTRA-LIGAND FREE ENERGY PREDICTED BY IDOCK:   -1.03 KCAL/MOL
REMARK 927      BINDING AFFINITY PREDICTED BY RF-SCORE:    0.00 PKD
ROOT
HETATM    1  C   UNL     1     -10.182   5.496  71.830  1.00  0.00    -0.256 C  
HETATM    2  C   UNL     1     -11.574   6.003  72.182  1.00  0.00    -0.348 C  
ENDROOT
BRANCH   2   3
HETATM    3  C   UNL     1     -11.938   7.231  71.348  1.00  0.00    -0.354 C  
BRANCH   3   4
HETATM    4  C   UNL     1     -11.181   7.271  70.015  1.00  0.00    -0.234 C  
HETATM    5  C   UNL     1     -10.767   8.696  69.587  1.00  0.00    -0.204 C  
HETATM    6  C   UNL     1      -9.932   9.460  70.639  1.00  0.00    -0.349 C  
HETATM    7  C   UNL     1     -10.061   8.658  68.215  1.00  0.00    -0.192 C  
HETATM    8  C   UNL     1      -8.544   8.888  70.891  1.00  0.00    -0.242 C  
BRANCH   7   9
HETATM    9  O   UNL     1      -9.663   9.995  67.859  1.00  0.00    -0.144 OA 
BRANCH   9  10
HETATM   10  C   UNL     1      -9.535  10.240  66.528  1.00  0.00    -0.171 C  
HETATM   11  O   UNL     1      -9.388   9.384  65.668  1.00  0.00    -0.211 OA 
BRANCH  10  12
HETATM   12  C   UNL     1      -9.798  11.689  66.215  1.00  0.00    -0.245 C  
BRANCH  12  13
HETATM   13  C   UNL     1     -11.271  12.081  66.290  1.00  0.00    -0.342 C  
HETATM   14  O   UNL     1     -10.960  13.756  64.259  1.00  0.00    -0.367 OA 
HETATM   15  S   UNL     1     -11.848  12.734  64.754  1.00  0.00    -0.399 S  
HETATM   16  O   UNL     1     -11.608  11.411  63.856  1.00  0.00    -0.299 OA 
HETATM   17  O   UNL     1     -13.284  12.897  64.783  1.00  0.00    -0.764 OA 
BRANCH  13  18
HETATM   18  C   UNL     1     -11.482  13.128  67.338  1.00  0.00    -0.332 C  
HETATM   19  O   UNL     1     -12.024  12.922  68.415  1.00  0.00    -0.326 OA 
BRANCH  18  20
HETATM   20  O   UNL     1     -11.161  14.362  66.857  1.00  0.00    -0.307 OA 
BRANCH  20  21
HETATM   21  C   UNL     1      -9.946  14.922  67.385  1.00  0.00    -0.223 C  
HETATM   22  C   UNL     1      -9.230  15.902  66.437  1.00  0.00    -0.344 C  
HETATM   23  C   UNL     1     -10.144  17.066  65.995  1.00  0.00    -0.318 C  
HETATM   24  C   UNL     1      -7.912  16.428  67.053  1.00  0.00    -0.240 C  
HETATM   25  C   UNL     1     -10.594  18.000  67.110  1.00  0.00    -0.337 C  
BRANCH  24  26
HETATM   26  C   UNL     1      -6.910  15.323  67.401  1.00  0.00    -0.188 C  
BRANCH  26  27
HETATM   27  C   UNL     1      -5.952  15.760  68.510  1.00  0.00    -0.103 C  
HETATM   28  C   UNL     1      -6.480  15.347  69.877  1.00  0.00    -0.155 C  
ENDBRANCH  26  27
ENDBRANCH  24  26
ENDBRANCH  20  21
ENDBRANCH  18  20
ENDBRANCH  13  18
ENDBRANCH  12  13
ENDBRANCH  10  12
ENDBRANCH   9  10
ENDBRANCH   7   9
ENDBRANCH   3   4
ENDBRANCH   2   3
TORSDOF 11
ENDMDL
MODEL      124
REMARK 921   NORMALIZED FREE ENERGY PREDICTED BY IDOCK:   -4.10 KCAL/MOL
REMARK 922        TOTAL FREE ENERGY PREDICTED BY IDOCK:   -8.99 KCAL/MOL
REMARK 923 INTER-LIGAND FREE ENERGY PREDICTED BY IDOCK:   -7.51 KCAL/MOL
REMARK 924 INTRA-LIGAND FREE ENERGY PREDICTED BY IDOCK:   -1.48 KCAL/MOL
REMARK 927      BINDING AFFINITY PREDICTED BY RF-SCORE:    0.00 PKD
ROOT
HETATM    1  C   UNL     1     -10.963  14.949  65.443  1.00  0.00    -0.371 C  
HETATM    2  C   UNL     1     -12.056  14.212  64.682  1.00  0.00    -0.469 C  
ENDROOT
BRANCH   2   3
HETATM    3  C   UNL     1     -11.514  12.935  64.041  1.00  0.00    -0.478 C  
BRANCH   3   4
HETATM    4  C   UNL     1     -10.329  12.354  64.821  1.00  0.00    -0.324 C  
HETATM    5  C   UNL     1      -9.998  10.895  64.438  1.00  0.00    -0.381 C  
HETATM    6  C   UNL     1      -9.737  10.676  62.929  1.00  0.00    -0.329 C  
HETATM    7  C   UNL     1      -8.833  10.366  65.301  1.00  0.00    -0.186 C  
HETATM    8  C   UNL     1      -8.476  11.341  62.396  1.00  0.00    -0.201 C  
BRANCH   7   9
HETATM    9  O   UNL     1      -8.532   9.017  64.900  1.00  0.00    -0.160 OA 
BRANCH   9  10
HETATM   10  C   UNL     1      -8.172   8.168  65.899  1.00  0.00    -0.122 C  
HETATM   11  O   UNL     1      -7.069   7.657  66.022  1.00  0.00    -0.066 OA 
BRANCH  10  12
HETATM   12  C   UNL     1      -9.243   8.088  66.955  1.00  0.00    -0.191 C  
BRANCH  12  13
HETATM   13  C   UNL     1      -8.828   7.306  68.198  1.00  0.00    -0.126 C  
HETATM   14  O   UNL     1     -11.266   6.286  68.408  1.00  0.00    -0.335 OA 
HETATM   15  S   UNL     1      -9.876   5.909  68.467  1.00  0.00    -0.144 S  
HETATM   16  O   UNL     1      -9.532   5.118  67.099  1.00  0.00    -0.120 OA 
HETATM   17  O   UNL     1      -9.339   5.071  69.514  1.00  0.00    -0.111 OA 
BRANCH  13  18
HETATM   18  C   UNL     1      -8.906   8.174  69.413  1.00  0.00    -0.143 C  
HETATM   19  O   UNL     1      -8.522   7.836  70.525  1.00  0.00    -0.124 OA 
BRANCH  18  20
HETATM   20  O   UNL     1      -9.622   9.304  69.153  1.00  0.00    -0.156 OA 
BRANCH  20  21
HETATM   21  C   UNL     1     -10.945   9.328  69.718  1.00  0.00    -0.196 C  
HETATM   22  C   UNL     1     -11.327  10.658  70.392  1.00  0.00    -0.389 C  
HETATM   23  C   UNL     1     -11.190  11.863  69.436  1.00  0.00    -0.278 C  
HETATM   24  C   UNL     1     -12.742  10.593  71.013  1.00  0.00    -0.512 C  
HETATM   25  C   UNL     1     -12.129  11.852  68.237  1.00  0.00    -0.061 C  
BRANCH  24  26
HETATM   26  C   UNL     1     -12.905   9.491  72.064  1.00  0.00    -0.499 C  
BRANCH  26  27
HETATM   27  C   UNL     1     -14.282   8.831  71.978  1.00  0.00    -0.493 C  
HETATM   28  C   UNL     1     -14.160   7.377  71.543  1.00  0.00    -0.541 C  
ENDBRANCH  26  27
ENDBRANCH  24  26
ENDBRANCH  20  21
ENDBRANCH  18  20
ENDBRANCH  13  18
ENDBRANCH  12  13
ENDBRANCH  10  12
ENDBRANCH   9  10
ENDBRANCH   7   9
ENDBRANCH   3   4
ENDBRANCH   2   3
TORSDOF 11
ENDMDL
MODEL      125
REMARK 921   NORMALIZED FREE ENERGY PREDICTED BY IDOCK:   -4.10 KCAL/MOL
REMARK 922        TOTAL FREE ENERGY PREDICTED BY IDOCK:   -8.99 KCAL/MOL
REMARK 923 INTER-LIGAND FREE ENERGY PREDICTED BY IDOCK:   -8.39 KCAL/MOL
REMARK 924 INTRA-LIGAND FREE ENERGY PREDICTED BY IDOCK:   -0.60 KCAL/MOL
REMARK 927      BINDING AFFINITY PREDICTED BY RF-SCORE:    0.00 PKD
ROOT
HETATM    1  C   UNL     1     -11.971   8.451  72.470  1.00  0.00    -0.418 C  
HETATM    2  C   UNL     1     -10.463   8.595  72.320  1.00  0.00    -0.376 C  
ENDROOT
BRANCH   2   3
HETATM    3  C   UNL     1     -10.004   8.145  70.933  1.00  0.00    -0.214 C  
BRANCH   3   4
HETATM    4  C   UNL     1     -10.786   8.838  69.811  1.00  0.00    -0.220 C  
HETATM    5  C   UNL     1     -10.072   8.784  68.442  1.00  0.00    -0.217 C  
HETATM    6  C   UNL     1      -9.708   7.358  67.969  1.00  0.00    -0.161 C  
HETATM    7  C   UNL     1     -10.893   9.547  67.381  1.00  0.00    -0.145 C  
HETATM    8  C   UNL     1     -10.900   6.473  67.636  1.00  0.00    -0.419 C  
BRANCH   7   9
HETATM    9  O   UNL     1     -10.216   9.454  66.114  1.00  0.00    -0.279 OA 
BRANCH   9  10
HETATM   10  C   UNL     1      -9.472  10.535  65.760  1.00  0.00    -0.201 C  
HETATM   11  O   UNL     1      -8.257  10.614  65.865  1.00  0.00    -0.152 OA 
BRANCH  10  12
HETATM   12  C   UNL     1     -10.307  11.555  65.033  1.00  0.00    -0.333 C  
BRANCH  12  13
HETATM   13  C   UNL     1     -11.342  12.248  65.915  1.00  0.00    -0.360 C  
HETATM   14  O   UNL     1     -11.444  14.297  64.236  1.00  0.00    -0.337 OA 
HETATM   15  S   UNL     1     -12.295  13.419  64.999  1.00  0.00    -0.438 S  
HETATM   16  O   UNL     1     -12.970  12.380  63.961  1.00  0.00    -0.748 OA 
HETATM   17  O   UNL     1     -13.400  13.903  65.796  1.00  0.00    -0.534 OA 
BRANCH  13  18
HETATM   18  C   UNL     1     -10.670  12.982  67.032  1.00  0.00    -0.258 C  
HETATM   19  O   UNL     1     -10.951  12.841  68.214  1.00  0.00    -0.230 OA 
BRANCH  18  20
HETATM   20  O   UNL     1      -9.845  13.952  66.545  1.00  0.00    -0.273 OA 
BRANCH  20  21
HETATM   21  C   UNL     1      -9.171  14.735  67.545  1.00  0.00    -0.198 C  
HETATM   22  C   UNL     1      -9.573  16.221  67.572  1.00  0.00    -0.230 C  
HETATM   23  C   UNL     1     -11.095  16.415  67.753  1.00  0.00    -0.199 C  
HETATM   24  C   UNL     1      -8.777  17.005  68.640  1.00  0.00    -0.261 C  
HETATM   25  C   UNL     1     -11.660  15.926  69.080  1.00  0.00    -0.382 C  
BRANCH  24  26
HETATM   26  C   UNL     1      -7.259  16.953  68.441  1.00  0.00    -0.195 C  
BRANCH  26  27
HETATM   27  C   UNL     1      -6.670  18.349  68.235  1.00  0.00    -0.229 C  
HETATM   28  C   UNL     1      -7.448  19.389  69.030  1.00  0.00    -0.385 C  
ENDBRANCH  26  27
ENDBRANCH  24  26
ENDBRANCH  20  21
ENDBRANCH  18  20
ENDBRANCH  13  18
ENDBRANCH  12  13
ENDBRANCH  10  12
ENDBRANCH   9  10
ENDBRANCH   7   9
ENDBRANCH   3   4
ENDBRANCH   2   3
TORSDOF 11
ENDMDL
MODEL      126
REMARK 921   NORMALIZED FREE ENERGY PREDICTED BY IDOCK:   -4.10 KCAL/MOL
REMARK 922        TOTAL FREE ENERGY PREDICTED BY IDOCK:   -8.99 KCAL/MOL
REMARK 923 INTER-LIGAND FREE ENERGY PREDICTED BY IDOCK:   -7.64 KCAL/MOL
REMARK 924 INTRA-LIGAND FREE ENERGY PREDICTED BY IDOCK:   -1.35 KCAL/MOL
REMARK 927      BINDING AFFINITY PREDICTED BY RF-SCORE:    0.00 PKD
ROOT
HETATM    1  C   UNL     1      -5.862  19.146  64.836  1.00  0.00    -0.301 C  
HETATM    2  C   UNL     1      -5.709  18.621  66.256  1.00  0.00    -0.185 C  
ENDROOT
BRANCH   2   3
HETATM    3  C   UNL     1      -7.049  18.627  66.991  1.00  0.00    -0.212 C  
BRANCH   3   4
HETATM    4  C   UNL     1      -8.118  17.813  66.252  1.00  0.00    -0.269 C  
HETATM    5  C   UNL     1      -9.207  17.240  67.186  1.00  0.00    -0.240 C  
HETATM    6  C   UNL     1      -9.922  18.299  68.057  1.00  0.00    -0.362 C  
HETATM    7  C   UNL     1     -10.212  16.392  66.378  1.00  0.00    -0.316 C  
HETATM    8  C   UNL     1     -10.785  19.285  67.283  1.00  0.00    -0.594 C  
BRANCH   7   9
HETATM    9  O   UNL     1     -11.227  15.897  67.271  1.00  0.00    -0.234 OA 
BRANCH   9  10
HETATM   10  C   UNL     1     -11.172  14.569  67.551  1.00  0.00    -0.321 C  
HETATM   11  O   UNL     1     -10.616  14.080  68.524  1.00  0.00    -0.241 OA 
BRANCH  10  12
HETATM   12  C   UNL     1     -12.054  13.779  66.620  1.00  0.00    -0.471 C  
BRANCH  12  13
HETATM   13  C   UNL     1     -11.290  13.040  65.525  1.00  0.00    -0.300 C  
HETATM   14  O   UNL     1     -13.569  12.180  64.477  1.00  0.00    -0.477 OA 
HETATM   15  S   UNL     1     -12.302  12.759  64.105  1.00  0.00    -0.400 S  
HETATM   16  O   UNL     1     -12.573  14.307  63.727  1.00  0.00    -0.821 OA 
HETATM   17  O   UNL     1     -11.505  12.253  63.010  1.00  0.00    -0.260 OA 
BRANCH  13  18
HETATM   18  C   UNL     1     -10.823  11.708  66.021  1.00  0.00    -0.289 C  
HETATM   19  O   UNL     1     -11.454  11.003  66.796  1.00  0.00    -0.338 OA 
BRANCH  18  20
HETATM   20  O   UNL     1      -9.533  11.478  65.642  1.00  0.00    -0.223 OA 
BRANCH  20  21
HETATM   21  C   UNL     1      -8.960  10.260  66.147  1.00  0.00    -0.154 C  
HETATM   22  C   UNL     1      -7.752  10.461  67.080  1.00  0.00    -0.105 C  
HETATM   23  C   UNL     1      -8.082  11.373  68.282  1.00  0.00    -0.143 C  
HETATM   24  C   UNL     1      -7.163   9.109  67.546  1.00  0.00    -0.080 C  
HETATM   25  C   UNL     1      -9.121  10.822  69.250  1.00  0.00    -0.056 C  
BRANCH  24  26
HETATM   26  C   UNL     1      -6.702   8.208  66.397  1.00  0.00    -0.062 C  
BRANCH  26  27
HETATM   27  C   UNL     1      -6.946   6.730  66.708  1.00  0.00    -0.067 C  
HETATM   28  C   UNL     1      -8.423   6.384  66.570  1.00  0.00    -0.118 C  
ENDBRANCH  26  27
ENDBRANCH  24  26
ENDBRANCH  20  21
ENDBRANCH  18  20
ENDBRANCH  13  18
ENDBRANCH  12  13
ENDBRANCH  10  12
ENDBRANCH   9  10
ENDBRANCH   7   9
ENDBRANCH   3   4
ENDBRANCH   2   3
TORSDOF 11
ENDMDL
MODEL      127
REMARK 921   NORMALIZED FREE ENERGY PREDICTED BY IDOCK:   -4.10 KCAL/MOL
REMARK 922        TOTAL FREE ENERGY PREDICTED BY IDOCK:   -8.99 KCAL/MOL
REMARK 923 INTER-LIGAND FREE ENERGY PREDICTED BY IDOCK:   -7.43 KCAL/MOL
REMARK 924 INTRA-LIGAND FREE ENERGY PREDICTED BY IDOCK:   -1.56 KCAL/MOL
REMARK 927      BINDING AFFINITY PREDICTED BY RF-SCORE:    0.00 PKD
ROOT
HETATM    1  C   UNL     1     -11.220   5.333  73.285  1.00  0.00    -0.359 C  
HETATM    2  C   UNL     1     -10.341   4.819  72.153  1.00  0.00    -0.256 C  
ENDROOT
BRANCH   2   3
HETATM    3  C   UNL     1      -9.436   5.927  71.615  1.00  0.00    -0.166 C  
BRANCH   3   4
HETATM    4  C   UNL     1     -10.157   6.823  70.601  1.00  0.00    -0.204 C  
HETATM    5  C   UNL     1     -10.108   8.323  70.964  1.00  0.00    -0.230 C  
HETATM    6  C   UNL     1      -8.682   8.882  71.174  1.00  0.00    -0.280 C  
HETATM    7  C   UNL     1     -10.899   9.150  69.928  1.00  0.00    -0.228 C  
HETATM    8  C   UNL     1      -7.823   8.925  69.919  1.00  0.00    -0.092 C  
BRANCH   7   9
HETATM    9  O   UNL     1     -10.810  10.543  70.279  1.00  0.00    -0.279 OA 
BRANCH   9  10
HETATM   10  C   UNL     1     -11.995  11.186  70.453  1.00  0.00    -0.378 C  
HETATM   11  O   UNL     1     -12.765  10.998  71.383  1.00  0.00    -0.401 OA 
BRANCH  10  12
HETATM   12  C   UNL     1     -12.154  12.309  69.462  1.00  0.00    -0.260 C  
BRANCH  12  13
HETATM   13  C   UNL     1     -10.862  12.686  68.743  1.00  0.00    -0.231 C  
HETATM   14  O   UNL     1     -11.845  15.081  68.171  1.00  0.00    -0.334 OA 
HETATM   15  S   UNL     1     -10.652  14.438  68.663  1.00  0.00    -0.256 S  
HETATM   16  O   UNL     1     -10.574  14.717  70.253  1.00  0.00    -0.066 OA 
HETATM   17  O   UNL     1      -9.332  14.765  68.173  1.00  0.00    -0.187 OA 
BRANCH  13  18
HETATM   18  C   UNL     1     -10.871  12.164  67.341  1.00  0.00    -0.245 C  
HETATM   19  O   UNL     1     -11.882  11.824  66.741  1.00  0.00    -0.586 OA 
BRANCH  18  20
HETATM   20  O   UNL     1      -9.600  11.948  66.899  1.00  0.00    -0.193 OA 
BRANCH  20  21
HETATM   21  C   UNL     1      -9.189  10.570  66.883  1.00  0.00    -0.155 C  
HETATM   22  C   UNL     1      -9.825   9.727  65.762  1.00  0.00    -0.360 C  
HETATM   23  C   UNL     1      -9.568  10.322  64.360  1.00  0.00    -0.378 C  
HETATM   24  C   UNL     1      -9.372   8.250  65.836  1.00  0.00    -0.165 C  
HETATM   25  C   UNL     1      -8.110  10.352  63.924  1.00  0.00    -0.096 C  
BRANCH  24  26
HETATM   26  C   UNL     1      -9.712   7.566  67.163  1.00  0.00    -0.228 C  
BRANCH  26  27
HETATM   27  C   UNL     1     -10.926   6.646  67.028  1.00  0.00    -0.463 C  
HETATM   28  C   UNL     1     -10.513   5.273  66.513  1.00  0.00    -0.354 C  
ENDBRANCH  26  27
ENDBRANCH  24  26
ENDBRANCH  20  21
ENDBRANCH  18  20
ENDBRANCH  13  18
ENDBRANCH  12  13
ENDBRANCH  10  12
ENDBRANCH   9  10
ENDBRANCH   7   9
ENDBRANCH   3   4
ENDBRANCH   2   3
TORSDOF 11
ENDMDL
MODEL      128
REMARK 921   NORMALIZED FREE ENERGY PREDICTED BY IDOCK:   -4.09 KCAL/MOL
REMARK 922        TOTAL FREE ENERGY PREDICTED BY IDOCK:   -8.97 KCAL/MOL
REMARK 923 INTER-LIGAND FREE ENERGY PREDICTED BY IDOCK:   -7.27 KCAL/MOL
REMARK 924 INTRA-LIGAND FREE ENERGY PREDICTED BY IDOCK:   -1.70 KCAL/MOL
REMARK 927      BINDING AFFINITY PREDICTED BY RF-SCORE:    0.00 PKD
ROOT
HETATM    1  C   UNL     1     -10.884  16.280  67.924  1.00  0.00    -0.330 C  
HETATM    2  C   UNL     1     -10.935  15.291  66.768  1.00  0.00    -0.306 C  
ENDROOT
BRANCH   2   3
HETATM    3  C   UNL     1     -11.968  14.195  67.029  1.00  0.00    -0.471 C  
BRANCH   3   4
HETATM    4  C   UNL     1     -11.914  13.679  68.472  1.00  0.00    -0.396 C  
HETATM    5  C   UNL     1     -11.925  12.138  68.574  1.00  0.00    -0.273 C  
HETATM    6  C   UNL     1     -10.806  11.438  67.768  1.00  0.00    -0.281 C  
HETATM    7  C   UNL     1     -11.923  11.700  70.054  1.00  0.00    -0.351 C  
HETATM    8  C   UNL     1      -9.397  11.688  68.284  1.00  0.00    -0.191 C  
BRANCH   7   9
HETATM    9  O   UNL     1     -11.905  10.262  70.113  1.00  0.00    -0.264 OA 
BRANCH   9  10
HETATM   10  C   UNL     1     -12.583   9.704  71.151  1.00  0.00    -0.322 C  
HETATM   11  O   UNL     1     -13.797   9.580  71.210  1.00  0.00    -0.294 OA 
BRANCH  10  12
HETATM   12  C   UNL     1     -11.639   9.073  72.140  1.00  0.00    -0.348 C  
BRANCH  12  13
HETATM   13  C   UNL     1     -10.758   7.979  71.542  1.00  0.00    -0.227 C  
HETATM   14  O   UNL     1     -10.635   6.754  73.889  1.00  0.00    -0.350 OA 
HETATM   15  S   UNL     1     -10.841   6.490  72.487  1.00  0.00    -0.251 S  
HETATM   16  O   UNL     1     -12.417   6.192  72.280  1.00  0.00    -0.236 OA 
HETATM   17  O   UNL     1     -10.175   5.412  71.790  1.00  0.00    -0.193 OA 
BRANCH  13  18
HETATM   18  C   UNL     1      -9.329   8.417  71.508  1.00  0.00    -0.200 C  
HETATM   19  O   UNL     1      -8.664   8.672  72.503  1.00  0.00    -0.360 OA 
BRANCH  18  20
HETATM   20  O   UNL     1      -8.932   8.669  70.228  1.00  0.00    -0.141 OA 
BRANCH  20  21
HETATM   21  C   UNL     1      -8.465   7.520  69.500  1.00  0.00    -0.132 C  
HETATM   22  C   UNL     1      -9.541   6.826  68.644  1.00  0.00    -0.131 C  
HETATM   23  C   UNL     1     -10.210   7.792  67.642  1.00  0.00    -0.282 C  
HETATM   24  C   UNL     1      -8.977   5.577  67.928  1.00  0.00    -0.108 C  
HETATM   25  C   UNL     1      -9.289   8.356  66.568  1.00  0.00    -0.259 C  
BRANCH  24  26
HETATM   26  C   UNL     1      -8.409   4.522  68.882  1.00  0.00    -0.086 C  
BRANCH  26  27
HETATM   27  C   UNL     1      -9.392   3.370  69.097  1.00  0.00    -0.237 C  
HETATM   28  C   UNL     1      -9.304   2.361  67.960  1.00  0.00    -0.253 C  
ENDBRANCH  26  27
ENDBRANCH  24  26
ENDBRANCH  20  21
ENDBRANCH  18  20
ENDBRANCH  13  18
ENDBRANCH  12  13
ENDBRANCH  10  12
ENDBRANCH   9  10
ENDBRANCH   7   9
ENDBRANCH   3   4
ENDBRANCH   2   3
TORSDOF 11
ENDMDL
MODEL      129
REMARK 921   NORMALIZED FREE ENERGY PREDICTED BY IDOCK:   -4.05 KCAL/MOL
REMARK 922        TOTAL FREE ENERGY PREDICTED BY IDOCK:   -8.91 KCAL/MOL
REMARK 923 INTER-LIGAND FREE ENERGY PREDICTED BY IDOCK:   -6.64 KCAL/MOL
REMARK 924 INTRA-LIGAND FREE ENERGY PREDICTED BY IDOCK:   -2.27 KCAL/MOL
REMARK 927      BINDING AFFINITY PREDICTED BY RF-SCORE:    0.00 PKD
ROOT
HETATM    1  C   UNL     1     -12.624  13.204  65.050  1.00  0.00    -0.499 C  
HETATM    2  C   UNL     1     -11.958  12.729  63.767  1.00  0.00    -0.585 C  
ENDROOT
BRANCH   2   3
HETATM    3  C   UNL     1     -10.515  12.297  64.026  1.00  0.00    -0.427 C  
BRANCH   3   4
HETATM    4  C   UNL     1     -10.406  10.800  64.344  1.00  0.00    -0.405 C  
HETATM    5  C   UNL     1      -9.460  10.490  65.524  1.00  0.00    -0.265 C  
HETATM    6  C   UNL     1      -9.807  11.238  66.832  1.00  0.00    -0.220 C  
HETATM    7  C   UNL     1      -9.363   8.966  65.746  1.00  0.00    -0.219 C  
HETATM    8  C   UNL     1     -11.119  10.818  67.479  1.00  0.00    -0.374 C  
BRANCH   7   9
HETATM    9  O   UNL     1      -8.498   8.713  66.868  1.00  0.00    -0.110 OA 
BRANCH   9  10
HETATM   10  C   UNL     1      -7.713   7.608  66.773  1.00  0.00    -0.102 C  
HETATM   11  O   UNL     1      -6.553   7.537  67.151  1.00  0.00    -0.058 OA 
BRANCH  10  12
HETATM   12  C   UNL     1      -8.510   6.412  66.324  1.00  0.00    -0.131 C  
BRANCH  12  13
HETATM   13  C   UNL     1      -9.072   5.578  67.472  1.00  0.00    -0.107 C  
HETATM   14  O   UNL     1      -9.904   3.731  65.762  1.00  0.00    -0.166 OA 
HETATM   15  S   UNL     1      -9.224   3.876  67.024  1.00  0.00    -0.188 S  
HETATM   16  O   UNL     1      -7.655   3.583  66.763  1.00  0.00    -0.078 OA 
HETATM   17  O   UNL     1      -9.553   3.077  68.183  1.00  0.00    -0.184 OA 
BRANCH  13  18
HETATM   18  C   UNL     1     -10.431   6.069  67.859  1.00  0.00    -0.234 C  
HETATM   19  O   UNL     1     -11.222   6.587  67.083  1.00  0.00    -0.388 OA 
BRANCH  18  20
HETATM   20  O   UNL     1     -10.590   6.030  69.213  1.00  0.00    -0.233 OA 
BRANCH  20  21
HETATM   21  C   UNL     1      -9.637   6.808  69.958  1.00  0.00    -0.157 C  
HETATM   22  C   UNL     1     -10.022   8.288  70.137  1.00  0.00    -0.187 C  
HETATM   23  C   UNL     1     -11.408   8.460  70.799  1.00  0.00    -0.290 C  
HETATM   24  C   UNL     1      -8.932   9.069  70.908  1.00  0.00    -0.300 C  
HETATM   25  C   UNL     1     -11.514   7.946  72.228  1.00  0.00    -0.403 C  
BRANCH  24  26
HETATM   26  C   UNL     1      -7.558   9.039  70.233  1.00  0.00    -0.087 C  
BRANCH  26  27
HETATM   27  C   UNL     1      -6.904  10.421  70.225  1.00  0.00    -0.132 C  
HETATM   28  C   UNL     1      -7.204  11.156  68.925  1.00  0.00    -0.106 C  
ENDBRANCH  26  27
ENDBRANCH  24  26
ENDBRANCH  20  21
ENDBRANCH  18  20
ENDBRANCH  13  18
ENDBRANCH  12  13
ENDBRANCH  10  12
ENDBRANCH   9  10
ENDBRANCH   7   9
ENDBRANCH   3   4
ENDBRANCH   2   3
TORSDOF 11
ENDMDL
MODEL      130
REMARK 921   NORMALIZED FREE ENERGY PREDICTED BY IDOCK:   -4.05 KCAL/MOL
REMARK 922        TOTAL FREE ENERGY PREDICTED BY IDOCK:   -8.90 KCAL/MOL
REMARK 923 INTER-LIGAND FREE ENERGY PREDICTED BY IDOCK:   -7.40 KCAL/MOL
REMARK 924 INTRA-LIGAND FREE ENERGY PREDICTED BY IDOCK:   -1.50 KCAL/MOL
REMARK 927      BINDING AFFINITY PREDICTED BY RF-SCORE:    0.00 PKD
ROOT
HETATM    1  C   UNL     1      -8.885  18.454  68.149  1.00  0.00    -0.319 C  
HETATM    2  C   UNL     1      -9.639  17.648  67.100  1.00  0.00    -0.278 C  
ENDROOT
BRANCH   2   3
HETATM    3  C   UNL     1     -10.208  16.363  67.701  1.00  0.00    -0.272 C  
BRANCH   3   4
HETATM    4  C   UNL     1     -10.523  15.312  66.630  1.00  0.00    -0.290 C  
HETATM    5  C   UNL     1      -9.840  13.951  66.887  1.00  0.00    -0.268 C  
HETATM    6  C   UNL     1     -10.146  13.335  68.271  1.00  0.00    -0.250 C  
HETATM    7  C   UNL     1     -10.160  12.968  65.741  1.00  0.00    -0.287 C  
HETATM    8  C   UNL     1     -11.591  12.904  68.473  1.00  0.00    -0.358 C  
BRANCH   7   9
HETATM    9  O   UNL     1      -9.533  11.703  66.024  1.00  0.00    -0.220 OA 
BRANCH   9  10
HETATM   10  C   UNL     1      -9.865  10.679  65.194  1.00  0.00    -0.284 C  
HETATM   11  O   UNL     1     -10.489  10.797  64.150  1.00  0.00    -0.364 OA 
BRANCH  10  12
HETATM   12  C   UNL     1      -9.195   9.399  65.617  1.00  0.00    -0.285 C  
BRANCH  12  13
HETATM   13  C   UNL     1      -9.108   9.217  67.130  1.00  0.00    -0.126 C  
HETATM   14  O   UNL     1      -7.631   7.038  66.813  1.00  0.00    -0.087 OA 
HETATM   15  S   UNL     1      -7.702   8.252  67.588  1.00  0.00    -0.100 S  
HETATM   16  O   UNL     1      -6.564   9.252  67.024  1.00  0.00    -0.066 OA 
HETATM   17  O   UNL     1      -7.522   8.272  69.022  1.00  0.00    -0.086 OA 
BRANCH  13  18
HETATM   18  C   UNL     1     -10.327   8.517  67.644  1.00  0.00    -0.253 C  
HETATM   19  O   UNL     1     -10.892   7.603  67.059  1.00  0.00    -0.334 OA 
BRANCH  18  20
HETATM   20  O   UNL     1     -10.820   9.153  68.744  1.00  0.00    -0.171 OA 
BRANCH  20  21
HETATM   21  C   UNL     1     -10.777   8.385  69.959  1.00  0.00    -0.236 C  
HETATM   22  C   UNL     1     -10.802   9.228  71.248  1.00  0.00    -0.417 C  
HETATM   23  C   UNL     1     -12.026  10.168  71.314  1.00  0.00    -0.473 C  
HETATM   24  C   UNL     1     -10.709   8.338  72.509  1.00  0.00    -0.411 C  
HETATM   25  C   UNL     1     -13.378   9.470  71.385  1.00  0.00    -0.435 C  
BRANCH  24  26
HETATM   26  C   UNL     1      -9.448   7.470  72.561  1.00  0.00    -0.207 C  
BRANCH  26  27
HETATM   27  C   UNL     1      -9.783   5.983  72.444  1.00  0.00    -0.172 C  
HETATM   28  C   UNL     1     -11.278   5.749  72.616  1.00  0.00    -0.348 C  
ENDBRANCH  26  27
ENDBRANCH  24  26
ENDBRANCH  20  21
ENDBRANCH  18  20
ENDBRANCH  13  18
ENDBRANCH  12  13
ENDBRANCH  10  12
ENDBRANCH   9  10
ENDBRANCH   7   9
ENDBRANCH   3   4
ENDBRANCH   2   3
TORSDOF 11
ENDMDL
MODEL      131
REMARK 921   NORMALIZED FREE ENERGY PREDICTED BY IDOCK:   -4.04 KCAL/MOL
REMARK 922        TOTAL FREE ENERGY PREDICTED BY IDOCK:   -8.89 KCAL/MOL
REMARK 923 INTER-LIGAND FREE ENERGY PREDICTED BY IDOCK:   -7.20 KCAL/MOL
REMARK 924 INTRA-LIGAND FREE ENERGY PREDICTED BY IDOCK:   -1.69 KCAL/MOL
REMARK 927      BINDING AFFINITY PREDICTED BY RF-SCORE:    0.00 PKD
ROOT
HETATM    1  C   UNL     1     -13.574  15.628  71.841  1.00  0.00    -0.521 C  
HETATM    2  C   UNL     1     -12.874  14.665  72.789  1.00  0.00    -0.530 C  
ENDROOT
BRANCH   2   3
HETATM    3  C   UNL     1     -13.241  13.216  72.469  1.00  0.00    -0.437 C  
BRANCH   3   4
HETATM    4  C   UNL     1     -12.990  12.867  70.997  1.00  0.00    -0.180 C  
HETATM    5  C   UNL     1     -12.047  11.659  70.805  1.00  0.00    -0.383 C  
HETATM    6  C   UNL     1     -12.500  10.374  71.536  1.00  0.00    -0.508 C  
HETATM    7  C   UNL     1     -11.802  11.406  69.302  1.00  0.00    -0.349 C  
HETATM    8  C   UNL     1     -13.778   9.750  70.996  1.00  0.00    -0.078 C  
BRANCH   7   9
HETATM    9  O   UNL     1     -10.944  10.259  69.158  1.00  0.00    -0.216 OA 
BRANCH   9  10
HETATM   10  C   UNL     1     -10.597   9.936  67.884  1.00  0.00    -0.254 C  
HETATM   11  O   UNL     1     -11.318  10.066  66.906  1.00  0.00     0.018 OA 
BRANCH  10  12
HETATM   12  C   UNL     1      -9.136   9.584  67.792  1.00  0.00    -0.133 C  
BRANCH  12  13
HETATM   13  C   UNL     1      -8.307  10.588  66.996  1.00  0.00    -0.128 C  
HETATM   14  O   UNL     1      -6.149   9.074  67.277  1.00  0.00    -0.056 OA 
HETATM   15  S   UNL     1      -6.875   9.832  66.289  1.00  0.00    -0.096 S  
HETATM   16  O   UNL     1      -7.640   8.774  65.336  1.00  0.00    -0.084 OA 
HETATM   17  O   UNL     1      -6.226  10.742  65.373  1.00  0.00    -0.103 OA 
BRANCH  13  18
HETATM   18  C   UNL     1      -7.844  11.702  67.880  1.00  0.00    -0.129 C  
HETATM   19  O   UNL     1      -7.614  11.580  69.075  1.00  0.00    -0.119 OA 
BRANCH  18  20
HETATM   20  O   UNL     1      -7.894  12.894  67.220  1.00  0.00    -0.167 OA 
BRANCH  20  21
HETATM   21  C   UNL     1      -9.079  13.103  66.433  1.00  0.00    -0.056 C  
HETATM   22  C   UNL     1     -10.119  14.036  67.080  1.00  0.00    -0.259 C  
HETATM   23  C   UNL     1      -9.528  15.418  67.437  1.00  0.00    -0.207 C  
HETATM   24  C   UNL     1     -11.381  14.177  66.198  1.00  0.00    -0.337 C  
HETATM   25  C   UNL     1      -9.069  16.255  66.251  1.00  0.00    -0.366 C  
BRANCH  24  26
HETATM   26  C   UNL     1     -12.085  12.848  65.911  1.00  0.00    -0.503 C  
BRANCH  26  27
HETATM   27  C   UNL     1     -12.448  12.712  64.432  1.00  0.00    -0.509 C  
HETATM   28  C   UNL     1     -11.505  11.745  63.728  1.00  0.00    -0.510 C  
ENDBRANCH  26  27
ENDBRANCH  24  26
ENDBRANCH  20  21
ENDBRANCH  18  20
ENDBRANCH  13  18
ENDBRANCH  12  13
ENDBRANCH  10  12
ENDBRANCH   9  10
ENDBRANCH   7   9
ENDBRANCH   3   4
ENDBRANCH   2   3
TORSDOF 11
ENDMDL
MODEL      132
REMARK 921   NORMALIZED FREE ENERGY PREDICTED BY IDOCK:   -4.04 KCAL/MOL
REMARK 922        TOTAL FREE ENERGY PREDICTED BY IDOCK:   -8.88 KCAL/MOL
REMARK 923 INTER-LIGAND FREE ENERGY PREDICTED BY IDOCK:   -7.20 KCAL/MOL
REMARK 924 INTRA-LIGAND FREE ENERGY PREDICTED BY IDOCK:   -1.68 KCAL/MOL
REMARK 927      BINDING AFFINITY PREDICTED BY RF-SCORE:    0.00 PKD
ROOT
HETATM    1  C   UNL     1      -8.597   3.913  71.426  1.00  0.00    -0.116 C  
HETATM    2  C   UNL     1      -9.978   4.408  71.021  1.00  0.00    -0.242 C  
ENDROOT
BRANCH   2   3
HETATM    3  C   UNL     1     -10.670   5.116  72.185  1.00  0.00    -0.252 C  
BRANCH   3   4
HETATM    4  C   UNL     1     -10.035   6.477  72.495  1.00  0.00    -0.184 C  
HETATM    5  C   UNL     1     -10.079   7.461  71.306  1.00  0.00    -0.195 C  
HETATM    6  C   UNL     1     -11.495   7.708  70.735  1.00  0.00    -0.295 C  
HETATM    7  C   UNL     1      -9.375   8.783  71.679  1.00  0.00    -0.275 C  
HETATM    8  C   UNL     1     -12.441   8.444  71.672  1.00  0.00    -0.363 C  
BRANCH   7   9
HETATM    9  O   UNL     1      -9.458   9.686  70.561  1.00  0.00    -0.256 OA 
BRANCH   9  10
HETATM   10  C   UNL     1      -8.292   9.928  69.907  1.00  0.00    -0.183 C  
HETATM   11  O   UNL     1      -7.269  10.347  70.428  1.00  0.00    -0.266 OA 
BRANCH  10  12
HETATM   12  C   UNL     1      -8.350   9.425  68.489  1.00  0.00    -0.118 C  
BRANCH  12  13
HETATM   13  C   UNL     1      -9.085  10.359  67.532  1.00  0.00    -0.134 C  
HETATM   14  O   UNL     1      -8.352   8.869  65.466  1.00  0.00    -0.120 OA 
HETATM   15  S   UNL     1      -9.498   9.546  66.019  1.00  0.00    -0.253 S  
HETATM   16  O   UNL     1     -10.470   8.415  66.643  1.00  0.00    -0.294 OA 
HETATM   17  O   UNL     1     -10.373  10.376  65.223  1.00  0.00    -0.284 OA 
BRANCH  13  18
HETATM   18  C   UNL     1      -8.233  11.541  67.195  1.00  0.00    -0.161 C  
HETATM   19  O   UNL     1      -7.018  11.496  67.060  1.00  0.00    -0.126 OA 
BRANCH  18  20
HETATM   20  O   UNL     1      -8.963  12.692  67.243  1.00  0.00    -0.179 OA 
BRANCH  20  21
HETATM   21  C   UNL     1     -10.147  12.626  68.056  1.00  0.00    -0.229 C  
HETATM   22  C   UNL     1     -10.918  13.954  68.171  1.00  0.00    -0.267 C  
HETATM   23  C   UNL     1     -11.311  14.527  66.791  1.00  0.00    -0.358 C  
HETATM   24  C   UNL     1     -12.151  13.817  69.094  1.00  0.00    -0.374 C  
HETATM   25  C   UNL     1     -12.291  13.679  65.991  1.00  0.00    -0.493 C  
BRANCH  24  26
HETATM   26  C   UNL     1     -11.809  13.369  70.518  1.00  0.00    -0.236 C  
BRANCH  26  27
HETATM   27  C   UNL     1     -12.299  14.378  71.558  1.00  0.00    -0.427 C  
HETATM   28  C   UNL     1     -13.036  15.532  70.890  1.00  0.00    -0.526 C  
ENDBRANCH  26  27
ENDBRANCH  24  26
ENDBRANCH  20  21
ENDBRANCH  18  20
ENDBRANCH  13  18
ENDBRANCH  12  13
ENDBRANCH  10  12
ENDBRANCH   9  10
ENDBRANCH   7   9
ENDBRANCH   3   4
ENDBRANCH   2   3
TORSDOF 11
ENDMDL
MODEL      133
REMARK 921   NORMALIZED FREE ENERGY PREDICTED BY IDOCK:   -4.03 KCAL/MOL
REMARK 922        TOTAL FREE ENERGY PREDICTED BY IDOCK:   -8.87 KCAL/MOL
REMARK 923 INTER-LIGAND FREE ENERGY PREDICTED BY IDOCK:   -8.00 KCAL/MOL
REMARK 924 INTRA-LIGAND FREE ENERGY PREDICTED BY IDOCK:   -0.87 KCAL/MOL
REMARK 927      BINDING AFFINITY PREDICTED BY RF-SCORE:    0.00 PKD
ROOT
HETATM    1  C   UNL     1      -5.264  19.036  67.298  1.00  0.00    -0.159 C  
HETATM    2  C   UNL     1      -5.804  20.269  66.586  1.00  0.00    -0.200 C  
ENDROOT
BRANCH   2   3
HETATM    3  C   UNL     1      -6.970  20.883  67.360  1.00  0.00    -0.426 C  
BRANCH   3   4
HETATM    4  C   UNL     1      -8.314  20.662  66.655  1.00  0.00    -0.064 C  
HETATM    5  C   UNL     1      -8.943  19.283  66.954  1.00  0.00    -0.339 C  
HETATM    6  C   UNL     1      -9.131  18.981  68.458  1.00  0.00    -0.401 C  
HETATM    7  C   UNL     1     -10.261  19.116  66.168  1.00  0.00    -0.463 C  
HETATM    8  C   UNL     1     -10.159  19.855  69.162  1.00  0.00    -0.337 C  
BRANCH   7   9
HETATM    9  O   UNL     1     -10.835  17.836  66.490  1.00  0.00    -0.169 OA 
BRANCH   9  10
HETATM   10  C   UNL     1     -10.769  16.895  65.512  1.00  0.00    -0.163 C  
HETATM   11  O   UNL     1     -11.101  17.068  64.348  1.00  0.00    -1.144 OA 
BRANCH  10  12
HETATM   12  C   UNL     1     -10.045  15.664  65.990  1.00  0.00    -0.355 C  
BRANCH  12  13
HETATM   13  C   UNL     1      -9.549  15.760  67.430  1.00  0.00    -0.217 C  
HETATM   14  O   UNL     1      -7.520  14.148  66.870  1.00  0.00     0.131 OA 
HETATM   15  S   UNL     1      -7.828  15.381  67.551  1.00  0.00    -0.188 S  
HETATM   16  O   UNL     1      -7.278  16.590  66.629  1.00  0.00    -0.222 OA 
HETATM   17  O   UNL     1      -7.337  15.683  68.876  1.00  0.00    -0.132 OA 
BRANCH  13  18
HETATM   18  C   UNL     1     -10.289  14.797  68.304  1.00  0.00    -0.238 C  
HETATM   19  O   UNL     1     -11.128  15.126  69.132  1.00  0.00    -0.232 OA 
BRANCH  18  20
HETATM   20  O   UNL     1      -9.773  13.541  68.184  1.00  0.00    -0.221 OA 
BRANCH  20  21
HETATM   21  C   UNL     1     -10.353  12.560  69.060  1.00  0.00     0.060 C  
HETATM   22  C   UNL     1     -11.592  11.847  68.488  1.00  0.00    -0.375 C  
HETATM   23  C   UNL     1     -11.307  11.171  67.129  1.00  0.00    -0.257 C  
HETATM   24  C   UNL     1     -12.186  10.840  69.502  1.00  0.00    -0.292 C  
HETATM   25  C   UNL     1     -10.296  10.032  67.168  1.00  0.00    -0.300 C  
BRANCH  24  26
HETATM   26  C   UNL     1     -12.604  11.477  70.831  1.00  0.00    -0.438 C  
BRANCH  26  27
HETATM   27  C   UNL     1     -12.976  10.418  71.869  1.00  0.00    -0.555 C  
HETATM   28  C   UNL     1     -11.831   9.434  72.074  1.00  0.00    -0.310 C  
ENDBRANCH  26  27
ENDBRANCH  24  26
ENDBRANCH  20  21
ENDBRANCH  18  20
ENDBRANCH  13  18
ENDBRANCH  12  13
ENDBRANCH  10  12
ENDBRANCH   9  10
ENDBRANCH   7   9
ENDBRANCH   3   4
ENDBRANCH   2   3
TORSDOF 11
ENDMDL
MODEL      134
REMARK 921   NORMALIZED FREE ENERGY PREDICTED BY IDOCK:   -4.02 KCAL/MOL
REMARK 922        TOTAL FREE ENERGY PREDICTED BY IDOCK:   -8.85 KCAL/MOL
REMARK 923 INTER-LIGAND FREE ENERGY PREDICTED BY IDOCK:   -6.92 KCAL/MOL
REMARK 924 INTRA-LIGAND FREE ENERGY PREDICTED BY IDOCK:   -1.93 KCAL/MOL
REMARK 927      BINDING AFFINITY PREDICTED BY RF-SCORE:    0.00 PKD
ROOT
HETATM    1  C   UNL     1     -12.481  12.057  63.484  1.00  0.00    -0.654 C  
HETATM    2  C   UNL     1     -12.653  12.723  64.842  1.00  0.00    -0.541 C  
ENDROOT
BRANCH   2   3
HETATM    3  C   UNL     1     -11.314  12.839  65.569  1.00  0.00    -0.347 C  
BRANCH   3   4
HETATM    4  C   UNL     1     -11.199  11.846  66.733  1.00  0.00    -0.384 C  
HETATM    5  C   UNL     1     -10.624  10.475  66.315  1.00  0.00    -0.203 C  
HETATM    6  C   UNL     1      -9.252  10.549  65.606  1.00  0.00    -0.221 C  
HETATM    7  C   UNL     1     -10.590   9.518  67.526  1.00  0.00    -0.275 C  
HETATM    8  C   UNL     1      -8.103  11.018  66.487  1.00  0.00    -0.161 C  
BRANCH   7   9
HETATM    9  O   UNL     1     -10.024   8.262  67.111  1.00  0.00    -0.191 OA 
BRANCH   9  10
HETATM   10  C   UNL     1      -9.652   7.421  68.111  1.00  0.00    -0.142 C  
HETATM   11  O   UNL     1     -10.298   6.455  68.492  1.00  0.00    -0.162 OA 
BRANCH  10  12
HETATM   12  C   UNL     1      -8.245   7.705  68.566  1.00  0.00    -0.125 C  
BRANCH  12  13
HETATM   13  C   UNL     1      -8.087   7.769  70.083  1.00  0.00    -0.117 C  
HETATM   14  O   UNL     1      -5.705   8.901  69.817  1.00  0.00    -0.029 OA 
HETATM   15  S   UNL     1      -6.932   9.017  70.563  1.00  0.00    -0.080 S  
HETATM   16  O   UNL     1      -7.736  10.290  69.974  1.00  0.00    -0.164 OA 
HETATM   17  O   UNL     1      -6.959   9.203  71.996  1.00  0.00    -0.308 OA 
BRANCH  13  18
HETATM   18  C   UNL     1      -7.592   6.462  70.614  1.00  0.00    -0.103 C  
HETATM   19  O   UNL     1      -6.970   5.643  69.951  1.00  0.00    -0.057 OA 
BRANCH  18  20
HETATM   20  O   UNL     1      -8.083   6.232  71.864  1.00  0.00    -0.108 OA 
BRANCH  20  21
HETATM   21  C   UNL     1      -9.423   6.704  72.086  1.00  0.00    -0.144 C  
HETATM   22  C   UNL     1     -10.517   5.637  71.897  1.00  0.00    -0.279 C  
HETATM   23  C   UNL     1     -10.289   4.396  72.789  1.00  0.00    -0.246 C  
HETATM   24  C   UNL     1     -11.930   6.228  72.108  1.00  0.00    -0.338 C  
HETATM   25  C   UNL     1     -10.372   4.649  74.288  1.00  0.00    -0.311 C  
BRANCH  24  26
HETATM   26  C   UNL     1     -12.262   7.387  71.163  1.00  0.00    -0.357 C  
BRANCH  26  27
HETATM   27  C   UNL     1     -12.411   8.706  71.922  1.00  0.00    -0.412 C  
HETATM   28  C   UNL     1     -11.527   9.786  71.312  1.00  0.00    -0.457 C  
ENDBRANCH  26  27
ENDBRANCH  24  26
ENDBRANCH  20  21
ENDBRANCH  18  20
ENDBRANCH  13  18
ENDBRANCH  12  13
ENDBRANCH  10  12
ENDBRANCH   9  10
ENDBRANCH   7   9
ENDBRANCH   3   4
ENDBRANCH   2   3
TORSDOF 11
ENDMDL
MODEL      135
REMARK 921   NORMALIZED FREE ENERGY PREDICTED BY IDOCK:   -4.01 KCAL/MOL
REMARK 922        TOTAL FREE ENERGY PREDICTED BY IDOCK:   -8.84 KCAL/MOL
REMARK 923 INTER-LIGAND FREE ENERGY PREDICTED BY IDOCK:   -6.93 KCAL/MOL
REMARK 924 INTRA-LIGAND FREE ENERGY PREDICTED BY IDOCK:   -1.91 KCAL/MOL
REMARK 927      BINDING AFFINITY PREDICTED BY RF-SCORE:    0.00 PKD
ROOT
HETATM    1  C   UNL     1      -9.238   4.424  68.246  1.00  0.00    -0.182 C  
HETATM    2  C   UNL     1     -10.554   5.155  68.019  1.00  0.00    -0.011 C  
ENDROOT
BRANCH   2   3
HETATM    3  C   UNL     1     -10.451   6.616  68.455  1.00  0.00    -0.248 C  
BRANCH   3   4
HETATM    4  C   UNL     1      -9.559   7.439  67.518  1.00  0.00    -0.171 C  
HETATM    5  C   UNL     1     -10.274   8.664  66.907  1.00  0.00    -0.367 C  
HETATM    6  C   UNL     1     -10.896   9.623  67.947  1.00  0.00    -0.272 C  
HETATM    7  C   UNL     1      -9.330   9.406  65.937  1.00  0.00    -0.230 C  
HETATM    8  C   UNL     1      -9.888  10.361  68.817  1.00  0.00    -0.190 C  
BRANCH   7   9
HETATM    9  O   UNL     1     -10.016  10.555  65.408  1.00  0.00    -0.252 OA 
BRANCH   9  10
HETATM   10  C   UNL     1      -9.436  11.147  64.331  1.00  0.00    -0.220 C  
HETATM   11  O   UNL     1      -8.547  10.653  63.653  1.00  0.00    -0.167 OA 
BRANCH  10  12
HETATM   12  C   UNL     1     -10.161  12.411  63.949  1.00  0.00    -0.409 C  
BRANCH  12  13
HETATM   13  C   UNL     1     -10.982  13.019  65.083  1.00  0.00    -0.295 C  
HETATM   14  O   UNL     1     -12.557  14.234  63.331  1.00  0.00    -0.777 OA 
HETATM   15  S   UNL     1     -12.606  13.458  64.545  1.00  0.00    -0.167 S  
HETATM   16  O   UNL     1     -13.109  11.974  64.149  1.00  0.00    -0.661 OA 
HETATM   17  O   UNL     1     -13.428  13.830  65.674  1.00  0.00    -0.522 OA 
BRANCH  13  18
HETATM   18  C   UNL     1     -10.323  14.257  65.601  1.00  0.00    -0.336 C  
HETATM   19  O   UNL     1      -9.847  15.131  64.889  1.00  0.00    -0.178 OA 
BRANCH  18  20
HETATM   20  O   UNL     1     -10.163  14.189  66.953  1.00  0.00    -0.261 OA 
BRANCH  20  21
HETATM   21  C   UNL     1      -9.108  13.318  67.396  1.00  0.00    -0.216 C  
HETATM   22  C   UNL     1      -7.687  13.836  67.105  1.00  0.00     0.009 C  
HETATM   23  C   UNL     1      -7.438  15.239  67.704  1.00  0.00    -0.197 C  
HETATM   24  C   UNL     1      -6.610  12.829  67.569  1.00  0.00    -0.158 C  
HETATM   25  C   UNL     1      -7.480  15.313  69.224  1.00  0.00    -0.200 C  
BRANCH  24  26
HETATM   26  C   UNL     1      -6.730  11.450  66.913  1.00  0.00    -0.145 C  
BRANCH  26  27
HETATM   27  C   UNL     1      -5.720  10.460  67.494  1.00  0.00    -0.044 C  
HETATM   28  C   UNL     1      -6.430   9.314  68.202  1.00  0.00    -0.058 C  
ENDBRANCH  26  27
ENDBRANCH  24  26
ENDBRANCH  20  21
ENDBRANCH  18  20
ENDBRANCH  13  18
ENDBRANCH  12  13
ENDBRANCH  10  12
ENDBRANCH   9  10
ENDBRANCH   7   9
ENDBRANCH   3   4
ENDBRANCH   2   3
TORSDOF 11
ENDMDL
MODEL      136
REMARK 921   NORMALIZED FREE ENERGY PREDICTED BY IDOCK:   -3.99 KCAL/MOL
REMARK 922        TOTAL FREE ENERGY PREDICTED BY IDOCK:   -8.80 KCAL/MOL
REMARK 923 INTER-LIGAND FREE ENERGY PREDICTED BY IDOCK:   -7.10 KCAL/MOL
REMARK 924 INTRA-LIGAND FREE ENERGY PREDICTED BY IDOCK:   -1.70 KCAL/MOL
REMARK 927      BINDING AFFINITY PREDICTED BY RF-SCORE:    0.00 PKD
ROOT
HETATM    1  C   UNL     1      -6.574  10.081  63.009  1.00  0.00    -0.130 C  
HETATM    2  C   UNL     1      -7.888   9.710  62.336  1.00  0.00    -0.126 C  
ENDROOT
BRANCH   2   3
HETATM    3  C   UNL     1      -9.059   9.848  63.307  1.00  0.00    -0.294 C  
BRANCH   3   4
HETATM    4  C   UNL     1      -8.603  10.265  64.710  1.00  0.00    -0.193 C  
HETATM    5  C   UNL     1      -9.109   9.324  65.826  1.00  0.00    -0.260 C  
HETATM    6  C   UNL     1      -8.741   7.837  65.621  1.00  0.00    -0.132 C  
HETATM    7  C   UNL     1      -8.654   9.841  67.208  1.00  0.00    -0.128 C  
HETATM    8  C   UNL     1      -7.255   7.527  65.722  1.00  0.00    -0.066 C  
BRANCH   7   9
HETATM    9  O   UNL     1      -9.117   8.928  68.220  1.00  0.00    -0.140 OA 
BRANCH   9  10
HETATM   10  C   UNL     1      -9.639   9.500  69.338  1.00  0.00    -0.180 C  
HETATM   11  O   UNL     1      -9.069   9.580  70.416  1.00  0.00    -0.238 OA 
BRANCH  10  12
HETATM   12  C   UNL     1     -10.935  10.204  69.034  1.00  0.00    -0.265 C  
BRANCH  12  13
HETATM   13  C   UNL     1     -11.362  11.201  70.107  1.00  0.00    -0.209 C  
HETATM   14  O   UNL     1     -13.736  10.035  70.286  1.00  0.00     0.198 OA 
HETATM   15  S   UNL     1     -12.672  10.560  71.104  1.00  0.00    -0.450 S  
HETATM   16  O   UNL     1     -11.872   9.298  71.721  1.00  0.00    -0.353 OA 
HETATM   17  O   UNL     1     -12.913  11.425  72.236  1.00  0.00    -0.286 OA 
BRANCH  13  18
HETATM   18  C   UNL     1     -11.847  12.470  69.479  1.00  0.00    -0.310 C  
HETATM   19  O   UNL     1     -12.248  13.439  70.110  1.00  0.00    -0.331 OA 
BRANCH  18  20
HETATM   20  O   UNL     1     -11.956  12.329  68.128  1.00  0.00    -0.386 OA 
BRANCH  20  21
HETATM   21  C   UNL     1     -11.866  13.554  67.380  1.00  0.00    -0.384 C  
HETATM   22  C   UNL     1     -10.862  13.519  66.214  1.00  0.00    -0.291 C  
HETATM   23  C   UNL     1     -11.152  12.370  65.222  1.00  0.00    -0.342 C  
HETATM   24  C   UNL     1     -10.788  14.881  65.486  1.00  0.00    -0.365 C  
HETATM   25  C   UNL     1     -12.476  12.473  64.477  1.00  0.00    -0.539 C  
BRANCH  24  26
HETATM   26  C   UNL     1     -10.382  16.045  66.396  1.00  0.00    -0.312 C  
BRANCH  26  27
HETATM   27  C   UNL     1      -8.972  15.856  66.956  1.00  0.00    -0.239 C  
HETATM   28  C   UNL     1      -7.984  16.787  66.265  1.00  0.00    -0.352 C  
ENDBRANCH  26  27
ENDBRANCH  24  26
ENDBRANCH  20  21
ENDBRANCH  18  20
ENDBRANCH  13  18
ENDBRANCH  12  13
ENDBRANCH  10  12
ENDBRANCH   9  10
ENDBRANCH   7   9
ENDBRANCH   3   4
ENDBRANCH   2   3
TORSDOF 11
ENDMDL
MODEL      137
REMARK 921   NORMALIZED FREE ENERGY PREDICTED BY IDOCK:   -3.98 KCAL/MOL
REMARK 922        TOTAL FREE ENERGY PREDICTED BY IDOCK:   -8.79 KCAL/MOL
REMARK 923 INTER-LIGAND FREE ENERGY PREDICTED BY IDOCK:   -6.60 KCAL/MOL
REMARK 924 INTRA-LIGAND FREE ENERGY PREDICTED BY IDOCK:   -2.19 KCAL/MOL
REMARK 927      BINDING AFFINITY PREDICTED BY RF-SCORE:    0.00 PKD
ROOT
HETATM    1  C   UNL     1      -9.946   5.009  74.463  1.00  0.00    -0.247 C  
HETATM    2  C   UNL     1     -10.401   6.190  73.617  1.00  0.00    -0.275 C  
ENDROOT
BRANCH   2   3
HETATM    3  C   UNL     1     -11.412   5.749  72.559  1.00  0.00    -0.349 C  
BRANCH   3   4
HETATM    4  C   UNL     1     -12.137   6.940  71.919  1.00  0.00    -0.370 C  
HETATM    5  C   UNL     1     -11.203   7.859  71.102  1.00  0.00    -0.284 C  
HETATM    6  C   UNL     1     -10.399   7.134  69.999  1.00  0.00    -0.219 C  
HETATM    7  C   UNL     1     -11.995   9.058  70.537  1.00  0.00    -0.010 C  
HETATM    8  C   UNL     1     -11.238   6.588  68.852  1.00  0.00    -0.341 C  
BRANCH   7   9
HETATM    9  O   UNL     1     -11.104   9.879  69.759  1.00  0.00    -0.239 OA 
BRANCH   9  10
HETATM   10  C   UNL     1     -11.609  11.069  69.339  1.00  0.00    -0.312 C  
HETATM   11  O   UNL     1     -11.924  11.994  70.073  1.00  0.00    -0.326 OA 
BRANCH  10  12
HETATM   12  C   UNL     1     -11.549  11.186  67.839  1.00  0.00    -0.328 C  
BRANCH  12  13
HETATM   13  C   UNL     1     -10.808  12.426  67.346  1.00  0.00    -0.238 C  
HETATM   14  O   UNL     1     -10.710  11.427  64.892  1.00  0.00    -0.295 OA 
HETATM   15  S   UNL     1     -11.001  12.646  65.604  1.00  0.00    -0.289 S  
HETATM   16  O   UNL     1     -12.605  12.842  65.589  1.00  0.00    -0.596 OA 
HETATM   17  O   UNL     1     -10.476  13.930  65.198  1.00  0.00    -0.346 OA 
BRANCH  13  18
HETATM   18  C   UNL     1      -9.345  12.310  67.631  1.00  0.00    -0.186 C  
HETATM   19  O   UNL     1      -8.755  12.970  68.476  1.00  0.00    -0.142 OA 
BRANCH  18  20
HETATM   20  O   UNL     1      -8.735  11.516  66.707  1.00  0.00    -0.167 OA 
BRANCH  20  21
HETATM   21  C   UNL     1      -7.796  10.568  67.245  1.00  0.00    -0.107 C  
HETATM   22  C   UNL     1      -8.421   9.236  67.699  1.00  0.00    -0.116 C  
HETATM   23  C   UNL     1      -9.211   8.542  66.568  1.00  0.00    -0.239 C  
HETATM   24  C   UNL     1      -7.361   8.289  68.306  1.00  0.00    -0.095 C  
HETATM   25  C   UNL     1      -8.379   8.093  65.374  1.00  0.00    -0.163 C  
BRANCH  24  26
HETATM   26  C   UNL     1      -6.626   8.877  69.514  1.00  0.00    -0.044 C  
BRANCH  26  27
HETATM   27  C   UNL     1      -7.597   9.251  70.635  1.00  0.00    -0.161 C  
HETATM   28  C   UNL     1      -7.349   8.400  71.874  1.00  0.00    -0.118 C  
ENDBRANCH  26  27
ENDBRANCH  24  26
ENDBRANCH  20  21
ENDBRANCH  18  20
ENDBRANCH  13  18
ENDBRANCH  12  13
ENDBRANCH  10  12
ENDBRANCH   9  10
ENDBRANCH   7   9
ENDBRANCH   3   4
ENDBRANCH   2   3
TORSDOF 11
ENDMDL
MODEL      138
REMARK 921   NORMALIZED FREE ENERGY PREDICTED BY IDOCK:   -3.97 KCAL/MOL
REMARK 922        TOTAL FREE ENERGY PREDICTED BY IDOCK:   -8.78 KCAL/MOL
REMARK 923 INTER-LIGAND FREE ENERGY PREDICTED BY IDOCK:   -6.73 KCAL/MOL
REMARK 924 INTRA-LIGAND FREE ENERGY PREDICTED BY IDOCK:   -2.05 KCAL/MOL
REMARK 927      BINDING AFFINITY PREDICTED BY RF-SCORE:    0.00 PKD
ROOT
HETATM    1  C   UNL     1     -11.071  14.683  69.770  1.00  0.00    -0.268 C  
HETATM    2  C   UNL     1     -12.199  13.703  69.480  1.00  0.00    -0.316 C  
ENDROOT
BRANCH   2   3
HETATM    3  C   UNL     1     -12.243  12.592  70.529  1.00  0.00    -0.382 C  
BRANCH   3   4
HETATM    4  C   UNL     1     -11.850  11.229  69.946  1.00  0.00    -0.436 C  
HETATM    5  C   UNL     1     -11.498  10.179  71.023  1.00  0.00    -0.436 C  
HETATM    6  C   UNL     1     -12.605   9.953  72.079  1.00  0.00    -0.410 C  
HETATM    7  C   UNL     1     -11.064   8.856  70.358  1.00  0.00    -0.239 C  
HETATM    8  C   UNL     1     -13.876   9.308  71.543  1.00  0.00    -0.330 C  
BRANCH   7   9
HETATM    9  O   UNL     1     -10.770   7.893  71.387  1.00  0.00    -0.221 OA 
BRANCH   9  10
HETATM   10  C   UNL     1     -10.619   6.608  70.969  1.00  0.00    -0.226 C  
HETATM   11  O   UNL     1     -11.277   5.659  71.369  1.00  0.00    -0.213 OA 
BRANCH  10  12
HETATM   12  C   UNL     1      -9.673   6.524  69.801  1.00  0.00    -0.170 C  
BRANCH  12  13
HETATM   13  C   UNL     1     -10.247   5.790  68.592  1.00  0.00    -0.197 C  
HETATM   14  O   UNL     1      -7.816   5.019  67.868  1.00  0.00    -0.089 OA 
HETATM   15  S   UNL     1      -9.159   4.518  68.028  1.00  0.00    -0.131 S  
HETATM   16  O   UNL     1      -9.180   3.611  69.365  1.00  0.00    -0.125 OA 
HETATM   17  O   UNL     1      -9.811   3.704  67.028  1.00  0.00    -0.148 OA 
BRANCH  13  18
HETATM   18  C   UNL     1     -10.465   6.740  67.457  1.00  0.00    -0.239 C  
HETATM   19  O   UNL     1     -11.355   6.624  66.626  1.00  0.00    -0.150 OA 
BRANCH  18  20
HETATM   20  O   UNL     1      -9.437   7.631  67.370  1.00  0.00    -0.136 OA 
BRANCH  20  21
HETATM   21  C   UNL     1      -9.733   8.828  66.631  1.00  0.00    -0.242 C  
HETATM   22  C   UNL     1      -9.317  10.133  67.336  1.00  0.00    -0.167 C  
HETATM   23  C   UNL     1      -7.816  10.151  67.702  1.00  0.00    -0.098 C  
HETATM   24  C   UNL     1      -9.705  11.377  66.503  1.00  0.00    -0.226 C  
HETATM   25  C   UNL     1      -6.857  10.129  66.519  1.00  0.00    -0.090 C  
BRANCH  24  26
HETATM   26  C   UNL     1     -11.205  11.480  66.212  1.00  0.00    -0.286 C  
BRANCH  26  27
HETATM   27  C   UNL     1     -11.470  11.936  64.776  1.00  0.00    -0.323 C  
HETATM   28  C   UNL     1     -10.388  11.421  63.835  1.00  0.00    -0.434 C  
ENDBRANCH  26  27
ENDBRANCH  24  26
ENDBRANCH  20  21
ENDBRANCH  18  20
ENDBRANCH  13  18
ENDBRANCH  12  13
ENDBRANCH  10  12
ENDBRANCH   9  10
ENDBRANCH   7   9
ENDBRANCH   3   4
ENDBRANCH   2   3
TORSDOF 11
ENDMDL
MODEL      139
REMARK 921   NORMALIZED FREE ENERGY PREDICTED BY IDOCK:   -3.96 KCAL/MOL
REMARK 922        TOTAL FREE ENERGY PREDICTED BY IDOCK:   -8.76 KCAL/MOL
REMARK 923 INTER-LIGAND FREE ENERGY PREDICTED BY IDOCK:   -7.46 KCAL/MOL
REMARK 924 INTRA-LIGAND FREE ENERGY PREDICTED BY IDOCK:   -1.30 KCAL/MOL
REMARK 927      BINDING AFFINITY PREDICTED BY RF-SCORE:    0.00 PKD
ROOT
HETATM    1  C   UNL     1      -7.941   3.804  69.256  1.00  0.00    -0.059 C  
HETATM    2  C   UNL     1      -9.414   4.080  68.992  1.00  0.00    -0.243 C  
ENDROOT
BRANCH   2   3
HETATM    3  C   UNL     1     -10.038   4.874  70.140  1.00  0.00    -0.332 C  
BRANCH   3   4
HETATM    4  C   UNL     1      -9.109   5.983  70.648  1.00  0.00    -0.157 C  
HETATM    5  C   UNL     1      -9.531   7.396  70.190  1.00  0.00    -0.165 C  
HETATM    6  C   UNL     1     -10.984   7.778  70.556  1.00  0.00    -0.251 C  
HETATM    7  C   UNL     1      -8.519   8.447  70.696  1.00  0.00    -0.135 C  
HETATM    8  C   UNL     1     -11.245   7.937  72.047  1.00  0.00    -0.339 C  
BRANCH   7   9
HETATM    9  O   UNL     1      -8.956   9.753  70.276  1.00  0.00    -0.232 OA 
BRANCH   9  10
HETATM   10  C   UNL     1      -8.024  10.515  69.646  1.00  0.00    -0.063 C  
HETATM   11  O   UNL     1      -6.915  10.775  70.088  1.00  0.00    -0.173 OA 
BRANCH  10  12
HETATM   12  C   UNL     1      -8.449  10.839  68.238  1.00  0.00    -0.130 C  
BRANCH  12  13
HETATM   13  C   UNL     1      -9.695  11.716  68.155  1.00  0.00    -0.189 C  
HETATM   14  O   UNL     1     -10.231  10.779  65.734  1.00  0.00    -0.248 OA 
HETATM   15  S   UNL     1     -10.863  11.077  66.995  1.00  0.00    -0.265 S  
HETATM   16  O   UNL     1     -11.151   9.669  67.735  1.00  0.00    -0.219 OA 
HETATM   17  O   UNL     1     -12.113  11.797  67.089  1.00  0.00    -0.592 OA 
BRANCH  13  18
HETATM   18  C   UNL     1      -9.333  13.101  67.721  1.00  0.00    -0.206 C  
HETATM   19  O   UNL     1      -8.914  13.384  66.607  1.00  0.00    -0.213 OA 
BRANCH  18  20
HETATM   20  O   UNL     1      -9.356  13.960  68.779  1.00  0.00    -0.149 OA 
BRANCH  20  21
HETATM   21  C   UNL     1     -10.668  14.282  69.272  1.00  0.00    -0.172 C  
HETATM   22  C   UNL     1     -10.728  15.544  70.152  1.00  0.00    -0.345 C  
HETATM   23  C   UNL     1     -10.163  16.789  69.435  1.00  0.00    -0.225 C  
HETATM   24  C   UNL     1     -12.159  15.800  70.680  1.00  0.00    -0.424 C  
HETATM   25  C   UNL     1     -10.943  17.242  68.207  1.00  0.00    -0.188 C  
BRANCH  24  26
HETATM   26  C   UNL     1     -12.728  14.645  71.508  1.00  0.00    -0.408 C  
BRANCH  26  27
HETATM   27  C   UNL     1     -13.548  15.153  72.694  1.00  0.00    -0.594 C  
HETATM   28  C   UNL     1     -12.639  15.703  73.786  1.00  0.00    -0.743 C  
ENDBRANCH  26  27
ENDBRANCH  24  26
ENDBRANCH  20  21
ENDBRANCH  18  20
ENDBRANCH  13  18
ENDBRANCH  12  13
ENDBRANCH  10  12
ENDBRANCH   9  10
ENDBRANCH   7   9
ENDBRANCH   3   4
ENDBRANCH   2   3
TORSDOF 11
ENDMDL
MODEL      140
REMARK 921   NORMALIZED FREE ENERGY PREDICTED BY IDOCK:   -3.96 KCAL/MOL
REMARK 922        TOTAL FREE ENERGY PREDICTED BY IDOCK:   -8.76 KCAL/MOL
REMARK 923 INTER-LIGAND FREE ENERGY PREDICTED BY IDOCK:   -7.99 KCAL/MOL
REMARK 924 INTRA-LIGAND FREE ENERGY PREDICTED BY IDOCK:   -0.76 KCAL/MOL
REMARK 927      BINDING AFFINITY PREDICTED BY RF-SCORE:    0.00 PKD
ROOT
HETATM    1  C   UNL     1      -5.657  18.229  69.331  1.00  0.00    -0.218 C  
HETATM    2  C   UNL     1      -6.867  19.110  69.051  1.00  0.00    -0.363 C  
ENDROOT
BRANCH   2   3
HETATM    3  C   UNL     1      -7.052  19.327  67.550  1.00  0.00    -0.236 C  
BRANCH   3   4
HETATM    4  C   UNL     1      -7.748  18.140  66.874  1.00  0.00    -0.244 C  
HETATM    5  C   UNL     1      -9.040  17.694  67.595  1.00  0.00    -0.241 C  
HETATM    6  C   UNL     1     -10.082  18.819  67.788  1.00  0.00    -0.417 C  
HETATM    7  C   UNL     1      -9.650  16.465  66.887  1.00  0.00    -0.244 C  
HETATM    8  C   UNL     1     -10.709  19.337  66.502  1.00  0.00    -0.487 C  
BRANCH   7   9
HETATM    9  O   UNL     1     -10.864  16.094  67.565  1.00  0.00    -0.323 OA 
BRANCH   9  10
HETATM   10  C   UNL     1     -10.874  14.855  68.124  1.00  0.00    -0.256 C  
HETATM   11  O   UNL     1     -10.343  14.560  69.185  1.00  0.00    -0.235 OA 
BRANCH  10  12
HETATM   12  C   UNL     1     -11.794  13.928  67.375  1.00  0.00    -0.437 C  
BRANCH  12  13
HETATM   13  C   UNL     1     -11.100  13.119  66.282  1.00  0.00    -0.287 C  
HETATM   14  O   UNL     1     -13.396  12.844  64.987  1.00  0.00    -0.682 OA 
HETATM   15  S   UNL     1     -12.007  13.162  64.768  1.00  0.00    -0.415 S  
HETATM   16  O   UNL     1     -11.914  14.755  64.507  1.00  0.00    -0.445 OA 
HETATM   17  O   UNL     1     -11.232  12.574  63.699  1.00  0.00    -0.423 OA 
BRANCH  13  18
HETATM   18  C   UNL     1     -10.969  11.687  66.694  1.00  0.00    -0.299 C  
HETATM   19  O   UNL     1     -11.076  11.291  67.846  1.00  0.00    -0.226 OA 
BRANCH  18  20
HETATM   20  O   UNL     1     -10.535  10.924  65.651  1.00  0.00    -0.249 OA 
BRANCH  20  21
HETATM   21  C   UNL     1      -9.119  10.673  65.630  1.00  0.00    -0.183 C  
HETATM   22  C   UNL     1      -8.682   9.560  64.660  1.00  0.00    -0.233 C  
HETATM   23  C   UNL     1      -9.146   9.827  63.211  1.00  0.00    -0.267 C  
HETATM   24  C   UNL     1      -7.156   9.317  64.725  1.00  0.00    -0.095 C  
HETATM   25  C   UNL     1      -8.539  11.057  62.550  1.00  0.00    -0.305 C  
BRANCH  24  26
HETATM   26  C   UNL     1      -6.652   8.926  66.117  1.00  0.00    -0.065 C  
BRANCH  26  27
HETATM   27  C   UNL     1      -6.227   7.458  66.170  1.00  0.00    -0.041 C  
HETATM   28  C   UNL     1      -7.385   6.573  66.612  1.00  0.00    -0.078 C  
ENDBRANCH  26  27
ENDBRANCH  24  26
ENDBRANCH  20  21
ENDBRANCH  18  20
ENDBRANCH  13  18
ENDBRANCH  12  13
ENDBRANCH  10  12
ENDBRANCH   9  10
ENDBRANCH   7   9
ENDBRANCH   3   4
ENDBRANCH   2   3
TORSDOF 11
ENDMDL
MODEL      141
REMARK 921   NORMALIZED FREE ENERGY PREDICTED BY IDOCK:   -3.96 KCAL/MOL
REMARK 922        TOTAL FREE ENERGY PREDICTED BY IDOCK:   -8.75 KCAL/MOL
REMARK 923 INTER-LIGAND FREE ENERGY PREDICTED BY IDOCK:   -7.68 KCAL/MOL
REMARK 924 INTRA-LIGAND FREE ENERGY PREDICTED BY IDOCK:   -1.07 KCAL/MOL
REMARK 927      BINDING AFFINITY PREDICTED BY RF-SCORE:    0.00 PKD
ROOT
HETATM    1  C   UNL     1      -9.703  20.173  67.171  1.00  0.00    -0.576 C  
HETATM    2  C   UNL     1      -9.069  19.151  68.104  1.00  0.00    -0.371 C  
ENDROOT
BRANCH   2   3
HETATM    3  C   UNL     1     -10.132  18.253  68.737  1.00  0.00    -0.393 C  
BRANCH   3   4
HETATM    4  C   UNL     1     -10.561  17.117  67.801  1.00  0.00    -0.360 C  
HETATM    5  C   UNL     1     -10.093  15.722  68.272  1.00  0.00    -0.222 C  
HETATM    6  C   UNL     1     -10.529  15.355  69.709  1.00  0.00    -0.303 C  
HETATM    7  C   UNL     1     -10.516  14.643  67.253  1.00  0.00    -0.266 C  
HETATM    8  C   UNL     1     -12.028  15.163  69.891  1.00  0.00    -0.372 C  
BRANCH   7   9
HETATM    9  O   UNL     1     -10.090  13.356  67.735  1.00  0.00    -0.223 OA 
BRANCH   9  10
HETATM   10  C   UNL     1     -10.606  12.280  67.085  1.00  0.00    -0.225 C  
HETATM   11  O   UNL     1     -11.594  12.303  66.364  1.00  0.00    -0.366 OA 
BRANCH  10  12
HETATM   12  C   UNL     1      -9.695  11.086  67.200  1.00  0.00    -0.198 C  
BRANCH  12  13
HETATM   13  C   UNL     1      -9.576  10.535  68.617  1.00  0.00    -0.171 C  
HETATM   14  O   UNL     1      -7.198   9.508  68.050  1.00  0.00    -0.080 OA 
HETATM   15  S   UNL     1      -7.890  10.259  69.067  1.00  0.00    -0.125 S  
HETATM   16  O   UNL     1      -7.387  11.792  68.960  1.00  0.00    -0.108 OA 
HETATM   17  O   UNL     1      -7.789   9.943  70.474  1.00  0.00    -0.246 OA 
BRANCH  13  18
HETATM   18  C   UNL     1     -10.297   9.229  68.734  1.00  0.00    -0.211 C  
HETATM   19  O   UNL     1     -10.283   8.358  67.875  1.00  0.00    -0.196 OA 
BRANCH  18  20
HETATM   20  O   UNL     1     -11.109   9.222  69.829  1.00  0.00    -0.227 OA 
BRANCH  20  21
HETATM   21  C   UNL     1     -11.423   7.917  70.343  1.00  0.00    -0.145 C  
HETATM   22  C   UNL     1     -11.604   7.860  71.871  1.00  0.00    -0.338 C  
HETATM   23  C   UNL     1     -12.680   8.848  72.374  1.00  0.00    -0.436 C  
HETATM   24  C   UNL     1     -11.896   6.420  72.355  1.00  0.00    -0.255 C  
HETATM   25  C   UNL     1     -14.097   8.567  71.892  1.00  0.00    -0.519 C  
BRANCH  24  26
HETATM   26  C   UNL     1     -10.800   5.413  71.992  1.00  0.00    -0.266 C  
BRANCH  26  27
HETATM   27  C   UNL     1     -10.508   4.458  73.150  1.00  0.00    -0.251 C  
HETATM   28  C   UNL     1     -10.278   3.041  72.640  1.00  0.00    -0.231 C  
ENDBRANCH  26  27
ENDBRANCH  24  26
ENDBRANCH  20  21
ENDBRANCH  18  20
ENDBRANCH  13  18
ENDBRANCH  12  13
ENDBRANCH  10  12
ENDBRANCH   9  10
ENDBRANCH   7   9
ENDBRANCH   3   4
ENDBRANCH   2   3
TORSDOF 11
ENDMDL
MODEL      142
REMARK 921   NORMALIZED FREE ENERGY PREDICTED BY IDOCK:   -3.95 KCAL/MOL
REMARK 922        TOTAL FREE ENERGY PREDICTED BY IDOCK:   -8.74 KCAL/MOL
REMARK 923 INTER-LIGAND FREE ENERGY PREDICTED BY IDOCK:   -6.91 KCAL/MOL
REMARK 924 INTRA-LIGAND FREE ENERGY PREDICTED BY IDOCK:   -1.83 KCAL/MOL
REMARK 927      BINDING AFFINITY PREDICTED BY RF-SCORE:    0.00 PKD
ROOT
HETATM    1  C   UNL     1     -12.670  15.659  71.341  1.00  0.00    -0.535 C  
HETATM    2  C   UNL     1     -12.554  14.158  71.114  1.00  0.00    -0.439 C  
ENDROOT
BRANCH   2   3
HETATM    3  C   UNL     1     -12.216  13.849  69.656  1.00  0.00    -0.374 C  
BRANCH   3   4
HETATM    4  C   UNL     1     -11.846  12.376  69.446  1.00  0.00    -0.365 C  
HETATM    5  C   UNL     1     -11.452  12.043  67.990  1.00  0.00    -0.392 C  
HETATM    6  C   UNL     1     -10.306  12.913  67.425  1.00  0.00    -0.233 C  
HETATM    7  C   UNL     1     -11.148  10.536  67.850  1.00  0.00    -0.304 C  
HETATM    8  C   UNL     1      -8.952  12.690  68.082  1.00  0.00    -0.199 C  
BRANCH   7   9
HETATM    9  O   UNL     1     -10.757  10.265  66.491  1.00  0.00    -0.176 OA 
BRANCH   9  10
HETATM   10  C   UNL     1     -10.081   9.104  66.290  1.00  0.00    -0.249 C  
HETATM   11  O   UNL     1      -9.403   8.848  65.306  1.00  0.00    -0.168 OA 
BRANCH  10  12
HETATM   12  C   UNL     1     -10.104   8.240  67.524  1.00  0.00    -0.287 C  
BRANCH  12  13
HETATM   13  C   UNL     1      -9.117   7.077  67.483  1.00  0.00    -0.122 C  
HETATM   14  O   UNL     1     -10.807   5.557  68.849  1.00  0.00    -0.211 OA 
HETATM   15  S   UNL     1      -9.933   5.526  67.702  1.00  0.00    -0.170 S  
HETATM   16  O   UNL     1     -10.867   5.587  66.383  1.00  0.00    -0.270 OA 
HETATM   17  O   UNL     1      -9.019   4.435  67.448  1.00  0.00    -0.108 OA 
BRANCH  13  18
HETATM   18  C   UNL     1      -8.101   7.214  68.571  1.00  0.00    -0.125 C  
HETATM   19  O   UNL     1      -7.134   6.475  68.706  1.00  0.00    -0.077 OA 
BRANCH  18  20
HETATM   20  O   UNL     1      -8.495   8.144  69.486  1.00  0.00    -0.124 OA 
BRANCH  20  21
HETATM   21  C   UNL     1      -8.766   7.627  70.800  1.00  0.00    -0.139 C  
HETATM   22  C   UNL     1      -9.341   8.660  71.787  1.00  0.00    -0.343 C  
HETATM   23  C   UNL     1     -10.630   9.326  71.257  1.00  0.00    -0.417 C  
HETATM   24  C   UNL     1      -9.563   8.044  73.188  1.00  0.00    -0.344 C  
HETATM   25  C   UNL     1     -11.817   8.390  71.074  1.00  0.00    -0.278 C  
BRANCH  24  26
HETATM   26  C   UNL     1      -8.290   7.475  73.821  1.00  0.00    -0.220 C  
BRANCH  26  27
HETATM   27  C   UNL     1      -8.564   6.160  74.551  1.00  0.00    -0.131 C  
HETATM   28  C   UNL     1      -8.913   5.053  73.565  1.00  0.00    -0.114 C  
ENDBRANCH  26  27
ENDBRANCH  24  26
ENDBRANCH  20  21
ENDBRANCH  18  20
ENDBRANCH  13  18
ENDBRANCH  12  13
ENDBRANCH  10  12
ENDBRANCH   9  10
ENDBRANCH   7   9
ENDBRANCH   3   4
ENDBRANCH   2   3
TORSDOF 11
ENDMDL
MODEL      143
REMARK 921   NORMALIZED FREE ENERGY PREDICTED BY IDOCK:   -3.95 KCAL/MOL
REMARK 922        TOTAL FREE ENERGY PREDICTED BY IDOCK:   -8.74 KCAL/MOL
REMARK 923 INTER-LIGAND FREE ENERGY PREDICTED BY IDOCK:   -7.42 KCAL/MOL
REMARK 924 INTRA-LIGAND FREE ENERGY PREDICTED BY IDOCK:   -1.32 KCAL/MOL
REMARK 927      BINDING AFFINITY PREDICTED BY RF-SCORE:    0.00 PKD
ROOT
HETATM    1  C   UNL     1     -10.911  19.413  67.200  1.00  0.00    -0.561 C  
HETATM    2  C   UNL     1      -9.655  20.220  66.898  1.00  0.00    -0.564 C  
ENDROOT
BRANCH   2   3
HETATM    3  C   UNL     1      -8.425  19.582  67.543  1.00  0.00    -0.339 C  
BRANCH   3   4
HETATM    4  C   UNL     1      -8.792  18.396  68.443  1.00  0.00    -0.340 C  
HETATM    5  C   UNL     1      -7.926  17.143  68.190  1.00  0.00    -0.216 C  
HETATM    6  C   UNL     1      -6.403  17.386  68.309  1.00  0.00    -0.170 C  
HETATM    7  C   UNL     1      -8.391  15.980  69.093  1.00  0.00    -0.244 C  
HETATM    8  C   UNL     1      -5.918  17.717  69.712  1.00  0.00    -0.245 C  
BRANCH   7   9
HETATM    9  O   UNL     1      -7.546  14.839  68.853  1.00  0.00    -0.128 OA 
BRANCH   9  10
HETATM   10  C   UNL     1      -8.085  13.855  68.086  1.00  0.00    -0.150 C  
HETATM   11  O   UNL     1      -7.458  13.147  67.312  1.00  0.00    -0.146 OA 
BRANCH  10  12
HETATM   12  C   UNL     1      -9.524  13.605  68.454  1.00  0.00    -0.190 C  
BRANCH  12  13
HETATM   13  C   UNL     1     -10.448  13.438  67.251  1.00  0.00    -0.248 C  
HETATM   14  O   UNL     1     -12.473  14.452  68.629  1.00  0.00    -0.115 OA 
HETATM   15  S   UNL     1     -11.833  14.530  67.340  1.00  0.00    -0.337 S  
HETATM   16  O   UNL     1     -11.011  15.921  67.294  1.00  0.00    -0.310 OA 
HETATM   17  O   UNL     1     -12.574  14.507  66.099  1.00  0.00    -0.286 OA 
BRANCH  13  18
HETATM   18  C   UNL     1     -10.975  12.039  67.187  1.00  0.00    -0.270 C  
HETATM   19  O   UNL     1     -11.641  11.598  66.260  1.00  0.00    -0.420 OA 
BRANCH  18  20
HETATM   20  O   UNL     1     -10.775  11.393  68.370  1.00  0.00    -0.183 OA 
BRANCH  20  21
HETATM   21  C   UNL     1     -11.062   9.984  68.349  1.00  0.00    -0.182 C  
HETATM   22  C   UNL     1     -10.152   9.133  69.254  1.00  0.00    -0.196 C  
HETATM   23  C   UNL     1     -10.175   9.607  70.724  1.00  0.00    -0.330 C  
HETATM   24  C   UNL     1     -10.491   7.628  69.145  1.00  0.00    -0.220 C  
HETATM   25  C   UNL     1     -11.516   9.470  71.431  1.00  0.00    -0.462 C  
BRANCH  24  26
HETATM   26  C   UNL     1     -10.366   7.068  67.725  1.00  0.00    -0.255 C  
BRANCH  26  27
HETATM   27  C   UNL     1      -8.939   7.199  67.192  1.00  0.00    -0.129 C  
HETATM   28  C   UNL     1      -8.917   7.977  65.883  1.00  0.00    -0.181 C  
ENDBRANCH  26  27
ENDBRANCH  24  26
ENDBRANCH  20  21
ENDBRANCH  18  20
ENDBRANCH  13  18
ENDBRANCH  12  13
ENDBRANCH  10  12
ENDBRANCH   9  10
ENDBRANCH   7   9
ENDBRANCH   3   4
ENDBRANCH   2   3
TORSDOF 11
ENDMDL
MODEL      144
REMARK 921   NORMALIZED FREE ENERGY PREDICTED BY IDOCK:   -3.95 KCAL/MOL
REMARK 922        TOTAL FREE ENERGY PREDICTED BY IDOCK:   -8.74 KCAL/MOL
REMARK 923 INTER-LIGAND FREE ENERGY PREDICTED BY IDOCK:   -7.22 KCAL/MOL
REMARK 924 INTRA-LIGAND FREE ENERGY PREDICTED BY IDOCK:   -1.51 KCAL/MOL
REMARK 927      BINDING AFFINITY PREDICTED BY RF-SCORE:    0.00 PKD
ROOT
HETATM    1  C   UNL     1     -11.458   1.779  73.659  1.00  0.00    -0.307 C  
HETATM    2  C   UNL     1     -11.130   3.258  73.509  1.00  0.00    -0.314 C  
ENDROOT
BRANCH   2   3
HETATM    3  C   UNL     1     -10.071   3.478  72.430  1.00  0.00    -0.232 C  
BRANCH   3   4
HETATM    4  C   UNL     1      -9.394   4.849  72.553  1.00  0.00    -0.155 C  
HETATM    5  C   UNL     1      -9.296   5.607  71.212  1.00  0.00    -0.171 C  
HETATM    6  C   UNL     1     -10.647   5.799  70.487  1.00  0.00    -0.359 C  
HETATM    7  C   UNL     1      -8.558   6.949  71.409  1.00  0.00    -0.119 C  
HETATM    8  C   UNL     1     -11.627   6.723  71.196  1.00  0.00    -0.377 C  
BRANCH   7   9
HETATM    9  O   UNL     1      -8.507   7.642  70.148  1.00  0.00    -0.134 OA 
BRANCH   9  10
HETATM   10  C   UNL     1      -8.626   8.994  70.211  1.00  0.00    -0.178 C  
HETATM   11  O   UNL     1      -7.870   9.737  70.821  1.00  0.00    -0.304 OA 
BRANCH  10  12
HETATM   12  C   UNL     1      -9.691   9.491  69.270  1.00  0.00    -0.180 C  
BRANCH  12  13
HETATM   13  C   UNL     1      -9.975  10.985  69.392  1.00  0.00     0.011 C  
HETATM   14  O   UNL     1     -12.535  10.574  68.839  1.00  0.00    -0.194 OA 
HETATM   15  S   UNL     1     -11.678  11.296  69.746  1.00  0.00    -0.379 S  
HETATM   16  O   UNL     1     -11.740  10.540  71.173  1.00  0.00    -0.329 OA 
HETATM   17  O   UNL     1     -11.880  12.691  70.066  1.00  0.00    -0.329 OA 
BRANCH  13  18
HETATM   18  C   UNL     1      -9.641  11.688  68.115  1.00  0.00    -0.190 C  
HETATM   19  O   UNL     1      -9.608  11.144  67.019  1.00  0.00    -0.178 OA 
BRANCH  18  20
HETATM   20  O   UNL     1      -9.202  12.955  68.362  1.00  0.00    -0.198 OA 
BRANCH  20  21
HETATM   21  C   UNL     1      -9.375  13.880  67.274  1.00  0.00    -0.231 C  
HETATM   22  C   UNL     1     -10.542  14.868  67.456  1.00  0.00    -0.266 C  
HETATM   23  C   UNL     1     -10.428  15.679  68.766  1.00  0.00    -0.225 C  
HETATM   24  C   UNL     1     -10.693  15.799  66.231  1.00  0.00    -0.282 C  
HETATM   25  C   UNL     1      -9.228  16.613  68.850  1.00  0.00    -0.244 C  
BRANCH  24  26
HETATM   26  C   UNL     1     -10.933  15.054  64.914  1.00  0.00    -0.427 C  
BRANCH  26  27
HETATM   27  C   UNL     1     -12.269  14.309  64.925  1.00  0.00    -0.449 C  
HETATM   28  C   UNL     1     -12.064  12.824  64.658  1.00  0.00    -0.483 C  
ENDBRANCH  26  27
ENDBRANCH  24  26
ENDBRANCH  20  21
ENDBRANCH  18  20
ENDBRANCH  13  18
ENDBRANCH  12  13
ENDBRANCH  10  12
ENDBRANCH   9  10
ENDBRANCH   7   9
ENDBRANCH   3   4
ENDBRANCH   2   3
TORSDOF 11
ENDMDL
MODEL      145
REMARK 921   NORMALIZED FREE ENERGY PREDICTED BY IDOCK:   -3.95 KCAL/MOL
REMARK 922        TOTAL FREE ENERGY PREDICTED BY IDOCK:   -8.74 KCAL/MOL
REMARK 923 INTER-LIGAND FREE ENERGY PREDICTED BY IDOCK:   -8.28 KCAL/MOL
REMARK 924 INTRA-LIGAND FREE ENERGY PREDICTED BY IDOCK:   -0.45 KCAL/MOL
REMARK 927      BINDING AFFINITY PREDICTED BY RF-SCORE:    0.00 PKD
ROOT
HETATM    1  C   UNL     1      -6.128  20.574  68.811  1.00  0.00    -0.373 C  
HETATM    2  C   UNL     1      -7.290  20.535  67.827  1.00  0.00    -0.302 C  
ENDROOT
BRANCH   2   3
HETATM    3  C   UNL     1      -6.936  19.704  66.594  1.00  0.00    -0.216 C  
BRANCH   3   4
HETATM    4  C   UNL     1      -8.120  18.863  66.103  1.00  0.00    -0.241 C  
HETATM    5  C   UNL     1      -8.224  17.486  66.795  1.00  0.00    -0.273 C  
HETATM    6  C   UNL     1      -8.285  17.552  68.338  1.00  0.00    -0.278 C  
HETATM    7  C   UNL     1      -9.404  16.681  66.209  1.00  0.00    -0.292 C  
HETATM    8  C   UNL     1      -9.551  18.183  68.900  1.00  0.00    -0.247 C  
BRANCH   7   9
HETATM    9  O   UNL     1      -9.490  15.418  66.894  1.00  0.00    -0.215 OA 
BRANCH   9  10
HETATM   10  C   UNL     1     -10.747  14.949  67.114  1.00  0.00    -0.296 C  
HETATM   11  O   UNL     1     -11.297  14.904  68.205  1.00  0.00    -0.285 OA 
BRANCH  10  12
HETATM   12  C   UNL     1     -11.460  14.674  65.817  1.00  0.00    -0.338 C  
BRANCH  12  13
HETATM   13  C   UNL     1     -10.873  13.510  65.024  1.00  0.00    -0.340 C  
HETATM   14  O   UNL     1     -13.259  12.365  64.882  1.00  0.00    -0.714 OA 
HETATM   15  S   UNL     1     -12.110  12.684  64.072  1.00  0.00    -0.496 S  
HETATM   16  O   UNL     1     -12.518  13.929  63.125  1.00  0.00    -0.766 OA 
HETATM   17  O   UNL     1     -11.501  11.730  63.173  1.00  0.00    -0.290 OA 
BRANCH  13  18
HETATM   18  C   UNL     1     -10.261  12.504  65.946  1.00  0.00    -0.261 C  
HETATM   19  O   UNL     1      -9.067  12.237  65.977  1.00  0.00    -0.146 OA 
BRANCH  18  20
HETATM   20  O   UNL     1     -11.226  11.803  66.605  1.00  0.00    -0.301 OA 
BRANCH  20  21
HETATM   21  C   UNL     1     -10.747  10.695  67.387  1.00  0.00    -0.276 C  
HETATM   22  C   UNL     1     -10.330  11.060  68.824  1.00  0.00    -0.217 C  
HETATM   23  C   UNL     1     -11.469  11.747  69.610  1.00  0.00    -0.341 C  
HETATM   24  C   UNL     1      -9.785   9.830  69.586  1.00  0.00    -0.242 C  
HETATM   25  C   UNL     1     -12.698  10.883  69.862  1.00  0.00    -0.110 C  
BRANCH  24  26
HETATM   26  C   UNL     1      -8.572   9.177  68.917  1.00  0.00    -0.131 C  
BRANCH  26  27
HETATM   27  C   UNL     1      -8.871   7.741  68.489  1.00  0.00    -0.130 C  
HETATM   28  C   UNL     1      -9.198   7.674  67.002  1.00  0.00    -0.168 C  
ENDBRANCH  26  27
ENDBRANCH  24  26
ENDBRANCH  20  21
ENDBRANCH  18  20
ENDBRANCH  13  18
ENDBRANCH  12  13
ENDBRANCH  10  12
ENDBRANCH   9  10
ENDBRANCH   7   9
ENDBRANCH   3   4
ENDBRANCH   2   3
TORSDOF 11
ENDMDL
MODEL      146
REMARK 921   NORMALIZED FREE ENERGY PREDICTED BY IDOCK:   -3.94 KCAL/MOL
REMARK 922        TOTAL FREE ENERGY PREDICTED BY IDOCK:   -8.73 KCAL/MOL
REMARK 923 INTER-LIGAND FREE ENERGY PREDICTED BY IDOCK:   -7.27 KCAL/MOL
REMARK 924 INTRA-LIGAND FREE ENERGY PREDICTED BY IDOCK:   -1.46 KCAL/MOL
REMARK 927      BINDING AFFINITY PREDICTED BY RF-SCORE:    0.00 PKD
ROOT
HETATM    1  C   UNL     1     -10.520   3.589  63.856  1.00  0.00    -0.266 C  
HETATM    2  C   UNL     1      -9.682   3.624  65.127  1.00  0.00    -0.157 C  
ENDROOT
BRANCH   2   3
HETATM    3  C   UNL     1      -9.292   5.057  65.488  1.00  0.00    -0.149 C  
BRANCH   3   4
HETATM    4  C   UNL     1      -9.939   5.520  66.799  1.00  0.00    -0.210 C  
HETATM    5  C   UNL     1      -9.097   6.566  67.562  1.00  0.00    -0.115 C  
HETATM    6  C   UNL     1      -8.733   7.820  66.733  1.00  0.00    -0.143 C  
HETATM    7  C   UNL     1      -9.786   6.941  68.892  1.00  0.00    -0.147 C  
HETATM    8  C   UNL     1      -9.914   8.706  66.365  1.00  0.00    -0.331 C  
BRANCH   7   9
HETATM    9  O   UNL     1      -8.992   7.936  69.563  1.00  0.00    -0.141 OA 
BRANCH   9  10
HETATM   10  C   UNL     1      -9.659   8.733  70.439  1.00  0.00    -0.182 C  
HETATM   11  O   UNL     1      -9.205   9.150  71.494  1.00  0.00    -0.290 OA 
BRANCH  10  12
HETATM   12  C   UNL     1     -10.964   9.209  69.855  1.00  0.00    -0.218 C  
BRANCH  12  13
HETATM   13  C   UNL     1     -11.456  10.531  70.438  1.00  0.00    -0.341 C  
HETATM   14  O   UNL     1     -13.919   9.567  70.621  1.00  0.00     0.047 OA 
HETATM   15  S   UNL     1     -12.941  10.316  71.370  1.00  0.00    -0.459 S  
HETATM   16  O   UNL     1     -12.342   9.330  72.503  1.00  0.00    -0.252 OA 
HETATM   17  O   UNL     1     -13.268  11.530  72.083  1.00  0.00    -0.505 OA 
BRANCH  13  18
HETATM   18  C   UNL     1     -11.742  11.511  69.345  1.00  0.00    -0.346 C  
HETATM   19  O   UNL     1     -12.131  11.199  68.228  1.00  0.00    -0.620 OA 
BRANCH  18  20
HETATM   20  O   UNL     1     -11.336  12.762  69.701  1.00  0.00    -0.204 OA 
BRANCH  20  21
HETATM   21  C   UNL     1     -11.228  13.698  68.614  1.00  0.00    -0.277 C  
HETATM   22  C   UNL     1      -9.828  14.316  68.441  1.00  0.00    -0.233 C  
HETATM   23  C   UNL     1      -8.729  13.244  68.267  1.00  0.00    -0.168 C  
HETATM   24  C   UNL     1      -9.799  15.342  67.284  1.00  0.00    -0.220 C  
HETATM   25  C   UNL     1      -8.841  12.397  67.007  1.00  0.00    -0.210 C  
BRANCH  24  26
HETATM   26  C   UNL     1     -10.786  16.500  67.462  1.00  0.00    -0.283 C  
BRANCH  26  27
HETATM   27  C   UNL     1     -10.277  17.779  66.795  1.00  0.00    -0.351 C  
HETATM   28  C   UNL     1     -10.888  19.012  67.448  1.00  0.00    -0.496 C  
ENDBRANCH  26  27
ENDBRANCH  24  26
ENDBRANCH  20  21
ENDBRANCH  18  20
ENDBRANCH  13  18
ENDBRANCH  12  13
ENDBRANCH  10  12
ENDBRANCH   9  10
ENDBRANCH   7   9
ENDBRANCH   3   4
ENDBRANCH   2   3
TORSDOF 11
ENDMDL
MODEL      147
REMARK 921   NORMALIZED FREE ENERGY PREDICTED BY IDOCK:   -3.94 KCAL/MOL
REMARK 922        TOTAL FREE ENERGY PREDICTED BY IDOCK:   -8.72 KCAL/MOL
REMARK 923 INTER-LIGAND FREE ENERGY PREDICTED BY IDOCK:   -7.32 KCAL/MOL
REMARK 924 INTRA-LIGAND FREE ENERGY PREDICTED BY IDOCK:   -1.40 KCAL/MOL
REMARK 927      BINDING AFFINITY PREDICTED BY RF-SCORE:    0.00 PKD
ROOT
HETATM    1  C   UNL     1     -10.721   4.570  73.813  1.00  0.00    -0.348 C  
HETATM    2  C   UNL     1     -10.837   4.741  72.305  1.00  0.00    -0.131 C  
ENDROOT
BRANCH   2   3
HETATM    3  C   UNL     1      -9.907   5.845  71.804  1.00  0.00    -0.192 C  
BRANCH   3   4
HETATM    4  C   UNL     1     -10.613   6.805  70.839  1.00  0.00    -0.252 C  
HETATM    5  C   UNL     1     -10.712   8.251  71.374  1.00  0.00    -0.282 C  
HETATM    6  C   UNL     1      -9.356   8.877  71.773  1.00  0.00    -0.304 C  
HETATM    7  C   UNL     1     -11.480   9.140  70.373  1.00  0.00    -0.194 C  
HETATM    8  C   UNL     1      -8.405   9.131  70.612  1.00  0.00    -0.239 C  
BRANCH   7   9
HETATM    9  O   UNL     1     -11.531  10.483  70.887  1.00  0.00    -0.328 OA 
BRANCH   9  10
HETATM   10  C   UNL     1     -12.746  10.904  71.325  1.00  0.00    -0.437 C  
HETATM   11  O   UNL     1     -13.385  10.385  72.228  1.00  0.00    -0.396 OA 
BRANCH  10  12
HETATM   12  C   UNL     1     -13.126  12.217  70.693  1.00  0.00     0.301 C  
BRANCH  12  13
HETATM   13  C   UNL     1     -12.047  13.291  70.803  1.00  0.00    -0.226 C  
HETATM   14  O   UNL     1     -13.899  15.162  71.119  1.00  0.00    -0.448 OA 
HETATM   15  S   UNL     1     -12.637  14.719  71.658  1.00  0.00    -0.349 S  
HETATM   16  O   UNL     1     -12.943  14.007  73.077  1.00  0.00    -0.452 OA 
HETATM   17  O   UNL     1     -11.547  15.627  71.936  1.00  0.00    -0.401 OA 
BRANCH  13  18
HETATM   18  C   UNL     1     -11.602  13.727  69.443  1.00  0.00    -0.310 C  
HETATM   19  O   UNL     1     -12.322  14.296  68.634  1.00  0.00    -0.231 OA 
BRANCH  18  20
HETATM   20  O   UNL     1     -10.358  13.244  69.166  1.00  0.00    -0.037 OA 
BRANCH  20  21
HETATM   21  C   UNL     1     -10.312  12.237  68.140  1.00  0.00    -0.216 C  
HETATM   22  C   UNL     1      -9.428  12.596  66.931  1.00  0.00    -0.229 C  
HETATM   23  C   UNL     1      -7.977  12.931  67.342  1.00  0.00    -0.178 C  
HETATM   24  C   UNL     1      -9.464  11.488  65.853  1.00  0.00    -0.251 C  
HETATM   25  C   UNL     1      -7.194  11.779  67.957  1.00  0.00    -0.084 C  
BRANCH  24  26
HETATM   26  C   UNL     1     -10.868  11.196  65.314  1.00  0.00    -0.222 C  
BRANCH  26  27
HETATM   27  C   UNL     1     -11.538  12.460  64.774  1.00  0.00    -0.395 C  
HETATM   28  C   UNL     1     -12.713  12.108  63.872  1.00  0.00    -0.487 C  
ENDBRANCH  26  27
ENDBRANCH  24  26
ENDBRANCH  20  21
ENDBRANCH  18  20
ENDBRANCH  13  18
ENDBRANCH  12  13
ENDBRANCH  10  12
ENDBRANCH   9  10
ENDBRANCH   7   9
ENDBRANCH   3   4
ENDBRANCH   2   3
TORSDOF 11
ENDMDL
MODEL      148
REMARK 921   NORMALIZED FREE ENERGY PREDICTED BY IDOCK:   -3.93 KCAL/MOL
REMARK 922        TOTAL FREE ENERGY PREDICTED BY IDOCK:   -8.70 KCAL/MOL
REMARK 923 INTER-LIGAND FREE ENERGY PREDICTED BY IDOCK:   -8.04 KCAL/MOL
REMARK 924 INTRA-LIGAND FREE ENERGY PREDICTED BY IDOCK:   -0.67 KCAL/MOL
REMARK 927      BINDING AFFINITY PREDICTED BY RF-SCORE:    0.00 PKD
ROOT
HETATM    1  C   UNL     1     -11.312   5.010  73.089  1.00  0.00    -0.397 C  
HETATM    2  C   UNL     1      -9.843   4.932  72.698  1.00  0.00    -0.200 C  
ENDROOT
BRANCH   2   3
HETATM    3  C   UNL     1      -9.688   4.621  71.210  1.00  0.00    -0.251 C  
BRANCH   3   4
HETATM    4  C   UNL     1     -10.263   5.731  70.322  1.00  0.00    -0.295 C  
HETATM    5  C   UNL     1      -9.712   7.134  70.660  1.00  0.00    -0.175 C  
HETATM    6  C   UNL     1      -8.170   7.239  70.625  1.00  0.00    -0.116 C  
HETATM    7  C   UNL     1     -10.378   8.200  69.763  1.00  0.00    -0.216 C  
HETATM    8  C   UNL     1      -7.551   7.080  69.244  1.00  0.00    -0.096 C  
BRANCH   7   9
HETATM    9  O   UNL     1      -9.823   9.489  70.083  1.00  0.00    -0.212 OA 
BRANCH   9  10
HETATM   10  C   UNL     1      -9.416  10.237  69.024  1.00  0.00    -0.200 C  
HETATM   11  O   UNL     1      -8.555  11.104  69.067  1.00  0.00    -0.125 OA 
BRANCH  10  12
HETATM   12  C   UNL     1     -10.017   9.732  67.739  1.00  0.00    -0.206 C  
BRANCH  12  13
HETATM   13  C   UNL     1     -11.155  10.598  67.206  1.00  0.00    -0.243 C  
HETATM   14  O   UNL     1      -9.411  12.311  66.180  1.00  0.00    -0.239 OA 
HETATM   15  S   UNL     1     -10.626  11.606  65.856  1.00  0.00    -0.279 S  
HETATM   16  O   UNL     1     -10.235  10.412  64.838  1.00  0.00    -0.338 OA 
HETATM   17  O   UNL     1     -11.761  12.253  65.235  1.00  0.00    -0.362 OA 
BRANCH  13  18
HETATM   18  C   UNL     1     -11.668  11.506  68.278  1.00  0.00    -0.301 C  
HETATM   19  O   UNL     1     -12.524  11.191  69.094  1.00  0.00    -0.418 OA 
BRANCH  18  20
HETATM   20  O   UNL     1     -11.193  12.772  68.106  1.00  0.00    -0.239 OA 
BRANCH  20  21
HETATM   21  C   UNL     1     -11.997  13.808  68.698  1.00  0.00    -0.366 C  
HETATM   22  C   UNL     1     -11.251  14.693  69.713  1.00  0.00    -0.296 C  
HETATM   23  C   UNL     1      -9.990  15.349  69.107  1.00  0.00    -0.241 C  
HETATM   24  C   UNL     1     -12.188  15.753  70.339  1.00  0.00    -0.388 C  
HETATM   25  C   UNL     1     -10.250  16.338  67.979  1.00  0.00    -0.256 C  
BRANCH  24  26
HETATM   26  C   UNL     1     -13.397  15.155  71.065  1.00  0.00    -0.504 C  
BRANCH  26  27
HETATM   27  C   UNL     1     -12.973  14.327  72.277  1.00  0.00    -0.460 C  
HETATM   28  C   UNL     1     -13.390  12.871  72.114  1.00  0.00    -0.615 C  
ENDBRANCH  26  27
ENDBRANCH  24  26
ENDBRANCH  20  21
ENDBRANCH  18  20
ENDBRANCH  13  18
ENDBRANCH  12  13
ENDBRANCH  10  12
ENDBRANCH   9  10
ENDBRANCH   7   9
ENDBRANCH   3   4
ENDBRANCH   2   3
TORSDOF 11
ENDMDL
MODEL      149
REMARK 921   NORMALIZED FREE ENERGY PREDICTED BY IDOCK:   -3.92 KCAL/MOL
REMARK 922        TOTAL FREE ENERGY PREDICTED BY IDOCK:   -8.70 KCAL/MOL
REMARK 923 INTER-LIGAND FREE ENERGY PREDICTED BY IDOCK:   -7.09 KCAL/MOL
REMARK 924 INTRA-LIGAND FREE ENERGY PREDICTED BY IDOCK:   -1.61 KCAL/MOL
REMARK 927      BINDING AFFINITY PREDICTED BY RF-SCORE:    0.00 PKD
ROOT
HETATM    1  C   UNL     1     -12.270  14.375  64.252  1.00  0.00    -0.450 C  
HETATM    2  C   UNL     1     -12.876  13.910  65.569  1.00  0.00    -0.471 C  
ENDROOT
BRANCH   2   3
HETATM    3  C   UNL     1     -11.922  14.173  66.734  1.00  0.00    -0.475 C  
BRANCH   3   4
HETATM    4  C   UNL     1     -11.746  12.940  67.629  1.00  0.00    -0.422 C  
HETATM    5  C   UNL     1     -11.238  11.697  66.866  1.00  0.00    -0.376 C  
HETATM    6  C   UNL     1      -9.922  11.920  66.087  1.00  0.00    -0.254 C  
HETATM    7  C   UNL     1     -11.138  10.488  67.821  1.00  0.00    -0.317 C  
HETATM    8  C   UNL     1      -8.698  12.166  66.958  1.00  0.00    -0.190 C  
BRANCH   7   9
HETATM    9  O   UNL     1     -10.637   9.356  67.087  1.00  0.00    -0.260 OA 
BRANCH   9  10
HETATM   10  C   UNL     1     -10.627   8.173  67.757  1.00  0.00    -0.165 C  
HETATM   11  O   UNL     1     -10.948   7.095  67.279  1.00  0.00    -0.310 OA 
BRANCH  10  12
HETATM   12  C   UNL     1      -9.981   8.319  69.109  1.00  0.00    -0.196 C  
BRANCH  12  13
HETATM   13  C   UNL     1     -10.776   7.684  70.246  1.00  0.00    -0.239 C  
HETATM   14  O   UNL     1      -9.273   8.935  72.036  1.00  0.00    -0.348 OA 
HETATM   15  S   UNL     1     -10.649   8.627  71.733  1.00  0.00    -0.351 S  
HETATM   16  O   UNL     1     -11.336   9.984  71.185  1.00  0.00    -0.360 OA 
HETATM   17  O   UNL     1     -11.573   8.129  72.727  1.00  0.00    -0.411 OA 
BRANCH  13  18
HETATM   18  C   UNL     1     -10.268   6.307  70.535  1.00  0.00    -0.193 C  
HETATM   19  O   UNL     1     -10.870   5.479  71.205  1.00  0.00    -0.242 OA 
BRANCH  18  20
HETATM   20  O   UNL     1      -8.979   6.170  70.113  1.00  0.00    -0.145 OA 
BRANCH  20  21
HETATM   21  C   UNL     1      -8.740   5.045  69.249  1.00  0.00    -0.091 C  
HETATM   22  C   UNL     1      -8.020   5.392  67.933  1.00  0.00    -0.096 C  
HETATM   23  C   UNL     1      -6.675   6.113  68.170  1.00  0.00    -0.064 C  
HETATM   24  C   UNL     1      -7.838   4.143  67.039  1.00  0.00    -0.096 C  
HETATM   25  C   UNL     1      -5.613   5.288  68.885  1.00  0.00    -0.014 C  
BRANCH  24  26
HETATM   26  C   UNL     1      -9.154   3.453  66.666  1.00  0.00    -0.178 C  
BRANCH  26  27
HETATM   27  C   UNL     1      -9.903   4.223  65.578  1.00  0.00    -0.221 C  
HETATM   28  C   UNL     1      -9.001   4.485  64.379  1.00  0.00    -0.152 C  
ENDBRANCH  26  27
ENDBRANCH  24  26
ENDBRANCH  20  21
ENDBRANCH  18  20
ENDBRANCH  13  18
ENDBRANCH  12  13
ENDBRANCH  10  12
ENDBRANCH   9  10
ENDBRANCH   7   9
ENDBRANCH   3   4
ENDBRANCH   2   3
TORSDOF 11
ENDMDL
MODEL      150
REMARK 921   NORMALIZED FREE ENERGY PREDICTED BY IDOCK:   -3.92 KCAL/MOL
REMARK 922        TOTAL FREE ENERGY PREDICTED BY IDOCK:   -8.69 KCAL/MOL
REMARK 923 INTER-LIGAND FREE ENERGY PREDICTED BY IDOCK:   -6.78 KCAL/MOL
REMARK 924 INTRA-LIGAND FREE ENERGY PREDICTED BY IDOCK:   -1.92 KCAL/MOL
REMARK 927      BINDING AFFINITY PREDICTED BY RF-SCORE:    0.00 PKD
ROOT
HETATM    1  C   UNL     1      -9.063   4.084  69.854  1.00  0.00    -0.185 C  
HETATM    2  C   UNL     1     -10.227   5.063  69.904  1.00  0.00    -0.340 C  
ENDROOT
BRANCH   2   3
HETATM    3  C   UNL     1     -10.299   5.761  71.262  1.00  0.00    -0.281 C  
BRANCH   3   4
HETATM    4  C   UNL     1      -9.410   7.009  71.320  1.00  0.00    -0.160 C  
HETATM    5  C   UNL     1      -9.846   8.118  70.337  1.00  0.00    -0.188 C  
HETATM    6  C   UNL     1     -11.318   8.566  70.493  1.00  0.00    -0.235 C  
HETATM    7  C   UNL     1      -8.874   9.315  70.417  1.00  0.00    -0.234 C  
HETATM    8  C   UNL     1     -11.632   9.283  71.798  1.00  0.00    -0.458 C  
BRANCH   7   9
HETATM    9  O   UNL     1      -9.324  10.340  69.512  1.00  0.00    -0.213 OA 
BRANCH   9  10
HETATM   10  C   UNL     1      -8.386  10.829  68.659  1.00  0.00    -0.141 C  
HETATM   11  O   UNL     1      -8.061  12.004  68.572  1.00  0.00    -0.151 OA 
BRANCH  10  12
HETATM   12  C   UNL     1      -7.647   9.714  67.967  1.00  0.00    -0.083 C  
BRANCH  12  13
HETATM   13  C   UNL     1      -8.385   9.139  66.762  1.00  0.00    -0.123 C  
HETATM   14  O   UNL     1      -6.299   7.612  66.175  1.00  0.00    -0.041 OA 
HETATM   15  S   UNL     1      -7.735   7.565  66.293  1.00  0.00    -0.092 S  
HETATM   16  O   UNL     1      -8.081   6.775  67.661  1.00  0.00    -0.114 OA 
HETATM   17  O   UNL     1      -8.579   6.947  65.295  1.00  0.00    -0.105 OA 
BRANCH  13  18
HETATM   18  C   UNL     1      -8.259  10.052  65.584  1.00  0.00    -0.143 C  
HETATM   19  O   UNL     1      -7.252  10.695  65.319  1.00  0.00    -0.090 OA 
BRANCH  18  20
HETATM   20  O   UNL     1      -9.462  10.210  64.964  1.00  0.00    -0.225 OA 
BRANCH  20  21
HETATM   21  C   UNL     1     -10.478  10.843  65.762  1.00  0.00    -0.210 C  
HETATM   22  C   UNL     1     -10.654  12.349  65.495  1.00  0.00    -0.307 C  
HETATM   23  C   UNL     1     -10.949  12.652  64.009  1.00  0.00    -0.448 C  
HETATM   24  C   UNL     1     -11.729  12.968  66.418  1.00  0.00    -0.444 C  
HETATM   25  C   UNL     1     -12.266  12.097  63.482  1.00  0.00    -0.670 C  
BRANCH  24  26
HETATM   26  C   UNL     1     -11.427  12.807  67.911  1.00  0.00    -0.365 C  
BRANCH  26  27
HETATM   27  C   UNL     1     -12.015  13.956  68.731  1.00  0.00    -0.393 C  
HETATM   28  C   UNL     1     -11.307  15.266  68.415  1.00  0.00    -0.338 C  
ENDBRANCH  26  27
ENDBRANCH  24  26
ENDBRANCH  20  21
ENDBRANCH  18  20
ENDBRANCH  13  18
ENDBRANCH  12  13
ENDBRANCH  10  12
ENDBRANCH   9  10
ENDBRANCH   7   9
ENDBRANCH   3   4
ENDBRANCH   2   3
TORSDOF 11
ENDMDL
MODEL      151
REMARK 921   NORMALIZED FREE ENERGY PREDICTED BY IDOCK:   -3.92 KCAL/MOL
REMARK 922        TOTAL FREE ENERGY PREDICTED BY IDOCK:   -8.68 KCAL/MOL
REMARK 923 INTER-LIGAND FREE ENERGY PREDICTED BY IDOCK:   -7.86 KCAL/MOL
REMARK 924 INTRA-LIGAND FREE ENERGY PREDICTED BY IDOCK:   -0.82 KCAL/MOL
REMARK 927      BINDING AFFINITY PREDICTED BY RF-SCORE:    0.00 PKD
ROOT
HETATM    1  C   UNL     1     -10.226   8.507  71.954  1.00  0.00    -0.369 C  
HETATM    2  C   UNL     1     -11.456   9.376  71.727  1.00  0.00    -0.413 C  
ENDROOT
BRANCH   2   3
HETATM    3  C   UNL     1     -11.767   9.507  70.237  1.00  0.00    -0.168 C  
BRANCH   3   4
HETATM    4  C   UNL     1     -12.364  10.876  69.888  1.00  0.00    -0.354 C  
HETATM    5  C   UNL     1     -11.309  11.903  69.421  1.00  0.00    -0.327 C  
HETATM    6  C   UNL     1     -10.446  11.434  68.227  1.00  0.00    -0.221 C  
HETATM    7  C   UNL     1     -11.978  13.266  69.141  1.00  0.00    -0.296 C  
HETATM    8  C   UNL     1     -11.203  11.275  66.916  1.00  0.00    -0.300 C  
BRANCH   7   9
HETATM    9  O   UNL     1     -10.975  14.191  68.682  1.00  0.00    -0.241 OA 
BRANCH   9  10
HETATM   10  C   UNL     1     -10.495  15.055  69.615  1.00  0.00    -0.213 C  
HETATM   11  O   UNL     1     -10.988  15.242  70.717  1.00  0.00    -0.313 OA 
BRANCH  10  12
HETATM   12  C   UNL     1      -9.158  15.612  69.202  1.00  0.00    -0.256 C  
BRANCH  12  13
HETATM   13  C   UNL     1      -9.243  16.689  68.124  1.00  0.00    -0.220 C  
HETATM   14  O   UNL     1      -6.953  15.862  67.075  1.00  0.00    -0.205 OA 
HETATM   15  S   UNL     1      -8.288  16.261  66.702  1.00  0.00    -0.309 S  
HETATM   16  O   UNL     1      -9.096  14.920  66.297  1.00  0.00    -0.282 OA 
HETATM   17  O   UNL     1      -8.552  17.183  65.621  1.00  0.00    -0.470 OA 
BRANCH  13  18
HETATM   18  C   UNL     1      -8.727  17.993  68.644  1.00  0.00    -0.262 C  
HETATM   19  O   UNL     1      -9.224  19.081  68.387  1.00  0.00    -0.323 OA 
BRANCH  18  20
HETATM   20  O   UNL     1      -7.534  17.819  69.282  1.00  0.00    -0.141 OA 
BRANCH  20  21
HETATM   21  C   UNL     1      -6.474  18.681  68.832  1.00  0.00    -0.245 C  
HETATM   22  C   UNL     1      -6.486  20.088  69.458  1.00  0.00    -0.370 C  
HETATM   23  C   UNL     1      -6.451  20.045  71.002  1.00  0.00    -0.032 C  
HETATM   24  C   UNL     1      -5.348  20.970  68.895  1.00  0.00    -0.374 C  
HETATM   25  C   UNL     1      -5.183  19.457  71.607  1.00  0.00    -0.398 C  
BRANCH  24  26
HETATM   26  C   UNL     1      -5.402  21.152  67.376  1.00  0.00    -0.326 C  
BRANCH  26  27
HETATM   27  C   UNL     1      -6.842  21.268  66.874  1.00  0.00    -0.239 C  
HETATM   28  C   UNL     1      -7.028  20.497  65.574  1.00  0.00    -0.198 C  
ENDBRANCH  26  27
ENDBRANCH  24  26
ENDBRANCH  20  21
ENDBRANCH  18  20
ENDBRANCH  13  18
ENDBRANCH  12  13
ENDBRANCH  10  12
ENDBRANCH   9  10
ENDBRANCH   7   9
ENDBRANCH   3   4
ENDBRANCH   2   3
TORSDOF 11
ENDMDL
MODEL      152
REMARK 921   NORMALIZED FREE ENERGY PREDICTED BY IDOCK:   -3.92 KCAL/MOL
REMARK 922        TOTAL FREE ENERGY PREDICTED BY IDOCK:   -8.68 KCAL/MOL
REMARK 923 INTER-LIGAND FREE ENERGY PREDICTED BY IDOCK:   -7.30 KCAL/MOL
REMARK 924 INTRA-LIGAND FREE ENERGY PREDICTED BY IDOCK:   -1.38 KCAL/MOL
REMARK 927      BINDING AFFINITY PREDICTED BY RF-SCORE:    0.00 PKD
ROOT
HETATM    1  C   UNL     1     -10.130  14.703  65.509  1.00  0.00    -0.405 C  
HETATM    2  C   UNL     1     -10.912  13.980  64.422  1.00  0.00    -0.280 C  
ENDROOT
BRANCH   2   3
HETATM    3  C   UNL     1     -10.345  12.582  64.176  1.00  0.00    -0.416 C  
BRANCH   3   4
HETATM    4  C   UNL     1     -10.222  11.771  65.471  1.00  0.00    -0.291 C  
HETATM    5  C   UNL     1     -10.200  10.244  65.239  1.00  0.00    -0.308 C  
HETATM    6  C   UNL     1      -9.102   9.764  64.262  1.00  0.00    -0.293 C  
HETATM    7  C   UNL     1     -10.128   9.499  66.589  1.00  0.00    -0.252 C  
HETATM    8  C   UNL     1      -7.677   9.935  64.767  1.00  0.00    -0.138 C  
BRANCH   7   9
HETATM    9  O   UNL     1     -10.081   8.083  66.337  1.00  0.00    -0.227 OA 
BRANCH   9  10
HETATM   10  C   UNL     1      -9.323   7.354  67.198  1.00  0.00    -0.142 C  
HETATM   11  O   UNL     1      -8.175   6.991  66.988  1.00  0.00    -0.115 OA 
BRANCH  10  12
HETATM   12  C   UNL     1     -10.002   7.214  68.535  1.00  0.00    -0.163 C  
BRANCH  12  13
HETATM   13  C   UNL     1      -9.068   7.407  69.726  1.00  0.00    -0.141 C  
HETATM   14  O   UNL     1     -10.425   5.607  71.121  1.00  0.00    -0.221 OA 
HETATM   15  S   UNL     1      -9.077   6.000  70.793  1.00  0.00    -0.154 S  
HETATM   16  O   UNL     1      -8.505   4.923  69.731  1.00  0.00    -0.082 OA 
HETATM   17  O   UNL     1      -8.035   6.115  71.788  1.00  0.00    -0.101 OA 
BRANCH  13  18
HETATM   18  C   UNL     1      -9.488   8.594  70.534  1.00  0.00    -0.178 C  
HETATM   19  O   UNL     1      -8.734   9.238  71.251  1.00  0.00    -0.301 OA 
BRANCH  18  20
HETATM   20  O   UNL     1     -10.843   8.741  70.508  1.00  0.00    -0.221 OA 
BRANCH  20  21
HETATM   21  C   UNL     1     -11.332   9.962  71.087  1.00  0.00    -0.370 C  
HETATM   22  C   UNL     1     -12.800  10.286  70.750  1.00  0.00    -0.427 C  
HETATM   23  C   UNL     1     -13.761   9.144  71.148  1.00  0.00    -0.161 C  
HETATM   24  C   UNL     1     -13.241  11.632  71.370  1.00  0.00    -0.207 C  
HETATM   25  C   UNL     1     -13.851   8.861  72.642  1.00  0.00    -0.393 C  
BRANCH  24  26
HETATM   26  C   UNL     1     -12.399  12.827  70.913  1.00  0.00    -0.356 C  
BRANCH  26  27
HETATM   27  C   UNL     1     -12.544  14.014  71.866  1.00  0.00    -0.347 C  
HETATM   28  C   UNL     1     -13.965  14.109  72.404  1.00  0.00    -0.613 C  
ENDBRANCH  26  27
ENDBRANCH  24  26
ENDBRANCH  20  21
ENDBRANCH  18  20
ENDBRANCH  13  18
ENDBRANCH  12  13
ENDBRANCH  10  12
ENDBRANCH   9  10
ENDBRANCH   7   9
ENDBRANCH   3   4
ENDBRANCH   2   3
TORSDOF 11
ENDMDL
MODEL      153
REMARK 921   NORMALIZED FREE ENERGY PREDICTED BY IDOCK:   -3.91 KCAL/MOL
REMARK 922        TOTAL FREE ENERGY PREDICTED BY IDOCK:   -8.68 KCAL/MOL
REMARK 923 INTER-LIGAND FREE ENERGY PREDICTED BY IDOCK:   -7.98 KCAL/MOL
REMARK 924 INTRA-LIGAND FREE ENERGY PREDICTED BY IDOCK:   -0.70 KCAL/MOL
REMARK 927      BINDING AFFINITY PREDICTED BY RF-SCORE:    0.00 PKD
ROOT
HETATM    1  C   UNL     1     -12.360  15.080  73.803  1.00  0.00    -0.654 C  
HETATM    2  C   UNL     1     -13.524  15.728  73.065  1.00  0.00    -0.672 C  
ENDROOT
BRANCH   2   3
HETATM    3  C   UNL     1     -14.107  14.778  72.019  1.00  0.00    -0.604 C  
BRANCH   3   4
HETATM    4  C   UNL     1     -13.061  13.794  71.483  1.00  0.00    -0.435 C  
HETATM    5  C   UNL     1     -12.608  14.106  70.040  1.00  0.00    -0.268 C  
HETATM    6  C   UNL     1     -12.070  15.541  69.836  1.00  0.00    -0.378 C  
HETATM    7  C   UNL     1     -11.599  13.043  69.555  1.00  0.00    -0.276 C  
HETATM    8  C   UNL     1     -10.761  15.839  70.552  1.00  0.00    -0.253 C  
BRANCH   7   9
HETATM    9  O   UNL     1     -11.176  13.378  68.220  1.00  0.00    -0.251 OA 
BRANCH   9  10
HETATM   10  C   UNL     1     -11.697  12.612  67.225  1.00  0.00    -0.370 C  
HETATM   11  O   UNL     1     -12.384  13.031  66.305  1.00  0.00    -0.429 OA 
BRANCH  10  12
HETATM   12  C   UNL     1     -11.158  11.207  67.282  1.00  0.00    -0.366 C  
BRANCH  12  13
HETATM   13  C   UNL     1      -9.634  11.128  67.236  1.00  0.00    -0.165 C  
HETATM   14  O   UNL     1      -9.761   9.080  65.558  1.00  0.00    -0.203 OA 
HETATM   15  S   UNL     1      -9.069  10.327  65.767  1.00  0.00    -0.182 S  
HETATM   16  O   UNL     1      -9.661  11.391  64.703  1.00  0.00    -0.240 OA 
HETATM   17  O   UNL     1      -7.635  10.453  65.644  1.00  0.00    -0.144 OA 
BRANCH  13  18
HETATM   18  C   UNL     1      -9.115  10.352  68.405  1.00  0.00    -0.147 C  
HETATM   19  O   UNL     1      -7.929  10.246  68.687  1.00  0.00    -0.100 OA 
BRANCH  18  20
HETATM   20  O   UNL     1     -10.117   9.639  68.994  1.00  0.00    -0.172 OA 
BRANCH  20  21
HETATM   21  C   UNL     1     -10.393   8.365  68.386  1.00  0.00    -0.200 C  
HETATM   22  C   UNL     1      -9.979   7.149  69.235  1.00  0.00    -0.168 C  
HETATM   23  C   UNL     1     -10.624   7.164  70.639  1.00  0.00    -0.243 C  
HETATM   24  C   UNL     1     -10.265   5.819  68.500  1.00  0.00    -0.246 C  
HETATM   25  C   UNL     1     -12.142   7.041  70.657  1.00  0.00    -0.332 C  
BRANCH  24  26
HETATM   26  C   UNL     1      -9.550   5.693  67.152  1.00  0.00    -0.137 C  
BRANCH  26  27
HETATM   27  C   UNL     1      -8.605   4.491  67.126  1.00  0.00    -0.104 C  
HETATM   28  C   UNL     1      -9.290   3.250  67.684  1.00  0.00    -0.245 C  
ENDBRANCH  26  27
ENDBRANCH  24  26
ENDBRANCH  20  21
ENDBRANCH  18  20
ENDBRANCH  13  18
ENDBRANCH  12  13
ENDBRANCH  10  12
ENDBRANCH   9  10
ENDBRANCH   7   9
ENDBRANCH   3   4
ENDBRANCH   2   3
TORSDOF 11
ENDMDL
MODEL      154
REMARK 921   NORMALIZED FREE ENERGY PREDICTED BY IDOCK:   -3.91 KCAL/MOL
REMARK 922        TOTAL FREE ENERGY PREDICTED BY IDOCK:   -8.68 KCAL/MOL
REMARK 923 INTER-LIGAND FREE ENERGY PREDICTED BY IDOCK:   -7.08 KCAL/MOL
REMARK 924 INTRA-LIGAND FREE ENERGY PREDICTED BY IDOCK:   -1.60 KCAL/MOL
REMARK 927      BINDING AFFINITY PREDICTED BY RF-SCORE:    0.00 PKD
ROOT
HETATM    1  C   UNL     1      -8.839  10.846  62.371  1.00  0.00    -0.358 C  
HETATM    2  C   UNL     1      -8.822   9.366  62.727  1.00  0.00    -0.224 C  
ENDROOT
BRANCH   2   3
HETATM    3  C   UNL     1      -7.406   8.901  63.068  1.00  0.00    -0.097 C  
BRANCH   3   4
HETATM    4  C   UNL     1      -6.700   9.855  64.038  1.00  0.00    -0.126 C  
HETATM    5  C   UNL     1      -7.463  10.055  65.366  1.00  0.00    -0.139 C  
HETATM    6  C   UNL     1      -7.780   8.744  66.122  1.00  0.00    -0.101 C  
HETATM    7  C   UNL     1      -6.718  11.066  66.263  1.00  0.00    -0.103 C  
HETATM    8  C   UNL     1      -6.563   8.012  66.669  1.00  0.00    -0.056 C  
BRANCH   7   9
HETATM    9  O   UNL     1      -7.438  11.208  67.502  1.00  0.00    -0.096 OA 
BRANCH   9  10
HETATM   10  C   UNL     1      -7.878  12.461  67.791  1.00  0.00    -0.154 C  
HETATM   11  O   UNL     1      -7.285  13.494  67.513  1.00  0.00    -0.162 OA 
BRANCH  10  12
HETATM   12  C   UNL     1      -9.287  12.435  68.320  1.00  0.00    -0.199 C  
BRANCH  12  13
HETATM   13  C   UNL     1     -10.288  11.769  67.380  1.00  0.00    -0.204 C  
HETATM   14  O   UNL     1     -11.966  13.799  67.680  1.00  0.00    -0.358 OA 
HETATM   15  S   UNL     1     -11.392  12.948  66.667  1.00  0.00    -0.334 S  
HETATM   16  O   UNL     1     -10.289  13.821  65.872  1.00  0.00    -0.293 OA 
HETATM   17  O   UNL     1     -12.185  12.332  65.627  1.00  0.00    -0.605 OA 
BRANCH  13  18
HETATM   18  C   UNL     1     -11.111  10.762  68.119  1.00  0.00    -0.280 C  
HETATM   19  O   UNL     1     -12.208  10.998  68.609  1.00  0.00    -0.571 OA 
BRANCH  18  20
HETATM   20  O   UNL     1     -10.400   9.618  68.330  1.00  0.00    -0.186 OA 
BRANCH  20  21
HETATM   21  C   UNL     1     -10.314   9.202  69.704  1.00  0.00    -0.219 C  
HETATM   22  C   UNL     1     -10.890   7.801  69.984  1.00  0.00    -0.243 C  
HETATM   23  C   UNL     1     -10.237   6.710  69.107  1.00  0.00    -0.201 C  
HETATM   24  C   UNL     1     -10.803   7.441  71.485  1.00  0.00    -0.247 C  
HETATM   25  C   UNL     1      -8.752   6.480  69.354  1.00  0.00    -0.134 C  
BRANCH  24  26
HETATM   26  C   UNL     1     -11.540   8.424  72.399  1.00  0.00    -0.450 C  
BRANCH  26  27
HETATM   27  C   UNL     1     -13.001   8.594  71.980  1.00  0.00    -0.419 C  
HETATM   28  C   UNL     1     -13.362  10.068  71.854  1.00  0.00    -0.516 C  
ENDBRANCH  26  27
ENDBRANCH  24  26
ENDBRANCH  20  21
ENDBRANCH  18  20
ENDBRANCH  13  18
ENDBRANCH  12  13
ENDBRANCH  10  12
ENDBRANCH   9  10
ENDBRANCH   7   9
ENDBRANCH   3   4
ENDBRANCH   2   3
TORSDOF 11
ENDMDL
MODEL      155
REMARK 921   NORMALIZED FREE ENERGY PREDICTED BY IDOCK:   -3.91 KCAL/MOL
REMARK 922        TOTAL FREE ENERGY PREDICTED BY IDOCK:   -8.67 KCAL/MOL
REMARK 923 INTER-LIGAND FREE ENERGY PREDICTED BY IDOCK:   -7.05 KCAL/MOL
REMARK 924 INTRA-LIGAND FREE ENERGY PREDICTED BY IDOCK:   -1.62 KCAL/MOL
REMARK 927      BINDING AFFINITY PREDICTED BY RF-SCORE:    0.00 PKD
ROOT
HETATM    1  C   UNL     1      -7.973  17.062  68.211  1.00  0.00    -0.222 C  
HETATM    2  C   UNL     1      -9.306  16.873  67.501  1.00  0.00    -0.232 C  
ENDROOT
BRANCH   2   3
HETATM    3  C   UNL     1     -10.394  16.440  68.484  1.00  0.00    -0.270 C  
BRANCH   3   4
HETATM    4  C   UNL     1     -11.544  15.703  67.787  1.00  0.00    -0.139 C  
HETATM    5  C   UNL     1     -11.158  14.292  67.292  1.00  0.00    -0.315 C  
HETATM    6  C   UNL     1     -10.585  13.366  68.389  1.00  0.00    -0.259 C  
HETATM    7  C   UNL     1     -12.348  13.639  66.557  1.00  0.00    -0.361 C  
HETATM    8  C   UNL     1     -11.581  12.962  69.467  1.00  0.00    -0.348 C  
BRANCH   7   9
HETATM    9  O   UNL     1     -11.965  12.318  66.134  1.00  0.00    -0.579 OA 
BRANCH   9  10
HETATM   10  C   UNL     1     -11.349  12.239  64.925  1.00  0.00    -0.325 C  
HETATM   11  O   UNL     1     -11.212  13.170  64.145  1.00  0.00    -0.372 OA 
BRANCH  10  12
HETATM   12  C   UNL     1     -10.675  10.904  64.745  1.00  0.00    -0.248 C  
BRANCH  12  13
HETATM   13  C   UNL     1      -9.166  10.939  64.970  1.00  0.00    -0.207 C  
HETATM   14  O   UNL     1      -8.848   8.860  63.355  1.00  0.00    -0.106 OA 
HETATM   15  S   UNL     1      -8.295  10.160  63.646  1.00  0.00    -0.178 S  
HETATM   16  O   UNL     1      -8.763  11.158  62.464  1.00  0.00    -0.287 OA 
HETATM   17  O   UNL     1      -6.874  10.391  63.772  1.00  0.00    -0.098 OA 
BRANCH  13  18
HETATM   18  C   UNL     1      -8.808  10.223  66.233  1.00  0.00    -0.146 C  
HETATM   19  O   UNL     1      -7.766  10.399  66.850  1.00  0.00    -0.106 OA 
BRANCH  18  20
HETATM   20  O   UNL     1      -9.704   9.230  66.496  1.00  0.00    -0.200 OA 
BRANCH  20  21
HETATM   21  C   UNL     1      -9.371   8.393  67.617  1.00  0.00    -0.137 C  
HETATM   22  C   UNL     1     -10.496   7.437  68.056  1.00  0.00    -0.253 C  
HETATM   23  C   UNL     1     -10.980   6.530  66.904  1.00  0.00    -0.408 C  
HETATM   24  C   UNL     1     -10.082   6.603  69.291  1.00  0.00    -0.187 C  
HETATM   25  C   UNL     1      -9.944   5.550  66.369  1.00  0.00    -0.203 C  
BRANCH  24  26
HETATM   26  C   UNL     1      -9.708   7.450  70.511  1.00  0.00    -0.175 C  
BRANCH  26  27
HETATM   27  C   UNL     1     -10.947   8.026  71.197  1.00  0.00    -0.271 C  
HETATM   28  C   UNL     1     -11.005   9.539  71.033  1.00  0.00    -0.424 C  
ENDBRANCH  26  27
ENDBRANCH  24  26
ENDBRANCH  20  21
ENDBRANCH  18  20
ENDBRANCH  13  18
ENDBRANCH  12  13
ENDBRANCH  10  12
ENDBRANCH   9  10
ENDBRANCH   7   9
ENDBRANCH   3   4
ENDBRANCH   2   3
TORSDOF 11
ENDMDL
MODEL      156
REMARK 921   NORMALIZED FREE ENERGY PREDICTED BY IDOCK:   -3.90 KCAL/MOL
REMARK 922        TOTAL FREE ENERGY PREDICTED BY IDOCK:   -8.66 KCAL/MOL
REMARK 923 INTER-LIGAND FREE ENERGY PREDICTED BY IDOCK:   -7.25 KCAL/MOL
REMARK 924 INTRA-LIGAND FREE ENERGY PREDICTED BY IDOCK:   -1.41 KCAL/MOL
REMARK 927      BINDING AFFINITY PREDICTED BY RF-SCORE:    0.00 PKD
ROOT
HETATM    1  C   UNL     1      -8.389  17.460  68.529  1.00  0.00    -0.271 C  
HETATM    2  C   UNL     1      -9.517  16.923  67.658  1.00  0.00    -0.241 C  
ENDROOT
BRANCH   2   3
HETATM    3  C   UNL     1     -10.501  16.095  68.485  1.00  0.00    -0.269 C  
BRANCH   3   4
HETATM    4  C   UNL     1     -11.509  15.346  67.606  1.00  0.00    -0.255 C  
HETATM    5  C   UNL     1     -11.060  13.914  67.240  1.00  0.00    -0.312 C  
HETATM    6  C   UNL     1     -10.723  13.022  68.457  1.00  0.00    -0.275 C  
HETATM    7  C   UNL     1     -12.099  13.248  66.313  1.00  0.00    -0.414 C  
HETATM    8  C   UNL     1     -11.913  12.667  69.337  1.00  0.00    -0.318 C  
BRANCH   7   9
HETATM    9  O   UNL     1     -11.665  11.908  66.015  1.00  0.00    -0.455 OA 
BRANCH   9  10
HETATM   10  C   UNL     1     -10.808  11.783  64.968  1.00  0.00    -0.295 C  
HETATM   11  O   UNL     1     -10.401  12.708  64.280  1.00  0.00    -0.354 OA 
BRANCH  10  12
HETATM   12  C   UNL     1     -10.260  10.383  64.879  1.00  0.00    -0.330 C  
BRANCH  12  13
HETATM   13  C   UNL     1      -9.031  10.144  65.753  1.00  0.00    -0.160 C  
HETATM   14  O   UNL     1      -8.314   8.092  64.235  1.00  0.00    -0.131 OA 
HETATM   15  S   UNL     1      -7.774   9.264  64.879  1.00  0.00    -0.115 S  
HETATM   16  O   UNL     1      -7.504  10.365  63.726  1.00  0.00    -0.113 OA 
HETATM   17  O   UNL     1      -6.551   9.236  65.647  1.00  0.00    -0.067 OA 
BRANCH  13  18
HETATM   18  C   UNL     1      -9.396   9.339  66.959  1.00  0.00    -0.144 C  
HETATM   19  O   UNL     1     -10.412   8.664  67.054  1.00  0.00    -0.295 OA 
BRANCH  18  20
HETATM   20  O   UNL     1      -8.547   9.606  67.992  1.00  0.00    -0.119 OA 
BRANCH  20  21
HETATM   21  C   UNL     1      -9.187   9.870  69.252  1.00  0.00    -0.200 C  
HETATM   22  C   UNL     1      -9.175   8.685  70.236  1.00  0.00    -0.178 C  
HETATM   23  C   UNL     1      -7.746   8.171  70.520  1.00  0.00    -0.085 C  
HETATM   24  C   UNL     1      -9.918   9.028  71.547  1.00  0.00    -0.391 C  
HETATM   25  C   UNL     1      -6.828   9.159  71.227  1.00  0.00    -0.070 C  
BRANCH  24  26
HETATM   26  C   UNL     1     -11.383   9.428  71.340  1.00  0.00    -0.451 C  
BRANCH  26  27
HETATM   27  C   UNL     1     -12.337   8.402  71.951  1.00  0.00    -0.395 C  
HETATM   28  C   UNL     1     -13.664   9.050  72.326  1.00  0.00    -0.550 C  
ENDBRANCH  26  27
ENDBRANCH  24  26
ENDBRANCH  20  21
ENDBRANCH  18  20
ENDBRANCH  13  18
ENDBRANCH  12  13
ENDBRANCH  10  12
ENDBRANCH   9  10
ENDBRANCH   7   9
ENDBRANCH   3   4
ENDBRANCH   2   3
TORSDOF 11
ENDMDL
MODEL      157
REMARK 921   NORMALIZED FREE ENERGY PREDICTED BY IDOCK:   -3.90 KCAL/MOL
REMARK 922        TOTAL FREE ENERGY PREDICTED BY IDOCK:   -8.65 KCAL/MOL
REMARK 923 INTER-LIGAND FREE ENERGY PREDICTED BY IDOCK:   -7.12 KCAL/MOL
REMARK 924 INTRA-LIGAND FREE ENERGY PREDICTED BY IDOCK:   -1.54 KCAL/MOL
REMARK 927      BINDING AFFINITY PREDICTED BY RF-SCORE:    0.00 PKD
ROOT
HETATM    1  C   UNL     1      -8.221   6.461  69.754  1.00  0.00    -0.126 C  
HETATM    2  C   UNL     1      -9.531   6.733  70.480  1.00  0.00    -0.171 C  
ENDROOT
BRANCH   2   3
HETATM    3  C   UNL     1     -10.274   7.910  69.850  1.00  0.00    -0.210 C  
BRANCH   3   4
HETATM    4  C   UNL     1     -10.061   7.985  68.333  1.00  0.00    -0.221 C  
HETATM    5  C   UNL     1     -10.322   9.389  67.744  1.00  0.00    -0.291 C  
HETATM    6  C   UNL     1      -9.500  10.519  68.404  1.00  0.00    -0.158 C  
HETATM    7  C   UNL     1     -10.139   9.368  66.212  1.00  0.00    -0.258 C  
HETATM    8  C   UNL     1      -8.000  10.446  68.155  1.00  0.00    -0.110 C  
BRANCH   7   9
HETATM    9  O   UNL     1     -10.362  10.695  65.699  1.00  0.00    -0.255 OA 
BRANCH   9  10
HETATM   10  C   UNL     1      -9.873  10.938  64.455  1.00  0.00    -0.309 C  
HETATM   11  O   UNL     1      -9.371  10.099  63.722  1.00  0.00    -0.262 OA 
BRANCH  10  12
HETATM   12  C   UNL     1     -10.207  12.335  64.003  1.00  0.00    -0.399 C  
BRANCH  12  13
HETATM   13  C   UNL     1     -11.022  13.134  65.017  1.00  0.00    -0.303 C  
HETATM   14  O   UNL     1     -12.622  14.004  63.090  1.00  0.00    -0.733 OA 
HETATM   15  S   UNL     1     -12.654  13.460  64.425  1.00  0.00    -0.125 S  
HETATM   16  O   UNL     1     -13.150  11.926  64.309  1.00  0.00    -0.578 OA 
HETATM   17  O   UNL     1     -13.468  14.025  65.477  1.00  0.00    -0.677 OA 
BRANCH  13  18
HETATM   18  C   UNL     1     -10.368  14.449  65.296  1.00  0.00    -0.403 C  
HETATM   19  O   UNL     1     -10.913  15.534  65.144  1.00  0.00    -0.377 OA 
BRANCH  18  20
HETATM   20  O   UNL     1      -9.041  14.281  65.559  1.00  0.00     0.317 OA 
BRANCH  20  21
HETATM   21  C   UNL     1      -8.680  14.381  66.948  1.00  0.00    -0.193 C  
HETATM   22  C   UNL     1      -7.435  15.244  67.224  1.00  0.00    -0.236 C  
HETATM   23  C   UNL     1      -7.573  16.674  66.659  1.00  0.00    -0.314 C  
HETATM   24  C   UNL     1      -7.083  15.268  68.730  1.00  0.00    -0.117 C  
HETATM   25  C   UNL     1      -8.671  17.520  67.290  1.00  0.00    -0.236 C  
BRANCH  24  26
HETATM   26  C   UNL     1      -6.812  13.881  69.323  1.00  0.00    -0.094 C  
BRANCH  26  27
HETATM   27  C   UNL     1      -5.385  13.768  69.859  1.00  0.00    -0.098 C  
HETATM   28  C   UNL     1      -5.350  12.947  71.141  1.00  0.00    -0.176 C  
ENDBRANCH  26  27
ENDBRANCH  24  26
ENDBRANCH  20  21
ENDBRANCH  18  20
ENDBRANCH  13  18
ENDBRANCH  12  13
ENDBRANCH  10  12
ENDBRANCH   9  10
ENDBRANCH   7   9
ENDBRANCH   3   4
ENDBRANCH   2   3
TORSDOF 11
ENDMDL
MODEL      158
REMARK 921   NORMALIZED FREE ENERGY PREDICTED BY IDOCK:   -3.90 KCAL/MOL
REMARK 922        TOTAL FREE ENERGY PREDICTED BY IDOCK:   -8.65 KCAL/MOL
REMARK 923 INTER-LIGAND FREE ENERGY PREDICTED BY IDOCK:   -7.88 KCAL/MOL
REMARK 924 INTRA-LIGAND FREE ENERGY PREDICTED BY IDOCK:   -0.77 KCAL/MOL
REMARK 927      BINDING AFFINITY PREDICTED BY RF-SCORE:    0.00 PKD
ROOT
HETATM    1  C   UNL     1     -11.194   5.980  70.400  1.00  0.00    -0.380 C  
HETATM    2  C   UNL     1      -9.757   5.492  70.283  1.00  0.00    -0.242 C  
ENDROOT
BRANCH   2   3
HETATM    3  C   UNL     1      -9.600   4.522  69.113  1.00  0.00    -0.251 C  
BRANCH   3   4
HETATM    4  C   UNL     1      -9.826   5.205  67.759  1.00  0.00    -0.196 C  
HETATM    5  C   UNL     1      -8.787   6.304  67.445  1.00  0.00    -0.107 C  
HETATM    6  C   UNL     1      -7.318   5.828  67.506  1.00  0.00    -0.077 C  
HETATM    7  C   UNL     1      -9.114   6.979  66.096  1.00  0.00    -0.115 C  
HETATM    8  C   UNL     1      -6.925   4.830  66.426  1.00  0.00    -0.067 C  
BRANCH   7   9
HETATM    9  O   UNL     1      -8.113   7.976  65.820  1.00  0.00    -0.107 OA 
BRANCH   9  10
HETATM   10  C   UNL     1      -8.569   9.142  65.292  1.00  0.00    -0.167 C  
HETATM   11  O   UNL     1      -8.830   9.322  64.111  1.00  0.00    -0.206 OA 
BRANCH  10  12
HETATM   12  C   UNL     1      -8.905  10.134  66.373  1.00  0.00    -0.158 C  
BRANCH  12  13
HETATM   13  C   UNL     1     -10.396  10.436  66.492  1.00  0.00    -0.224 C  
HETATM   14  O   UNL     1      -9.872  12.995  66.945  1.00  0.00    -0.229 OA 
HETATM   15  S   UNL     1     -10.740  12.140  66.176  1.00  0.00    -0.284 S  
HETATM   16  O   UNL     1     -10.225  12.181  64.644  1.00  0.00    -0.274 OA 
HETATM   17  O   UNL     1     -12.166  12.357  66.084  1.00  0.00    -0.635 OA 
BRANCH  13  18
HETATM   18  C   UNL     1     -10.887  10.121  67.870  1.00  0.00    -0.284 C  
HETATM   19  O   UNL     1     -10.481   9.186  68.546  1.00  0.00    -0.210 OA 
BRANCH  18  20
HETATM   20  O   UNL     1     -11.964  10.895  68.187  1.00  0.00    -0.581 OA 
BRANCH  20  21
HETATM   21  C   UNL     1     -11.815  11.681  69.382  1.00  0.00    -0.342 C  
HETATM   22  C   UNL     1     -12.911  11.449  70.439  1.00  0.00    -0.067 C  
HETATM   23  C   UNL     1     -13.026   9.965  70.850  1.00  0.00    -0.351 C  
HETATM   24  C   UNL     1     -12.710  12.359  71.673  1.00  0.00    -0.299 C  
HETATM   25  C   UNL     1     -11.804   9.387  71.551  1.00  0.00    -0.456 C  
BRANCH  24  26
HETATM   26  C   UNL     1     -12.711  13.855  71.343  1.00  0.00    -0.445 C  
BRANCH  26  27
HETATM   27  C   UNL     1     -14.035  14.516  71.728  1.00  0.00    -0.556 C  
HETATM   28  C   UNL     1     -13.796  15.765  72.565  1.00  0.00    -0.572 C  
ENDBRANCH  26  27
ENDBRANCH  24  26
ENDBRANCH  20  21
ENDBRANCH  18  20
ENDBRANCH  13  18
ENDBRANCH  12  13
ENDBRANCH  10  12
ENDBRANCH   9  10
ENDBRANCH   7   9
ENDBRANCH   3   4
ENDBRANCH   2   3
TORSDOF 11
ENDMDL
MODEL      159
REMARK 921   NORMALIZED FREE ENERGY PREDICTED BY IDOCK:   -3.90 KCAL/MOL
REMARK 922        TOTAL FREE ENERGY PREDICTED BY IDOCK:   -8.65 KCAL/MOL
REMARK 923 INTER-LIGAND FREE ENERGY PREDICTED BY IDOCK:   -7.16 KCAL/MOL
REMARK 924 INTRA-LIGAND FREE ENERGY PREDICTED BY IDOCK:   -1.48 KCAL/MOL
REMARK 927      BINDING AFFINITY PREDICTED BY RF-SCORE:    0.00 PKD
ROOT
HETATM    1  C   UNL     1     -11.760  12.732  63.824  1.00  0.00    -0.562 C  
HETATM    2  C   UNL     1     -12.198  14.088  64.357  1.00  0.00    -0.457 C  
ENDROOT
BRANCH   2   3
HETATM    3  C   UNL     1     -11.830  14.242  65.833  1.00  0.00    -0.386 C  
BRANCH   3   4
HETATM    4  C   UNL     1     -12.119  12.969  66.638  1.00  0.00    -0.386 C  
HETATM    5  C   UNL     1     -11.102  12.717  67.773  1.00  0.00    -0.289 C  
HETATM    6  C   UNL     1     -10.951  13.893  68.766  1.00  0.00    -0.286 C  
HETATM    7  C   UNL     1     -11.428  11.394  68.499  1.00  0.00    -0.297 C  
HETATM    8  C   UNL     1     -12.180  14.168  69.621  1.00  0.00    -0.376 C  
BRANCH   7   9
HETATM    9  O   UNL     1     -10.482  11.204  69.566  1.00  0.00    -0.164 OA 
BRANCH   9  10
HETATM   10  C   UNL     1      -9.761  10.053  69.520  1.00  0.00    -0.233 C  
HETATM   11  O   UNL     1      -8.875   9.812  68.712  1.00  0.00    -0.122 OA 
BRANCH  10  12
HETATM   12  C   UNL     1     -10.049   9.183  70.714  1.00  0.00    -0.333 C  
BRANCH  12  13
HETATM   13  C   UNL     1     -11.256   8.266  70.534  1.00  0.00    -0.239 C  
HETATM   14  O   UNL     1     -11.340   7.813  73.145  1.00  0.00    -0.374 OA 
HETATM   15  S   UNL     1     -12.192   8.124  72.024  1.00  0.00    -0.355 S  
HETATM   16  O   UNL     1     -12.616   9.679  72.159  1.00  0.00    -0.362 OA 
HETATM   17  O   UNL     1     -13.435   7.431  71.775  1.00  0.00    -0.353 OA 
BRANCH  13  18
HETATM   18  C   UNL     1     -10.815   6.891  70.141  1.00  0.00    -0.263 C  
HETATM   19  O   UNL     1     -11.487   6.119  69.471  1.00  0.00    -0.429 OA 
BRANCH  18  20
HETATM   20  O   UNL     1      -9.659   6.554  70.781  1.00  0.00    -0.177 OA 
BRANCH  20  21
HETATM   21  C   UNL     1      -8.854   5.574  70.104  1.00  0.00    -0.136 C  
HETATM   22  C   UNL     1      -7.788   6.163  69.162  1.00  0.00    -0.104 C  
HETATM   23  C   UNL     1      -6.842   7.147  69.886  1.00  0.00    -0.056 C  
HETATM   24  C   UNL     1      -6.994   5.052  68.437  1.00  0.00    -0.057 C  
HETATM   25  C   UNL     1      -5.974   6.531  70.975  1.00  0.00    -0.028 C  
BRANCH  24  26
HETATM   26  C   UNL     1      -7.868   4.114  67.599  1.00  0.00    -0.087 C  
BRANCH  26  27
HETATM   27  C   UNL     1      -8.506   4.846  66.417  1.00  0.00    -0.111 C  
HETATM   28  C   UNL     1      -9.148   3.860  65.451  1.00  0.00    -0.143 C  
ENDBRANCH  26  27
ENDBRANCH  24  26
ENDBRANCH  20  21
ENDBRANCH  18  20
ENDBRANCH  13  18
ENDBRANCH  12  13
ENDBRANCH  10  12
ENDBRANCH   9  10
ENDBRANCH   7   9
ENDBRANCH   3   4
ENDBRANCH   2   3
TORSDOF 11
ENDMDL
MODEL      160
REMARK 921   NORMALIZED FREE ENERGY PREDICTED BY IDOCK:   -3.88 KCAL/MOL
REMARK 922        TOTAL FREE ENERGY PREDICTED BY IDOCK:   -8.63 KCAL/MOL
REMARK 923 INTER-LIGAND FREE ENERGY PREDICTED BY IDOCK:   -7.46 KCAL/MOL
REMARK 924 INTRA-LIGAND FREE ENERGY PREDICTED BY IDOCK:   -1.16 KCAL/MOL
REMARK 927      BINDING AFFINITY PREDICTED BY RF-SCORE:    0.00 PKD
ROOT
HETATM    1  C   UNL     1     -10.247  18.006  67.311  1.00  0.00    -0.371 C  
HETATM    2  C   UNL     1     -10.595  17.537  68.717  1.00  0.00    -0.241 C  
ENDROOT
BRANCH   2   3
HETATM    3  C   UNL     1     -11.251  16.157  68.689  1.00  0.00    -0.369 C  
BRANCH   3   4
HETATM    4  C   UNL     1     -10.352  15.101  68.036  1.00  0.00    -0.240 C  
HETATM    5  C   UNL     1     -11.135  13.907  67.447  1.00  0.00    -0.313 C  
HETATM    6  C   UNL     1     -12.231  14.303  66.431  1.00  0.00    -0.426 C  
HETATM    7  C   UNL     1     -10.159  12.866  66.858  1.00  0.00    -0.241 C  
HETATM    8  C   UNL     1     -11.711  14.896  65.130  1.00  0.00    -0.295 C  
BRANCH   7   9
HETATM    9  O   UNL     1     -10.920  11.783  66.294  1.00  0.00    -0.278 OA 
BRANCH   9  10
HETATM   10  C   UNL     1     -11.059  10.684  67.081  1.00  0.00    -0.196 C  
HETATM   11  O   UNL     1     -11.813  10.599  68.039  1.00  0.00    -0.494 OA 
BRANCH  10  12
HETATM   12  C   UNL     1     -10.314   9.507  66.509  1.00  0.00    -0.263 C  
BRANCH  12  13
HETATM   13  C   UNL     1      -8.929   9.299  67.115  1.00  0.00    -0.126 C  
HETATM   14  O   UNL     1      -9.045   6.708  66.564  1.00  0.00    -0.141 OA 
HETATM   15  S   UNL     1      -8.157   7.841  66.483  1.00  0.00    -0.115 S  
HETATM   16  O   UNL     1      -8.088   8.291  64.932  1.00  0.00    -0.136 OA 
HETATM   17  O   UNL     1      -6.776   7.780  66.904  1.00  0.00    -0.063 OA 
BRANCH  13  18
HETATM   18  C   UNL     1      -9.023   9.157  68.601  1.00  0.00    -0.136 C  
HETATM   19  O   UNL     1      -8.440   9.879  69.398  1.00  0.00    -0.137 OA 
BRANCH  18  20
HETATM   20  O   UNL     1      -9.688   8.014  68.935  1.00  0.00    -0.155 OA 
BRANCH  20  21
HETATM   21  C   UNL     1     -10.742   8.185  69.898  1.00  0.00    -0.241 C  
HETATM   22  C   UNL     1     -10.778   7.112  71.002  1.00  0.00    -0.252 C  
HETATM   23  C   UNL     1      -9.439   7.008  71.766  1.00  0.00    -0.157 C  
HETATM   24  C   UNL     1     -11.961   7.336  71.972  1.00  0.00    -0.333 C  
HETATM   25  C   UNL     1      -9.047   8.246  72.562  1.00  0.00    -0.323 C  
BRANCH  24  26
HETATM   26  C   UNL     1     -13.332   7.325  71.288  1.00  0.00    -0.338 C  
BRANCH  26  27
HETATM   27  C   UNL     1     -14.226   8.454  71.801  1.00  0.00    -0.536 C  
HETATM   28  C   UNL     1     -13.396   9.673  72.183  1.00  0.00    -0.545 C  
ENDBRANCH  26  27
ENDBRANCH  24  26
ENDBRANCH  20  21
ENDBRANCH  18  20
ENDBRANCH  13  18
ENDBRANCH  12  13
ENDBRANCH  10  12
ENDBRANCH   9  10
ENDBRANCH   7   9
ENDBRANCH   3   4
ENDBRANCH   2   3
TORSDOF 11
ENDMDL
MODEL      161
REMARK 921   NORMALIZED FREE ENERGY PREDICTED BY IDOCK:   -3.88 KCAL/MOL
REMARK 922        TOTAL FREE ENERGY PREDICTED BY IDOCK:   -8.62 KCAL/MOL
REMARK 923 INTER-LIGAND FREE ENERGY PREDICTED BY IDOCK:   -7.35 KCAL/MOL
REMARK 924 INTRA-LIGAND FREE ENERGY PREDICTED BY IDOCK:   -1.27 KCAL/MOL
REMARK 927      BINDING AFFINITY PREDICTED BY RF-SCORE:    0.00 PKD
ROOT
HETATM    1  C   UNL     1     -11.076   6.538  67.222  1.00  0.00    -0.429 C  
HETATM    2  C   UNL     1     -10.485   7.937  67.112  1.00  0.00    -0.414 C  
ENDROOT
BRANCH   2   3
HETATM    3  C   UNL     1     -10.401   8.605  68.484  1.00  0.00    -0.228 C  
BRANCH   3   4
HETATM    4  C   UNL     1      -9.598   9.912  68.444  1.00  0.00    -0.157 C  
HETATM    5  C   UNL     1     -10.288  11.030  67.632  1.00  0.00    -0.223 C  
HETATM    6  C   UNL     1     -11.725  11.360  68.095  1.00  0.00    -0.355 C  
HETATM    7  C   UNL     1      -9.396  12.290  67.594  1.00  0.00    -0.186 C  
HETATM    8  C   UNL     1     -11.822  11.992  69.476  1.00  0.00    -0.390 C  
BRANCH   7   9
HETATM    9  O   UNL     1     -10.079  13.320  66.855  1.00  0.00    -0.242 OA 
BRANCH   9  10
HETATM   10  C   UNL     1      -9.307  14.356  66.433  1.00  0.00    -0.258 C  
HETATM   11  O   UNL     1      -9.685  15.261  65.703  1.00  0.00    -0.338 OA 
BRANCH  10  12
HETATM   12  C   UNL     1      -7.976  14.364  67.138  1.00  0.00    -0.147 C  
BRANCH  12  13
HETATM   13  C   UNL     1      -7.653  15.683  67.835  1.00  0.00    -0.131 C  
HETATM   14  O   UNL     1      -5.928  14.454  69.428  1.00  0.00    -0.094 OA 
HETATM   15  S   UNL     1      -6.069  15.635  68.614  1.00  0.00    -0.103 S  
HETATM   16  O   UNL     1      -5.182  15.411  67.282  1.00  0.00    -0.335 OA 
HETATM   17  O   UNL     1      -5.696  16.951  69.080  1.00  0.00    -0.143 OA 
BRANCH  13  18
HETATM   18  C   UNL     1      -8.671  15.980  68.890  1.00  0.00    -0.236 C  
HETATM   19  O   UNL     1      -8.905  15.251  69.843  1.00  0.00    -0.124 OA 
BRANCH  18  20
HETATM   20  O   UNL     1      -9.419  17.067  68.545  1.00  0.00    -0.252 OA 
BRANCH  20  21
HETATM   21  C   UNL     1      -8.663  18.240  68.198  1.00  0.00    -0.281 C  
HETATM   22  C   UNL     1      -8.538  18.494  66.685  1.00  0.00    -0.295 C  
HETATM   23  C   UNL     1      -9.913  18.584  65.987  1.00  0.00    -0.239 C  
HETATM   24  C   UNL     1      -7.677  19.744  66.389  1.00  0.00    -0.318 C  
HETATM   25  C   UNL     1     -10.786  19.755  66.418  1.00  0.00    -0.499 C  
BRANCH  24  26
HETATM   26  C   UNL     1      -6.254  19.661  66.951  1.00  0.00    -0.190 C  
BRANCH  26  27
HETATM   27  C   UNL     1      -5.915  20.883  67.804  1.00  0.00    -0.362 C  
HETATM   28  C   UNL     1      -5.915  20.529  69.286  1.00  0.00    -0.383 C  
ENDBRANCH  26  27
ENDBRANCH  24  26
ENDBRANCH  20  21
ENDBRANCH  18  20
ENDBRANCH  13  18
ENDBRANCH  12  13
ENDBRANCH  10  12
ENDBRANCH   9  10
ENDBRANCH   7   9
ENDBRANCH   3   4
ENDBRANCH   2   3
TORSDOF 11
ENDMDL
MODEL      162
REMARK 921   NORMALIZED FREE ENERGY PREDICTED BY IDOCK:   -3.88 KCAL/MOL
REMARK 922        TOTAL FREE ENERGY PREDICTED BY IDOCK:   -8.62 KCAL/MOL
REMARK 923 INTER-LIGAND FREE ENERGY PREDICTED BY IDOCK:   -6.76 KCAL/MOL
REMARK 924 INTRA-LIGAND FREE ENERGY PREDICTED BY IDOCK:   -1.85 KCAL/MOL
REMARK 927      BINDING AFFINITY PREDICTED BY RF-SCORE:    0.00 PKD
ROOT
HETATM    1  C   UNL     1     -12.866  11.989  63.510  1.00  0.00    -0.472 C  
HETATM    2  C   UNL     1     -11.639  12.890  63.531  1.00  0.00    -0.528 C  
ENDROOT
BRANCH   2   3
HETATM    3  C   UNL     1     -11.948  14.222  64.213  1.00  0.00    -0.449 C  
BRANCH   3   4
HETATM    4  C   UNL     1     -12.470  14.034  65.642  1.00  0.00    -0.531 C  
HETATM    5  C   UNL     1     -11.465  13.321  66.574  1.00  0.00    -0.372 C  
HETATM    6  C   UNL     1     -10.078  13.998  66.651  1.00  0.00    -0.276 C  
HETATM    7  C   UNL     1     -12.083  13.122  67.974  1.00  0.00    -0.197 C  
HETATM    8  C   UNL     1     -10.071  15.366  67.318  1.00  0.00    -0.238 C  
BRANCH   7   9
HETATM    9  O   UNL     1     -11.113  12.482  68.824  1.00  0.00    -0.245 OA 
BRANCH   9  10
HETATM   10  C   UNL     1     -11.297  11.152  69.034  1.00  0.00    -0.276 C  
HETATM   11  O   UNL     1     -12.226  10.493  68.590  1.00  0.00    -0.282 OA 
BRANCH  10  12
HETATM   12  C   UNL     1     -10.105  10.541  69.722  1.00  0.00    -0.126 C  
BRANCH  12  13
HETATM   13  C   UNL     1     -10.102   9.015  69.714  1.00  0.00    -0.200 C  
HETATM   14  O   UNL     1      -8.987   8.975  72.119  1.00  0.00    -0.378 OA 
HETATM   15  S   UNL     1     -10.040   8.358  71.352  1.00  0.00    -0.235 S  
HETATM   16  O   UNL     1     -11.442   8.967  71.880  1.00  0.00    -0.348 OA 
HETATM   17  O   UNL     1     -10.253   6.928  71.330  1.00  0.00    -0.197 OA 
BRANCH  13  18
HETATM   18  C   UNL     1      -8.912   8.497  68.971  1.00  0.00    -0.146 C  
HETATM   19  O   UNL     1      -8.695   7.311  68.762  1.00  0.00    -0.125 OA 
BRANCH  18  20
HETATM   20  O   UNL     1      -8.023   9.500  68.725  1.00  0.00    -0.086 OA 
BRANCH  20  21
HETATM   21  C   UNL     1      -7.301   9.382  67.487  1.00  0.00    -0.084 C  
HETATM   22  C   UNL     1      -7.561  10.522  66.485  1.00  0.00    -0.128 C  
HETATM   23  C   UNL     1      -7.263  11.914  67.086  1.00  0.00    -0.144 C  
HETATM   24  C   UNL     1      -6.788  10.304  65.164  1.00  0.00    -0.120 C  
HETATM   25  C   UNL     1      -5.807  12.164  67.455  1.00  0.00    -0.137 C  
BRANCH  24  26
HETATM   26  C   UNL     1      -7.135   8.992  64.454  1.00  0.00    -0.090 C  
BRANCH  26  27
HETATM   27  C   UNL     1      -8.470   9.088  63.715  1.00  0.00    -0.168 C  
HETATM   28  C   UNL     1      -8.501  10.310  62.806  1.00  0.00    -0.188 C  
ENDBRANCH  26  27
ENDBRANCH  24  26
ENDBRANCH  20  21
ENDBRANCH  18  20
ENDBRANCH  13  18
ENDBRANCH  12  13
ENDBRANCH  10  12
ENDBRANCH   9  10
ENDBRANCH   7   9
ENDBRANCH   3   4
ENDBRANCH   2   3
TORSDOF 11
ENDMDL
MODEL      163
REMARK 921   NORMALIZED FREE ENERGY PREDICTED BY IDOCK:   -3.88 KCAL/MOL
REMARK 922        TOTAL FREE ENERGY PREDICTED BY IDOCK:   -8.62 KCAL/MOL
REMARK 923 INTER-LIGAND FREE ENERGY PREDICTED BY IDOCK:   -6.62 KCAL/MOL
REMARK 924 INTRA-LIGAND FREE ENERGY PREDICTED BY IDOCK:   -2.00 KCAL/MOL
REMARK 927      BINDING AFFINITY PREDICTED BY RF-SCORE:    0.00 PKD
ROOT
HETATM    1  C   UNL     1      -9.415   3.486  66.205  1.00  0.00    -0.157 C  
HETATM    2  C   UNL     1      -8.185   3.765  65.352  1.00  0.00    -0.101 C  
ENDROOT
BRANCH   2   3
HETATM    3  C   UNL     1      -7.071   4.398  66.185  1.00  0.00    -0.071 C  
BRANCH   3   4
HETATM    4  C   UNL     1      -7.577   4.899  67.544  1.00  0.00    -0.086 C  
HETATM    5  C   UNL     1      -7.431   6.425  67.728  1.00  0.00    -0.093 C  
HETATM    6  C   UNL     1      -8.104   7.268  66.620  1.00  0.00    -0.113 C  
HETATM    7  C   UNL     1      -7.910   6.843  69.134  1.00  0.00    -0.111 C  
HETATM    8  C   UNL     1      -9.623   7.189  66.593  1.00  0.00    -0.226 C  
BRANCH   7   9
HETATM    9  O   UNL     1      -7.787   8.271  69.263  1.00  0.00    -0.104 OA 
BRANCH   9  10
HETATM   10  C   UNL     1      -8.091   8.784  70.484  1.00  0.00    -0.124 C  
HETATM   11  O   UNL     1      -7.572   9.774  70.978  1.00  0.00    -0.311 OA 
BRANCH  10  12
HETATM   12  C   UNL     1      -9.293   8.098  71.078  1.00  0.00    -0.180 C  
BRANCH  12  13
HETATM   13  C   UNL     1     -10.501   9.013  71.257  1.00  0.00    -0.311 C  
HETATM   14  O   UNL     1     -12.125   6.918  71.264  1.00  0.00    -0.335 OA 
HETATM   15  S   UNL     1     -11.869   8.151  71.966  1.00  0.00    -0.363 S  
HETATM   16  O   UNL     1     -11.174   7.768  73.375  1.00  0.00    -0.315 OA 
HETATM   17  O   UNL     1     -12.920   9.078  72.322  1.00  0.00    -0.388 OA 
BRANCH  13  18
HETATM   18  C   UNL     1     -10.943   9.561  69.938  1.00  0.00    -0.238 C  
HETATM   19  O   UNL     1     -11.032   8.898  68.913  1.00  0.00    -0.083 OA 
BRANCH  18  20
HETATM   20  O   UNL     1     -11.051  10.919  69.991  1.00  0.00    -0.268 OA 
BRANCH  20  21
HETATM   21  C   UNL     1     -11.315  11.558  68.730  1.00  0.00    -0.265 C  
HETATM   22  C   UNL     1     -10.265  12.605  68.313  1.00  0.00    -0.240 C  
HETATM   23  C   UNL     1      -8.836  12.020  68.268  1.00  0.00    -0.182 C  
HETATM   24  C   UNL     1     -10.637  13.278  66.971  1.00  0.00    -0.259 C  
HETATM   25  C   UNL     1      -8.610  10.934  67.224  1.00  0.00    -0.128 C  
BRANCH  24  26
HETATM   26  C   UNL     1     -11.996  13.985  66.992  1.00  0.00    -0.472 C  
BRANCH  26  27
HETATM   27  C   UNL     1     -12.680  13.929  65.625  1.00  0.00    -0.534 C  
HETATM   28  C   UNL     1     -12.319  12.646  64.889  1.00  0.00    -0.563 C  
ENDBRANCH  26  27
ENDBRANCH  24  26
ENDBRANCH  20  21
ENDBRANCH  18  20
ENDBRANCH  13  18
ENDBRANCH  12  13
ENDBRANCH  10  12
ENDBRANCH   9  10
ENDBRANCH   7   9
ENDBRANCH   3   4
ENDBRANCH   2   3
TORSDOF 11
ENDMDL
MODEL      164
REMARK 921   NORMALIZED FREE ENERGY PREDICTED BY IDOCK:   -3.87 KCAL/MOL
REMARK 922        TOTAL FREE ENERGY PREDICTED BY IDOCK:   -8.61 KCAL/MOL
REMARK 923 INTER-LIGAND FREE ENERGY PREDICTED BY IDOCK:   -7.45 KCAL/MOL
REMARK 924 INTRA-LIGAND FREE ENERGY PREDICTED BY IDOCK:   -1.16 KCAL/MOL
REMARK 927      BINDING AFFINITY PREDICTED BY RF-SCORE:    0.00 PKD
ROOT
HETATM    1  C   UNL     1      -8.824   3.976  72.593  1.00  0.00    -0.114 C  
HETATM    2  C   UNL     1     -10.299   3.707  72.858  1.00  0.00    -0.244 C  
ENDROOT
BRANCH   2   3
HETATM    3  C   UNL     1     -10.995   4.954  73.403  1.00  0.00    -0.394 C  
BRANCH   3   4
HETATM    4  C   UNL     1     -11.499   5.873  72.284  1.00  0.00    -0.351 C  
HETATM    5  C   UNL     1     -11.388   7.375  72.627  1.00  0.00    -0.360 C  
HETATM    6  C   UNL     1      -9.967   7.835  73.026  1.00  0.00    -0.356 C  
HETATM    7  C   UNL     1     -11.963   8.230  71.477  1.00  0.00    -0.296 C  
HETATM    8  C   UNL     1      -8.941   7.783  71.904  1.00  0.00    -0.164 C  
BRANCH   7   9
HETATM    9  O   UNL     1     -11.819   9.621  71.815  1.00  0.00    -0.386 OA 
BRANCH   9  10
HETATM   10  C   UNL     1     -11.953  10.498  70.785  1.00  0.00    -0.370 C  
HETATM   11  O   UNL     1     -12.846  11.326  70.681  1.00  0.00    -0.242 OA 
BRANCH  10  12
HETATM   12  C   UNL     1     -10.751  10.461  69.879  1.00  0.00    -0.331 C  
BRANCH  12  13
HETATM   13  C   UNL     1     -11.083  10.142  68.424  1.00  0.00    -0.218 C  
HETATM   14  O   UNL     1      -8.520   9.702  67.905  1.00  0.00    -0.121 OA 
HETATM   15  S   UNL     1      -9.830   9.146  67.676  1.00  0.00    -0.183 S  
HETATM   16  O   UNL     1      -9.981   7.855  68.638  1.00  0.00    -0.179 OA 
HETATM   17  O   UNL     1     -10.264   8.682  66.378  1.00  0.00    -0.282 OA 
BRANCH  13  18
HETATM   18  C   UNL     1     -11.200  11.401  67.626  1.00  0.00    -0.283 C  
HETATM   19  O   UNL     1     -12.260  11.953  67.365  1.00  0.00    -0.502 OA 
BRANCH  18  20
HETATM   20  O   UNL     1      -9.998  11.740  67.080  1.00  0.00    -0.202 OA 
BRANCH  20  21
HETATM   21  C   UNL     1      -9.762  13.153  66.961  1.00  0.00    -0.241 C  
HETATM   22  C   UNL     1      -9.097  13.795  68.193  1.00  0.00    -0.194 C  
HETATM   23  C   UNL     1      -7.761  13.113  68.563  1.00  0.00    -0.117 C  
HETATM   24  C   UNL     1      -8.915  15.320  68.010  1.00  0.00    -0.171 C  
HETATM   25  C   UNL     1      -6.656  13.240  67.524  1.00  0.00    -0.153 C  
BRANCH  24  26
HETATM   26  C   UNL     1     -10.226  16.072  67.762  1.00  0.00    -0.260 C  
BRANCH  26  27
HETATM   27  C   UNL     1     -10.207  16.811  66.423  1.00  0.00    -0.329 C  
HETATM   28  C   UNL     1     -10.449  15.848  65.268  1.00  0.00    -0.403 C  
ENDBRANCH  26  27
ENDBRANCH  24  26
ENDBRANCH  20  21
ENDBRANCH  18  20
ENDBRANCH  13  18
ENDBRANCH  12  13
ENDBRANCH  10  12
ENDBRANCH   9  10
ENDBRANCH   7   9
ENDBRANCH   3   4
ENDBRANCH   2   3
TORSDOF 11
ENDMDL
MODEL      165
REMARK 921   NORMALIZED FREE ENERGY PREDICTED BY IDOCK:   -3.84 KCAL/MOL
REMARK 922        TOTAL FREE ENERGY PREDICTED BY IDOCK:   -8.56 KCAL/MOL
REMARK 923 INTER-LIGAND FREE ENERGY PREDICTED BY IDOCK:   -7.60 KCAL/MOL
REMARK 924 INTRA-LIGAND FREE ENERGY PREDICTED BY IDOCK:   -0.96 KCAL/MOL
REMARK 927      BINDING AFFINITY PREDICTED BY RF-SCORE:    0.00 PKD
ROOT
HETATM    1  C   UNL     1     -10.903   3.183  73.323  1.00  0.00    -0.283 C  
HETATM    2  C   UNL     1      -9.464   2.708  73.175  1.00  0.00    -0.123 C  
ENDROOT
BRANCH   2   3
HETATM    3  C   UNL     1      -9.028   2.728  71.710  1.00  0.00    -0.135 C  
BRANCH   3   4
HETATM    4  C   UNL     1      -9.776   3.791  70.897  1.00  0.00    -0.248 C  
HETATM    5  C   UNL     1      -9.038   5.146  70.834  1.00  0.00    -0.175 C  
HETATM    6  C   UNL     1      -7.590   5.059  70.299  1.00  0.00    -0.063 C  
HETATM    7  C   UNL     1      -9.877   6.176  70.047  1.00  0.00    -0.170 C  
HETATM    8  C   UNL     1      -7.474   4.670  68.832  1.00  0.00    -0.060 C  
BRANCH   7   9
HETATM    9  O   UNL     1      -9.149   7.417  69.982  1.00  0.00    -0.148 OA 
BRANCH   9  10
HETATM   10  C   UNL     1      -9.699   8.460  70.657  1.00  0.00    -0.178 C  
HETATM   11  O   UNL     1      -9.148   9.084  71.553  1.00  0.00    -0.257 OA 
BRANCH  10  12
HETATM   12  C   UNL     1     -10.999   8.889  70.031  1.00  0.00    -0.217 C  
BRANCH  12  13
HETATM   13  C   UNL     1     -11.481  10.263  70.486  1.00  0.00    -0.343 C  
HETATM   14  O   UNL     1     -13.933   9.319  70.839  1.00  0.00    -0.104 OA 
HETATM   15  S   UNL     1     -12.938  10.145  71.477  1.00  0.00    -0.472 S  
HETATM   16  O   UNL     1     -12.303   9.283  72.689  1.00  0.00    -0.172 OA 
HETATM   17  O   UNL     1     -13.252  11.426  72.069  1.00  0.00    -0.503 OA 
BRANCH  13  18
HETATM   18  C   UNL     1     -11.803  11.123  69.305  1.00  0.00    -0.352 C  
HETATM   19  O   UNL     1     -11.829  10.722  68.150  1.00  0.00    -0.533 OA 
BRANCH  18  20
HETATM   20  O   UNL     1     -11.877  12.435  69.670  1.00  0.00    -0.305 OA 
BRANCH  20  21
HETATM   21  C   UNL     1     -11.028  13.322  68.922  1.00  0.00    -0.240 C  
HETATM   22  C   UNL     1     -11.715  14.617  68.450  1.00  0.00    -0.352 C  
HETATM   23  C   UNL     1     -12.335  15.414  69.619  1.00  0.00    -0.250 C  
HETATM   24  C   UNL     1     -10.756  15.498  67.617  1.00  0.00    -0.302 C  
HETATM   25  C   UNL     1     -11.340  15.955  70.636  1.00  0.00    -0.421 C  
BRANCH  24  26
HETATM   26  C   UNL     1     -10.203  14.800  66.370  1.00  0.00    -0.299 C  
BRANCH  26  27
HETATM   27  C   UNL     1     -10.858  15.327  65.093  1.00  0.00    -0.441 C  
HETATM   28  C   UNL     1     -11.789  14.283  64.490  1.00  0.00    -0.456 C  
ENDBRANCH  26  27
ENDBRANCH  24  26
ENDBRANCH  20  21
ENDBRANCH  18  20
ENDBRANCH  13  18
ENDBRANCH  12  13
ENDBRANCH  10  12
ENDBRANCH   9  10
ENDBRANCH   7   9
ENDBRANCH   3   4
ENDBRANCH   2   3
TORSDOF 11
ENDMDL
MODEL      166
REMARK 921   NORMALIZED FREE ENERGY PREDICTED BY IDOCK:   -3.84 KCAL/MOL
REMARK 922        TOTAL FREE ENERGY PREDICTED BY IDOCK:   -8.56 KCAL/MOL
REMARK 923 INTER-LIGAND FREE ENERGY PREDICTED BY IDOCK:   -6.85 KCAL/MOL
REMARK 924 INTRA-LIGAND FREE ENERGY PREDICTED BY IDOCK:   -1.71 KCAL/MOL
REMARK 927      BINDING AFFINITY PREDICTED BY RF-SCORE:    0.00 PKD
ROOT
HETATM    1  C   UNL     1     -11.394  15.636  64.557  1.00  0.00    -0.327 C  
HETATM    2  C   UNL     1     -10.049  15.514  65.259  1.00  0.00    -0.337 C  
ENDROOT
BRANCH   2   3
HETATM    3  C   UNL     1     -10.134  14.551  66.443  1.00  0.00    -0.293 C  
BRANCH   3   4
HETATM    4  C   UNL     1      -9.557  13.170  66.110  1.00  0.00    -0.209 C  
HETATM    5  C   UNL     1     -10.526  12.008  66.419  1.00  0.00    -0.267 C  
HETATM    6  C   UNL     1     -11.907  12.132  65.735  1.00  0.00    -0.342 C  
HETATM    7  C   UNL     1      -9.854  10.654  66.109  1.00  0.00    -0.217 C  
HETATM    8  C   UNL     1     -11.882  12.007  64.219  1.00  0.00    -0.431 C  
BRANCH   7   9
HETATM    9  O   UNL     1     -10.792   9.596  66.380  1.00  0.00     0.014 OA 
BRANCH   9  10
HETATM   10  C   UNL     1     -10.260   8.443  66.864  1.00  0.00    -0.313 C  
HETATM   11  O   UNL     1     -10.778   7.339  66.772  1.00  0.00    -0.311 OA 
BRANCH  10  12
HETATM   12  C   UNL     1      -8.853   8.658  67.354  1.00  0.00    -0.140 C  
BRANCH  12  13
HETATM   13  C   UNL     1      -8.728   8.702  68.875  1.00  0.00    -0.131 C  
HETATM   14  O   UNL     1      -6.232   9.572  68.675  1.00  0.00    -0.044 OA 
HETATM   15  S   UNL     1      -7.460   9.818  69.390  1.00  0.00    -0.113 S  
HETATM   16  O   UNL     1      -8.107  11.171  68.787  1.00  0.00    -0.140 OA 
HETATM   17  O   UNL     1      -7.504  10.003  70.823  1.00  0.00    -0.298 OA 
BRANCH  13  18
HETATM   18  C   UNL     1      -8.389   7.348  69.412  1.00  0.00    -0.132 C  
HETATM   19  O   UNL     1      -7.285   6.829  69.322  1.00  0.00    -0.084 OA 
BRANCH  18  20
HETATM   20  O   UNL     1      -9.512   6.705  69.844  1.00  0.00    -0.156 OA 
BRANCH  20  21
HETATM   21  C   UNL     1     -10.469   7.542  70.517  1.00  0.00    -0.219 C  
HETATM   22  C   UNL     1     -10.937   7.005  71.882  1.00  0.00    -0.263 C  
HETATM   23  C   UNL     1      -9.760   6.747  72.848  1.00  0.00    -0.173 C  
HETATM   24  C   UNL     1     -11.996   7.932  72.524  1.00  0.00    -0.349 C  
HETATM   25  C   UNL     1      -8.976   7.985  73.264  1.00  0.00    -0.338 C  
BRANCH  24  26
HETATM   26  C   UNL     1     -13.247   8.128  71.663  1.00  0.00    -0.357 C  
BRANCH  26  27
HETATM   27  C   UNL     1     -13.695   9.590  71.646  1.00  0.00    -0.365 C  
HETATM   28  C   UNL     1     -12.510  10.518  71.412  1.00  0.00    -0.516 C  
ENDBRANCH  26  27
ENDBRANCH  24  26
ENDBRANCH  20  21
ENDBRANCH  18  20
ENDBRANCH  13  18
ENDBRANCH  12  13
ENDBRANCH  10  12
ENDBRANCH   9  10
ENDBRANCH   7   9
ENDBRANCH   3   4
ENDBRANCH   2   3
TORSDOF 11
ENDMDL
MODEL      167
REMARK 921   NORMALIZED FREE ENERGY PREDICTED BY IDOCK:   -3.82 KCAL/MOL
REMARK 922        TOTAL FREE ENERGY PREDICTED BY IDOCK:   -8.53 KCAL/MOL
REMARK 923 INTER-LIGAND FREE ENERGY PREDICTED BY IDOCK:   -6.51 KCAL/MOL
REMARK 924 INTRA-LIGAND FREE ENERGY PREDICTED BY IDOCK:   -2.02 KCAL/MOL
REMARK 927      BINDING AFFINITY PREDICTED BY RF-SCORE:    0.00 PKD
ROOT
HETATM    1  C   UNL     1      -8.826   9.577  64.160  1.00  0.00    -0.243 C  
HETATM    2  C   UNL     1      -9.818   9.855  65.281  1.00  0.00    -0.373 C  
ENDROOT
BRANCH   2   3
HETATM    3  C   UNL     1     -10.208  11.332  65.315  1.00  0.00    -0.328 C  
BRANCH   3   4
HETATM    4  C   UNL     1     -11.247  11.633  66.402  1.00  0.00    -0.349 C  
HETATM    5  C   UNL     1     -10.745  11.330  67.831  1.00  0.00    -0.250 C  
HETATM    6  C   UNL     1      -9.428  12.046  68.210  1.00  0.00    -0.199 C  
HETATM    7  C   UNL     1     -11.862  11.606  68.860  1.00  0.00    -0.329 C  
HETATM    8  C   UNL     1      -9.536  13.560  68.325  1.00  0.00    -0.212 C  
BRANCH   7   9
HETATM    9  O   UNL     1     -11.354  11.341  70.180  1.00  0.00    -0.265 OA 
BRANCH   9  10
HETATM   10  C   UNL     1     -11.846  10.232  70.793  1.00  0.00    -0.365 C  
HETATM   11  O   UNL     1     -13.032  10.001  70.978  1.00  0.00    -0.358 OA 
BRANCH  10  12
HETATM   12  C   UNL     1     -10.758   9.220  71.040  1.00  0.00    -0.387 C  
BRANCH  12  13
HETATM   13  C   UNL     1     -11.252   7.776  71.063  1.00  0.00    -0.266 C  
HETATM   14  O   UNL     1      -8.996   6.992  72.215  1.00  0.00    -0.133 OA 
HETATM   15  S   UNL     1     -10.426   6.827  72.303  1.00  0.00    -0.213 S  
HETATM   16  O   UNL     1     -10.930   7.670  73.587  1.00  0.00    -0.301 OA 
HETATM   17  O   UNL     1     -11.053   5.534  72.449  1.00  0.00    -0.248 OA 
BRANCH  13  18
HETATM   18  C   UNL     1     -11.002   7.116  69.744  1.00  0.00    -0.231 C  
HETATM   19  O   UNL     1     -11.619   6.142  69.335  1.00  0.00    -0.372 OA 
BRANCH  18  20
HETATM   20  O   UNL     1      -9.884   7.627  69.153  1.00  0.00    -0.166 OA 
BRANCH  20  21
HETATM   21  C   UNL     1      -9.421   6.901  68.001  1.00  0.00    -0.124 C  
HETATM   22  C   UNL     1      -8.029   6.263  68.167  1.00  0.00    -0.108 C  
HETATM   23  C   UNL     1      -7.953   5.324  69.391  1.00  0.00    -0.088 C  
HETATM   24  C   UNL     1      -7.579   5.539  66.876  1.00  0.00    -0.092 C  
HETATM   25  C   UNL     1      -8.843   4.091  69.321  1.00  0.00    -0.143 C  
BRANCH  24  26
HETATM   26  C   UNL     1      -7.515   6.450  65.647  1.00  0.00    -0.082 C  
BRANCH  26  27
HETATM   27  C   UNL     1      -8.057   5.752  64.400  1.00  0.00    -0.133 C  
HETATM   28  C   UNL     1      -9.095   4.701  64.773  1.00  0.00    -0.149 C  
ENDBRANCH  26  27
ENDBRANCH  24  26
ENDBRANCH  20  21
ENDBRANCH  18  20
ENDBRANCH  13  18
ENDBRANCH  12  13
ENDBRANCH  10  12
ENDBRANCH   9  10
ENDBRANCH   7   9
ENDBRANCH   3   4
ENDBRANCH   2   3
TORSDOF 11
ENDMDL
MODEL      168
REMARK 921   NORMALIZED FREE ENERGY PREDICTED BY IDOCK:   -3.82 KCAL/MOL
REMARK 922        TOTAL FREE ENERGY PREDICTED BY IDOCK:   -8.52 KCAL/MOL
REMARK 923 INTER-LIGAND FREE ENERGY PREDICTED BY IDOCK:   -7.10 KCAL/MOL
REMARK 924 INTRA-LIGAND FREE ENERGY PREDICTED BY IDOCK:   -1.42 KCAL/MOL
REMARK 927      BINDING AFFINITY PREDICTED BY RF-SCORE:    0.00 PKD
ROOT
HETATM    1  C   UNL     1      -9.790  17.801  66.521  1.00  0.00    -0.331 C  
HETATM    2  C   UNL     1     -10.199  16.337  66.452  1.00  0.00    -0.322 C  
ENDROOT
BRANCH   2   3
HETATM    3  C   UNL     1     -10.667  15.833  67.817  1.00  0.00    -0.307 C  
BRANCH   3   4
HETATM    4  C   UNL     1     -10.100  14.447  68.149  1.00  0.00    -0.226 C  
HETATM    5  C   UNL     1     -11.189  13.402  68.479  1.00  0.00    -0.316 C  
HETATM    6  C   UNL     1     -12.265  13.234  67.382  1.00  0.00    -0.236 C  
HETATM    7  C   UNL     1     -10.538  12.053  68.853  1.00  0.00    -0.159 C  
HETATM    8  C   UNL     1     -11.760  12.630  66.080  1.00  0.00    -0.470 C  
BRANCH   7   9
HETATM    9  O   UNL     1     -11.578  11.095  69.127  1.00  0.00    -0.266 OA 
BRANCH   9  10
HETATM   10  C   UNL     1     -11.794  10.815  70.439  1.00  0.00    -0.358 C  
HETATM   11  O   UNL     1     -12.748  11.211  71.092  1.00  0.00    -0.380 OA 
BRANCH  10  12
HETATM   12  C   UNL     1     -10.814   9.789  70.944  1.00  0.00    -0.399 C  
BRANCH  12  13
HETATM   13  C   UNL     1     -10.762   8.518  70.101  1.00  0.00    -0.235 C  
HETATM   14  O   UNL     1     -10.835   7.027  72.291  1.00  0.00    -0.217 OA 
HETATM   15  S   UNL     1     -11.416   7.131  70.976  1.00  0.00    -0.312 S  
HETATM   16  O   UNL     1     -12.924   7.686  71.158  1.00  0.00    -0.267 OA 
HETATM   17  O   UNL     1     -11.553   5.996  70.092  1.00  0.00    -0.308 OA 
BRANCH  13  18
HETATM   18  C   UNL     1      -9.350   8.195  69.728  1.00  0.00    -0.159 C  
HETATM   19  O   UNL     1      -8.688   7.307  70.247  1.00  0.00    -0.144 OA 
BRANCH  18  20
HETATM   20  O   UNL     1      -8.849   9.134  68.875  1.00  0.00    -0.136 OA 
BRANCH  20  21
HETATM   21  C   UNL     1      -9.339   9.050  67.525  1.00  0.00    -0.135 C  
HETATM   22  C   UNL     1      -8.240   8.910  66.455  1.00  0.00    -0.114 C  
HETATM   23  C   UNL     1      -7.322   7.694  66.711  1.00  0.00    -0.089 C  
HETATM   24  C   UNL     1      -8.838   8.870  65.030  1.00  0.00    -0.183 C  
HETATM   25  C   UNL     1      -8.002   6.335  66.624  1.00  0.00    -0.108 C  
BRANCH  24  26
HETATM   26  C   UNL     1      -9.662  10.111  64.671  1.00  0.00    -0.377 C  
BRANCH  26  27
HETATM   27  C   UNL     1      -9.303  10.642  63.283  1.00  0.00    -0.329 C  
HETATM   28  C   UNL     1      -8.599   9.573  62.458  1.00  0.00    -0.214 C  
ENDBRANCH  26  27
ENDBRANCH  24  26
ENDBRANCH  20  21
ENDBRANCH  18  20
ENDBRANCH  13  18
ENDBRANCH  12  13
ENDBRANCH  10  12
ENDBRANCH   9  10
ENDBRANCH   7   9
ENDBRANCH   3   4
ENDBRANCH   2   3
TORSDOF 11
ENDMDL
MODEL      169
REMARK 921   NORMALIZED FREE ENERGY PREDICTED BY IDOCK:   -3.80 KCAL/MOL
REMARK 922        TOTAL FREE ENERGY PREDICTED BY IDOCK:   -8.50 KCAL/MOL
REMARK 923 INTER-LIGAND FREE ENERGY PREDICTED BY IDOCK:   -7.01 KCAL/MOL
REMARK 924 INTRA-LIGAND FREE ENERGY PREDICTED BY IDOCK:   -1.49 KCAL/MOL
REMARK 927      BINDING AFFINITY PREDICTED BY RF-SCORE:    0.00 PKD
ROOT
HETATM    1  C   UNL     1      -9.291   4.938  69.017  1.00  0.00    -0.183 C  
HETATM    2  C   UNL     1     -10.425   5.357  69.943  1.00  0.00    -0.378 C  
ENDROOT
BRANCH   2   3
HETATM    3  C   UNL     1     -10.652   6.867  69.884  1.00  0.00    -0.256 C  
BRANCH   3   4
HETATM    4  C   UNL     1      -9.753   7.547  68.845  1.00  0.00    -0.151 C  
HETATM    5  C   UNL     1      -9.593   9.067  69.072  1.00  0.00    -0.160 C  
HETATM    6  C   UNL     1      -9.080   9.450  70.479  1.00  0.00    -0.308 C  
HETATM    7  C   UNL     1      -8.722   9.685  67.958  1.00  0.00    -0.119 C  
HETATM    8  C   UNL     1      -7.649   9.027  70.774  1.00  0.00    -0.131 C  
BRANCH   7   9
HETATM    9  O   UNL     1      -8.570  11.094  68.215  1.00  0.00    -0.133 OA 
BRANCH   9  10
HETATM   10  C   UNL     1      -8.067  11.831  67.190  1.00  0.00    -0.169 C  
HETATM   11  O   UNL     1      -6.887  11.885  66.878  1.00  0.00    -0.138 OA 
BRANCH  10  12
HETATM   12  C   UNL     1      -9.171  12.422  66.353  1.00  0.00    -0.192 C  
BRANCH  12  13
HETATM   13  C   UNL     1     -10.080  13.380  67.118  1.00  0.00    -0.240 C  
HETATM   14  O   UNL     1     -12.003  13.034  65.326  1.00  0.00    -0.357 OA 
HETATM   15  S   UNL     1     -11.783  13.092  66.750  1.00  0.00    -0.388 S  
HETATM   16  O   UNL     1     -11.871  11.579  67.313  1.00  0.00    -0.609 OA 
HETATM   17  O   UNL     1     -12.628  13.858  67.637  1.00  0.00     0.010 OA 
BRANCH  13  18
HETATM   18  C   UNL     1      -9.770  14.798  66.757  1.00  0.00    -0.254 C  
HETATM   19  O   UNL     1      -9.405  15.160  65.647  1.00  0.00    -0.268 OA 
BRANCH  18  20
HETATM   20  O   UNL     1      -9.770  15.589  67.867  1.00  0.00    -0.210 OA 
BRANCH  20  21
HETATM   21  C   UNL     1      -9.056  16.830  67.727  1.00  0.00    -0.221 C  
HETATM   22  C   UNL     1      -7.898  17.016  68.726  1.00  0.00    -0.253 C  
HETATM   23  C   UNL     1      -6.874  15.861  68.662  1.00  0.00    -0.125 C  
HETATM   24  C   UNL     1      -7.207  18.388  68.545  1.00  0.00    -0.298 C  
HETATM   25  C   UNL     1      -6.119  15.733  67.346  1.00  0.00    -0.117 C  
BRANCH  24  26
HETATM   26  C   UNL     1      -8.151  19.582  68.720  1.00  0.00    -0.357 C  
BRANCH  26  27
HETATM   27  C   UNL     1      -8.412  20.292  67.392  1.00  0.00    -0.405 C  
HETATM   28  C   UNL     1      -9.906  20.414  67.125  1.00  0.00    -0.601 C  
ENDBRANCH  26  27
ENDBRANCH  24  26
ENDBRANCH  20  21
ENDBRANCH  18  20
ENDBRANCH  13  18
ENDBRANCH  12  13
ENDBRANCH  10  12
ENDBRANCH   9  10
ENDBRANCH   7   9
ENDBRANCH   3   4
ENDBRANCH   2   3
TORSDOF 11
ENDMDL
MODEL      170
REMARK 921   NORMALIZED FREE ENERGY PREDICTED BY IDOCK:   -3.80 KCAL/MOL
REMARK 922        TOTAL FREE ENERGY PREDICTED BY IDOCK:   -8.49 KCAL/MOL
REMARK 923 INTER-LIGAND FREE ENERGY PREDICTED BY IDOCK:   -7.67 KCAL/MOL
REMARK 924 INTRA-LIGAND FREE ENERGY PREDICTED BY IDOCK:   -0.82 KCAL/MOL
REMARK 927      BINDING AFFINITY PREDICTED BY RF-SCORE:    0.00 PKD
ROOT
HETATM    1  C   UNL     1      -9.287   3.005  67.947  1.00  0.00    -0.255 C  
HETATM    2  C   UNL     1      -9.714   4.299  67.268  1.00  0.00    -0.216 C  
ENDROOT
BRANCH   2   3
HETATM    3  C   UNL     1     -10.304   5.281  68.280  1.00  0.00    -0.181 C  
BRANCH   3   4
HETATM    4  C   UNL     1     -10.814   6.564  67.613  1.00  0.00    -0.419 C  
HETATM    5  C   UNL     1      -9.981   7.814  67.972  1.00  0.00    -0.210 C  
HETATM    6  C   UNL     1      -8.471   7.682  67.673  1.00  0.00    -0.117 C  
HETATM    7  C   UNL     1     -10.588   9.069  67.308  1.00  0.00    -0.231 C  
HETATM    8  C   UNL     1      -8.118   7.593  66.195  1.00  0.00    -0.118 C  
BRANCH   7   9
HETATM    9  O   UNL     1      -9.775  10.210  67.638  1.00  0.00    -0.157 OA 
BRANCH   9  10
HETATM   10  C   UNL     1      -9.526  11.074  66.620  1.00  0.00    -0.184 C  
HETATM   11  O   UNL     1      -8.429  11.539  66.346  1.00  0.00    -0.175 OA 
BRANCH  10  12
HETATM   12  C   UNL     1     -10.736  11.239  65.739  1.00  0.00    -0.284 C  
BRANCH  12  13
HETATM   13  C   UNL     1     -11.747  12.256  66.260  1.00  0.00    -0.366 C  
HETATM   14  O   UNL     1     -11.309  13.812  64.159  1.00  0.00    -0.353 OA 
HETATM   15  S   UNL     1     -12.378  13.270  64.959  1.00  0.00    -0.452 S  
HETATM   16  O   UNL     1     -13.078  12.096  64.095  1.00  0.00    -0.694 OA 
HETATM   17  O   UNL     1     -13.480  14.074  65.436  1.00  0.00    -0.679 OA 
BRANCH  13  18
HETATM   18  C   UNL     1     -11.109  13.157  67.270  1.00  0.00    -0.279 C  
HETATM   19  O   UNL     1     -11.221  13.021  68.481  1.00  0.00    -0.241 OA 
BRANCH  18  20
HETATM   20  O   UNL     1     -10.550  14.242  66.663  1.00  0.00    -0.275 OA 
BRANCH  20  21
HETATM   21  C   UNL     1      -9.423  14.810  67.353  1.00  0.00    -0.207 C  
HETATM   22  C   UNL     1      -9.514  16.331  67.580  1.00  0.00    -0.221 C  
HETATM   23  C   UNL     1     -10.797  16.736  68.338  1.00  0.00    -0.355 C  
HETATM   24  C   UNL     1      -8.250  16.875  68.286  1.00  0.00    -0.222 C  
HETATM   25  C   UNL     1     -10.904  16.212  69.764  1.00  0.00    -0.333 C  
BRANCH  24  26
HETATM   26  C   UNL     1      -6.952  16.611  67.517  1.00  0.00    -0.173 C  
BRANCH  26  27
HETATM   27  C   UNL     1      -5.865  16.038  68.428  1.00  0.00    -0.105 C  
HETATM   28  C   UNL     1      -6.440  15.657  69.786  1.00  0.00    -0.169 C  
ENDBRANCH  26  27
ENDBRANCH  24  26
ENDBRANCH  20  21
ENDBRANCH  18  20
ENDBRANCH  13  18
ENDBRANCH  12  13
ENDBRANCH  10  12
ENDBRANCH   9  10
ENDBRANCH   7   9
ENDBRANCH   3   4
ENDBRANCH   2   3
TORSDOF 11
ENDMDL
MODEL      171
REMARK 921   NORMALIZED FREE ENERGY PREDICTED BY IDOCK:   -3.80 KCAL/MOL
REMARK 922        TOTAL FREE ENERGY PREDICTED BY IDOCK:   -8.48 KCAL/MOL
REMARK 923 INTER-LIGAND FREE ENERGY PREDICTED BY IDOCK:   -7.11 KCAL/MOL
REMARK 924 INTRA-LIGAND FREE ENERGY PREDICTED BY IDOCK:   -1.37 KCAL/MOL
REMARK 927      BINDING AFFINITY PREDICTED BY RF-SCORE:    0.00 PKD
ROOT
HETATM    1  C   UNL     1     -10.441   5.032  65.985  1.00  0.00    -0.289 C  
HETATM    2  C   UNL     1     -11.089   5.865  67.082  1.00  0.00    -0.151 C  
ENDROOT
BRANCH   2   3
HETATM    3  C   UNL     1     -10.260   5.822  68.365  1.00  0.00    -0.242 C  
BRANCH   3   4
HETATM    4  C   UNL     1      -9.536   7.147  68.632  1.00  0.00    -0.140 C  
HETATM    5  C   UNL     1     -10.426   8.206  69.319  1.00  0.00    -0.221 C  
HETATM    6  C   UNL     1     -11.072   7.734  70.642  1.00  0.00    -0.264 C  
HETATM    7  C   UNL     1      -9.644   9.524  69.503  1.00  0.00    -0.188 C  
HETATM    8  C   UNL     1     -10.091   7.491  71.780  1.00  0.00    -0.205 C  
BRANCH   7   9
HETATM    9  O   UNL     1     -10.491  10.478  70.170  1.00  0.00    -0.207 OA 
BRANCH   9  10
HETATM   10  C   UNL     1     -11.380  11.135  69.379  1.00  0.00    -0.283 C  
HETATM   11  O   UNL     1     -12.590  10.967  69.395  1.00  0.00    -0.331 OA 
BRANCH  10  12
HETATM   12  C   UNL     1     -10.709  12.246  68.616  1.00  0.00    -0.261 C  
BRANCH  12  13
HETATM   13  C   UNL     1     -11.677  13.295  68.074  1.00  0.00    -0.359 C  
HETATM   14  O   UNL     1     -10.137  13.661  65.948  1.00  0.00    -0.298 OA 
HETATM   15  S   UNL     1     -11.517  13.485  66.326  1.00  0.00    -0.339 S  
HETATM   16  O   UNL     1     -11.943  11.982  65.908  1.00  0.00    -0.540 OA 
HETATM   17  O   UNL     1     -12.579  14.318  65.810  1.00  0.00    -0.454 OA 
BRANCH  13  18
HETATM   18  C   UNL     1     -11.411  14.626  68.702  1.00  0.00    -0.283 C  
HETATM   19  O   UNL     1     -12.205  15.557  68.701  1.00  0.00    -0.178 OA 
BRANCH  18  20
HETATM   20  O   UNL     1     -10.112  14.719  69.105  1.00  0.00    -0.224 OA 
BRANCH  20  21
HETATM   21  C   UNL     1      -9.357  15.774  68.484  1.00  0.00    -0.198 C  
HETATM   22  C   UNL     1      -7.882  15.847  68.920  1.00  0.00    -0.198 C  
HETATM   23  C   UNL     1      -7.133  14.516  68.686  1.00  0.00    -0.113 C  
HETATM   24  C   UNL     1      -7.148  17.029  68.246  1.00  0.00    -0.190 C  
HETATM   25  C   UNL     1      -6.996  14.095  67.229  1.00  0.00     0.110 C  
BRANCH  24  26
HETATM   26  C   UNL     1      -7.775  18.395  68.544  1.00  0.00    -0.321 C  
BRANCH  26  27
HETATM   27  C   UNL     1      -8.155  19.132  67.259  1.00  0.00    -0.286 C  
HETATM   28  C   UNL     1      -9.497  19.835  67.413  1.00  0.00    -0.457 C  
ENDBRANCH  26  27
ENDBRANCH  24  26
ENDBRANCH  20  21
ENDBRANCH  18  20
ENDBRANCH  13  18
ENDBRANCH  12  13
ENDBRANCH  10  12
ENDBRANCH   9  10
ENDBRANCH   7   9
ENDBRANCH   3   4
ENDBRANCH   2   3
TORSDOF 11
ENDMDL
MODEL      172
REMARK 921   NORMALIZED FREE ENERGY PREDICTED BY IDOCK:   -3.78 KCAL/MOL
REMARK 922        TOTAL FREE ENERGY PREDICTED BY IDOCK:   -8.46 KCAL/MOL
REMARK 923 INTER-LIGAND FREE ENERGY PREDICTED BY IDOCK:   -6.80 KCAL/MOL
REMARK 924 INTRA-LIGAND FREE ENERGY PREDICTED BY IDOCK:   -1.67 KCAL/MOL
REMARK 927      BINDING AFFINITY PREDICTED BY RF-SCORE:    0.00 PKD
ROOT
HETATM    1  C   UNL     1     -12.683  12.063  63.424  1.00  0.00    -0.527 C  
HETATM    2  C   UNL     1     -11.384  12.783  63.758  1.00  0.00    -0.520 C  
ENDROOT
BRANCH   2   3
HETATM    3  C   UNL     1     -10.181  11.860  63.563  1.00  0.00    -0.485 C  
BRANCH   3   4
HETATM    4  C   UNL     1      -9.556  11.434  64.898  1.00  0.00    -0.244 C  
HETATM    5  C   UNL     1      -9.448   9.902  65.063  1.00  0.00    -0.343 C  
HETATM    6  C   UNL     1      -8.684   9.190  63.923  1.00  0.00    -0.154 C  
HETATM    7  C   UNL     1      -8.862   9.554  66.448  1.00  0.00    -0.144 C  
HETATM    8  C   UNL     1      -7.199   9.515  63.850  1.00  0.00    -0.111 C  
BRANCH   7   9
HETATM    9  O   UNL     1      -8.748   8.123  66.558  1.00  0.00    -0.130 OA 
BRANCH   9  10
HETATM   10  C   UNL     1      -9.715   7.507  67.289  1.00  0.00    -0.167 C  
HETATM   11  O   UNL     1     -10.890   7.419  66.964  1.00  0.00    -0.354 OA 
BRANCH  10  12
HETATM   12  C   UNL     1      -9.123   6.768  68.459  1.00  0.00    -0.129 C  
BRANCH  12  13
HETATM   13  C   UNL     1      -9.089   7.581  69.750  1.00  0.00    -0.140 C  
HETATM   14  O   UNL     1      -7.715   5.662  70.958  1.00  0.00    -0.098 OA 
HETATM   15  S   UNL     1      -7.747   7.093  70.789  1.00  0.00    -0.094 S  
HETATM   16  O   UNL     1      -6.544   7.487  69.784  1.00  0.00    -0.038 OA 
HETATM   17  O   UNL     1      -7.607   8.011  71.897  1.00  0.00    -0.075 OA 
BRANCH  13  18
HETATM   18  C   UNL     1     -10.355   7.389  70.523  1.00  0.00    -0.214 C  
HETATM   19  O   UNL     1     -11.183   6.521  70.282  1.00  0.00    -0.312 OA 
BRANCH  18  20
HETATM   20  O   UNL     1     -10.546   8.416  71.399  1.00  0.00    -0.213 OA 
BRANCH  20  21
HETATM   21  C   UNL     1     -10.522   9.729  70.810  1.00  0.00    -0.269 C  
HETATM   22  C   UNL     1     -11.764  10.073  69.968  1.00  0.00    -0.242 C  
HETATM   23  C   UNL     1     -13.077   9.927  70.768  1.00  0.00    -0.256 C  
HETATM   24  C   UNL     1     -11.648  11.478  69.333  1.00  0.00    -0.388 C  
HETATM   25  C   UNL     1     -13.234  10.886  71.941  1.00  0.00    -0.508 C  
BRANCH  24  26
HETATM   26  C   UNL     1     -10.426  11.645  68.424  1.00  0.00    -0.230 C  
BRANCH  26  27
HETATM   27  C   UNL     1     -10.106  13.120  68.178  1.00  0.00    -0.237 C  
HETATM   28  C   UNL     1      -8.601  13.347  68.123  1.00  0.00    -0.174 C  
ENDBRANCH  26  27
ENDBRANCH  24  26
ENDBRANCH  20  21
ENDBRANCH  18  20
ENDBRANCH  13  18
ENDBRANCH  12  13
ENDBRANCH  10  12
ENDBRANCH   9  10
ENDBRANCH   7   9
ENDBRANCH   3   4
ENDBRANCH   2   3
TORSDOF 11
ENDMDL
MODEL      173
REMARK 921   NORMALIZED FREE ENERGY PREDICTED BY IDOCK:   -3.78 KCAL/MOL
REMARK 922        TOTAL FREE ENERGY PREDICTED BY IDOCK:   -8.46 KCAL/MOL
REMARK 923 INTER-LIGAND FREE ENERGY PREDICTED BY IDOCK:   -7.25 KCAL/MOL
REMARK 924 INTRA-LIGAND FREE ENERGY PREDICTED BY IDOCK:   -1.21 KCAL/MOL
REMARK 927      BINDING AFFINITY PREDICTED BY RF-SCORE:    0.00 PKD
ROOT
HETATM    1  C   UNL     1     -10.297  19.577  66.614  1.00  0.00    -0.570 C  
HETATM    2  C   UNL     1      -9.383  19.415  67.820  1.00  0.00    -0.389 C  
ENDROOT
BRANCH   2   3
HETATM    3  C   UNL     1      -9.652  18.093  68.538  1.00  0.00    -0.349 C  
BRANCH   3   4
HETATM    4  C   UNL     1     -10.388  17.087  67.645  1.00  0.00    -0.332 C  
HETATM    5  C   UNL     1     -10.098  15.615  68.010  1.00  0.00    -0.224 C  
HETATM    6  C   UNL     1     -10.390  15.254  69.485  1.00  0.00    -0.267 C  
HETATM    7  C   UNL     1     -10.831  14.668  67.035  1.00  0.00    -0.304 C  
HETATM    8  C   UNL     1     -11.861  15.298  69.873  1.00  0.00    -0.363 C  
BRANCH   7   9
HETATM    9  O   UNL     1     -10.563  13.307  67.419  1.00  0.00    -0.244 OA 
BRANCH   9  10
HETATM   10  C   UNL     1     -11.631  12.466  67.403  1.00  0.00    -0.365 C  
HETATM   11  O   UNL     1     -12.690  12.689  66.834  1.00  0.00     0.136 OA 
BRANCH  10  12
HETATM   12  C   UNL     1     -11.282  11.132  68.006  1.00  0.00    -0.359 C  
BRANCH  12  13
HETATM   13  C   UNL     1      -9.812  10.752  67.855  1.00  0.00    -0.167 C  
HETATM   14  O   UNL     1     -10.494   8.366  66.922  1.00  0.00    -0.317 OA 
HETATM   15  S   UNL     1      -9.593   9.462  66.668  1.00  0.00    -0.210 S  
HETATM   16  O   UNL     1     -10.157  10.260  65.380  1.00  0.00    -0.293 OA 
HETATM   17  O   UNL     1      -8.189   9.268  66.387  1.00  0.00    -0.109 OA 
BRANCH  13  18
HETATM   18  C   UNL     1      -9.259  10.268  69.159  1.00  0.00    -0.194 C  
HETATM   19  O   UNL     1      -8.108  10.456  69.529  1.00  0.00    -0.161 OA 
BRANCH  18  20
HETATM   20  O   UNL     1     -10.147   9.443  69.782  1.00  0.00    -0.188 OA 
BRANCH  20  21
HETATM   21  C   UNL     1      -9.594   8.650  70.847  1.00  0.00    -0.203 C  
HETATM   22  C   UNL     1     -10.641   7.940  71.725  1.00  0.00    -0.276 C  
HETATM   23  C   UNL     1     -11.591   7.044  70.899  1.00  0.00    -0.370 C  
HETATM   24  C   UNL     1      -9.975   7.145  72.872  1.00  0.00    -0.233 C  
HETATM   25  C   UNL     1     -10.929   5.861  70.205  1.00  0.00    -0.390 C  
BRANCH  24  26
HETATM   26  C   UNL     1      -9.116   8.006  73.802  1.00  0.00    -0.242 C  
BRANCH  26  27
HETATM   27  C   UNL     1      -7.693   7.460  73.919  1.00  0.00    -0.140 C  
HETATM   28  C   UNL     1      -6.680   8.465  73.387  1.00  0.00    -0.124 C  
ENDBRANCH  26  27
ENDBRANCH  24  26
ENDBRANCH  20  21
ENDBRANCH  18  20
ENDBRANCH  13  18
ENDBRANCH  12  13
ENDBRANCH  10  12
ENDBRANCH   9  10
ENDBRANCH   7   9
ENDBRANCH   3   4
ENDBRANCH   2   3
TORSDOF 11
ENDMDL
MODEL      174
REMARK 921   NORMALIZED FREE ENERGY PREDICTED BY IDOCK:   -3.78 KCAL/MOL
REMARK 922        TOTAL FREE ENERGY PREDICTED BY IDOCK:   -8.46 KCAL/MOL
REMARK 923 INTER-LIGAND FREE ENERGY PREDICTED BY IDOCK:   -7.45 KCAL/MOL
REMARK 924 INTRA-LIGAND FREE ENERGY PREDICTED BY IDOCK:   -1.00 KCAL/MOL
REMARK 927      BINDING AFFINITY PREDICTED BY RF-SCORE:    0.00 PKD
ROOT
HETATM    1  C   UNL     1      -7.160   9.902  66.509  1.00  0.00    -0.094 C  
HETATM    2  C   UNL     1      -7.740   8.507  66.695  1.00  0.00    -0.090 C  
ENDROOT
BRANCH   2   3
HETATM    3  C   UNL     1      -9.096   8.380  66.001  1.00  0.00    -0.235 C  
BRANCH   3   4
HETATM    4  C   UNL     1      -9.508   9.676  65.292  1.00  0.00    -0.342 C  
HETATM    5  C   UNL     1     -10.755  10.344  65.912  1.00  0.00    -0.023 C  
HETATM    6  C   UNL     1     -10.636  10.638  67.425  1.00  0.00    -0.304 C  
HETATM    7  C   UNL     1     -11.137  11.609  65.113  1.00  0.00    -0.237 C  
HETATM    8  C   UNL     1      -9.607  11.698  67.790  1.00  0.00    -0.178 C  
BRANCH   7   9
HETATM    9  O   UNL     1     -12.283  12.221  65.731  1.00  0.00    -0.622 OA 
BRANCH   9  10
HETATM   10  C   UNL     1     -12.349  13.576  65.645  1.00  0.00    -0.476 C  
HETATM   11  O   UNL     1     -13.381  14.224  65.552  1.00  0.00    -0.608 OA 
BRANCH  10  12
HETATM   12  C   UNL     1     -10.999  14.202  65.880  1.00  0.00    -0.297 C  
BRANCH  12  13
HETATM   13  C   UNL     1     -11.056  15.533  66.624  1.00  0.00    -0.193 C  
HETATM   14  O   UNL     1      -8.904  16.382  65.330  1.00  0.00    -0.128 OA 
HETATM   15  S   UNL     1     -10.219  16.810  65.736  1.00  0.00    -0.235 S  
HETATM   16  O   UNL     1     -11.156  16.802  64.418  1.00  0.00    -1.072 OA 
HETATM   17  O   UNL     1     -10.467  18.095  66.348  1.00  0.00    -0.379 OA 
BRANCH  13  18
HETATM   18  C   UNL     1     -10.406  15.411  67.966  1.00  0.00    -0.249 C  
HETATM   19  O   UNL     1     -10.655  14.525  68.772  1.00  0.00    -0.235 OA 
BRANCH  18  20
HETATM   20  O   UNL     1      -9.648  16.511  68.236  1.00  0.00    -0.214 OA 
BRANCH  20  21
HETATM   21  C   UNL     1      -8.483  16.262  69.041  1.00  0.00    -0.244 C  
HETATM   22  C   UNL     1      -7.187  16.898  68.502  1.00  0.00    -0.199 C  
HETATM   23  C   UNL     1      -7.319  18.424  68.303  1.00  0.00    -0.285 C  
HETATM   24  C   UNL     1      -5.972  16.551  69.394  1.00  0.00    -0.173 C  
HETATM   25  C   UNL     1      -7.542  19.229  69.577  1.00  0.00    -0.013 C  
BRANCH  24  26
HETATM   26  C   UNL     1      -5.715  15.047  69.529  1.00  0.00    -0.101 C  
BRANCH  26  27
HETATM   27  C   UNL     1      -5.278  14.429  68.200  1.00  0.00    -0.118 C  
HETATM   28  C   UNL     1      -5.817  13.012  68.058  1.00  0.00    -0.112 C  
ENDBRANCH  26  27
ENDBRANCH  24  26
ENDBRANCH  20  21
ENDBRANCH  18  20
ENDBRANCH  13  18
ENDBRANCH  12  13
ENDBRANCH  10  12
ENDBRANCH   9  10
ENDBRANCH   7   9
ENDBRANCH   3   4
ENDBRANCH   2   3
TORSDOF 11
ENDMDL
MODEL      175
REMARK 921   NORMALIZED FREE ENERGY PREDICTED BY IDOCK:   -3.78 KCAL/MOL
REMARK 922        TOTAL FREE ENERGY PREDICTED BY IDOCK:   -8.46 KCAL/MOL
REMARK 923 INTER-LIGAND FREE ENERGY PREDICTED BY IDOCK:   -7.10 KCAL/MOL
REMARK 924 INTRA-LIGAND FREE ENERGY PREDICTED BY IDOCK:   -1.35 KCAL/MOL
REMARK 927      BINDING AFFINITY PREDICTED BY RF-SCORE:    0.00 PKD
ROOT
HETATM    1  C   UNL     1      -8.730   4.069  68.737  1.00  0.00    -0.131 C  
HETATM    2  C   UNL     1     -10.032   4.393  69.456  1.00  0.00    -0.187 C  
ENDROOT
BRANCH   2   3
HETATM    3  C   UNL     1      -9.776   5.257  70.691  1.00  0.00    -0.249 C  
BRANCH   3   4
HETATM    4  C   UNL     1      -8.532   6.139  70.533  1.00  0.00    -0.137 C  
HETATM    5  C   UNL     1      -8.829   7.649  70.662  1.00  0.00    -0.145 C  
HETATM    6  C   UNL     1      -9.541   8.049  71.975  1.00  0.00    -0.262 C  
HETATM    7  C   UNL     1      -7.540   8.469  70.438  1.00  0.00    -0.074 C  
HETATM    8  C   UNL     1      -8.702   7.875  73.233  1.00  0.00    -0.295 C  
BRANCH   7   9
HETATM    9  O   UNL     1      -7.846   9.867  70.593  1.00  0.00    -0.278 OA 
BRANCH   9  10
HETATM   10  C   UNL     1      -7.496  10.668  69.552  1.00  0.00    -0.130 C  
HETATM   11  O   UNL     1      -6.565  11.459  69.559  1.00  0.00    -0.107 OA 
BRANCH  10  12
HETATM   12  C   UNL     1      -8.275  10.319  68.312  1.00  0.00    -0.115 C  
BRANCH  12  13
HETATM   13  C   UNL     1      -9.422  11.280  68.012  1.00  0.00    -0.173 C  
HETATM   14  O   UNL     1     -10.879   9.287  67.046  1.00  0.00    -0.186 OA 
HETATM   15  S   UNL     1     -10.969  10.434  67.915  1.00  0.00    -0.292 S  
HETATM   16  O   UNL     1     -11.009   9.885  69.435  1.00  0.00    -0.231 OA 
HETATM   17  O   UNL     1     -12.058  11.381  67.844  1.00  0.00    -0.646 OA 
BRANCH  13  18
HETATM   18  C   UNL     1      -9.198  11.971  66.705  1.00  0.00    -0.211 C  
HETATM   19  O   UNL     1      -9.295  11.425  65.614  1.00  0.00    -0.223 OA 
BRANCH  18  20
HETATM   20  O   UNL     1      -8.697  13.223  66.901  1.00  0.00    -0.207 OA 
BRANCH  20  21
HETATM   21  C   UNL     1      -9.636  14.178  67.426  1.00  0.00    -0.229 C  
HETATM   22  C   UNL     1      -9.781  15.460  66.586  1.00  0.00    -0.269 C  
HETATM   23  C   UNL     1     -10.166  15.162  65.120  1.00  0.00    -0.386 C  
HETATM   24  C   UNL     1     -10.771  16.455  67.235  1.00  0.00    -0.257 C  
HETATM   25  C   UNL     1     -11.532  14.518  64.925  1.00  0.00    -0.396 C  
BRANCH  24  26
HETATM   26  C   UNL     1     -10.375  16.885  68.650  1.00  0.00    -0.332 C  
BRANCH  26  27
HETATM   27  C   UNL     1      -9.984  18.363  68.700  1.00  0.00    -0.415 C  
HETATM   28  C   UNL     1     -10.424  19.084  67.433  1.00  0.00    -0.539 C  
ENDBRANCH  26  27
ENDBRANCH  24  26
ENDBRANCH  20  21
ENDBRANCH  18  20
ENDBRANCH  13  18
ENDBRANCH  12  13
ENDBRANCH  10  12
ENDBRANCH   9  10
ENDBRANCH   7   9
ENDBRANCH   3   4
ENDBRANCH   2   3
TORSDOF 11
ENDMDL
MODEL      176
REMARK 921   NORMALIZED FREE ENERGY PREDICTED BY IDOCK:   -3.77 KCAL/MOL
REMARK 922        TOTAL FREE ENERGY PREDICTED BY IDOCK:   -8.45 KCAL/MOL
REMARK 923 INTER-LIGAND FREE ENERGY PREDICTED BY IDOCK:   -6.38 KCAL/MOL
REMARK 924 INTRA-LIGAND FREE ENERGY PREDICTED BY IDOCK:   -2.07 KCAL/MOL
REMARK 927      BINDING AFFINITY PREDICTED BY RF-SCORE:    0.00 PKD
ROOT
HETATM    1  C   UNL     1      -9.092   5.869  72.417  1.00  0.00    -0.140 C  
HETATM    2  C   UNL     1      -7.987   6.721  73.025  1.00  0.00    -0.107 C  
ENDROOT
BRANCH   2   3
HETATM    3  C   UNL     1      -7.826   8.036  72.264  1.00  0.00    -0.151 C  
BRANCH   3   4
HETATM    4  C   UNL     1      -9.168   8.579  71.755  1.00  0.00    -0.316 C  
HETATM    5  C   UNL     1      -9.073   9.242  70.364  1.00  0.00    -0.288 C  
HETATM    6  C   UNL     1      -8.470   8.337  69.265  1.00  0.00    -0.126 C  
HETATM    7  C   UNL     1     -10.448   9.808  69.947  1.00  0.00    -0.261 C  
HETATM    8  C   UNL     1      -9.327   7.138  68.885  1.00  0.00    -0.139 C  
BRANCH   7   9
HETATM    9  O   UNL     1     -10.332  10.394  68.637  1.00  0.00    -0.167 OA 
BRANCH   9  10
HETATM   10  C   UNL     1     -11.478  10.905  68.114  1.00  0.00    -0.295 C  
HETATM   11  O   UNL     1     -12.516  11.078  68.735  1.00  0.00    -0.468 OA 
BRANCH  10  12
HETATM   12  C   UNL     1     -11.254  11.421  66.717  1.00  0.00    -0.319 C  
BRANCH  12  13
HETATM   13  C   UNL     1     -11.378  12.937  66.592  1.00  0.00    -0.317 C  
HETATM   14  O   UNL     1     -10.666  12.814  64.041  1.00  0.00    -0.387 OA 
HETATM   15  S   UNL     1     -11.632  13.431  64.915  1.00  0.00    -0.347 S  
HETATM   16  O   UNL     1     -13.043  12.677  64.682  1.00  0.00    -0.821 OA 
HETATM   17  O   UNL     1     -11.958  14.838  64.848  1.00  0.00    -0.386 OA 
BRANCH  13  18
HETATM   18  C   UNL     1     -10.133  13.607  67.080  1.00  0.00    -0.248 C  
HETATM   19  O   UNL     1     -10.121  14.553  67.856  1.00  0.00    -0.223 OA 
BRANCH  18  20
HETATM   20  O   UNL     1      -9.042  13.146  66.406  1.00  0.00    -0.178 OA 
BRANCH  20  21
HETATM   21  C   UNL     1      -7.873  12.931  67.216  1.00  0.00    -0.131 C  
HETATM   22  C   UNL     1      -7.619  11.459  67.590  1.00  0.00    -0.108 C  
HETATM   23  C   UNL     1      -7.519  10.545  66.348  1.00  0.00    -0.133 C  
HETATM   24  C   UNL     1      -6.375  11.310  68.497  1.00  0.00    -0.047 C  
HETATM   25  C   UNL     1      -6.342  10.829  65.425  1.00  0.00     0.015 C  
BRANCH  24  26
HETATM   26  C   UNL     1      -6.468  12.099  69.807  1.00  0.00    -0.050 C  
BRANCH  26  27
HETATM   27  C   UNL     1      -5.299  13.072  69.962  1.00  0.00    -0.102 C  
HETATM   28  C   UNL     1      -5.801  14.496  70.159  1.00  0.00    -0.140 C  
ENDBRANCH  26  27
ENDBRANCH  24  26
ENDBRANCH  20  21
ENDBRANCH  18  20
ENDBRANCH  13  18
ENDBRANCH  12  13
ENDBRANCH  10  12
ENDBRANCH   9  10
ENDBRANCH   7   9
ENDBRANCH   3   4
ENDBRANCH   2   3
TORSDOF 11
ENDMDL
MODEL      177
REMARK 921   NORMALIZED FREE ENERGY PREDICTED BY IDOCK:   -3.77 KCAL/MOL
REMARK 922        TOTAL FREE ENERGY PREDICTED BY IDOCK:   -8.43 KCAL/MOL
REMARK 923 INTER-LIGAND FREE ENERGY PREDICTED BY IDOCK:   -7.40 KCAL/MOL
REMARK 924 INTRA-LIGAND FREE ENERGY PREDICTED BY IDOCK:   -1.04 KCAL/MOL
REMARK 927      BINDING AFFINITY PREDICTED BY RF-SCORE:    0.00 PKD
ROOT
HETATM    1  C   UNL     1      -8.466   2.317  67.663  1.00  0.00    -0.098 C  
HETATM    2  C   UNL     1      -7.889   3.720  67.537  1.00  0.00    -0.082 C  
ENDROOT
BRANCH   2   3
HETATM    3  C   UNL     1      -8.848   4.643  66.785  1.00  0.00    -0.111 C  
BRANCH   3   4
HETATM    4  C   UNL     1      -8.633   6.118  67.144  1.00  0.00    -0.103 C  
HETATM    5  C   UNL     1      -9.883   6.994  66.912  1.00  0.00    -0.259 C  
HETATM    6  C   UNL     1     -11.153   6.499  67.641  1.00  0.00    -0.380 C  
HETATM    7  C   UNL     1      -9.572   8.469  67.244  1.00  0.00    -0.171 C  
HETATM    8  C   UNL     1     -11.094   6.590  69.159  1.00  0.00    -0.387 C  
BRANCH   7   9
HETATM    9  O   UNL     1     -10.763   9.253  67.044  1.00  0.00    -0.232 OA 
BRANCH   9  10
HETATM   10  C   UNL     1     -10.891  10.347  67.839  1.00  0.00    -0.279 C  
HETATM   11  O   UNL     1     -11.069  10.319  69.048  1.00  0.00    -0.225 OA 
BRANCH  10  12
HETATM   12  C   UNL     1     -10.589  11.611  67.077  1.00  0.00    -0.272 C  
BRANCH  12  13
HETATM   13  C   UNL     1     -11.651  12.696  67.234  1.00  0.00    -0.364 C  
HETATM   14  O   UNL     1     -10.903  13.799  64.942  1.00  0.00    -0.345 OA 
HETATM   15  S   UNL     1     -12.081  13.412  65.678  1.00  0.00    -0.463 S  
HETATM   16  O   UNL     1     -12.666  12.075  64.981  1.00  0.00    -0.381 OA 
HETATM   17  O   UNL     1     -13.230  14.277  65.821  1.00  0.00    -0.427 OA 
BRANCH  13  18
HETATM   18  C   UNL     1     -11.151  13.794  68.118  1.00  0.00    -0.259 C  
HETATM   19  O   UNL     1     -11.873  14.507  68.801  1.00  0.00    -0.308 OA 
BRANCH  18  20
HETATM   20  O   UNL     1      -9.820  14.008  67.916  1.00  0.00    -0.222 OA 
BRANCH  20  21
HETATM   21  C   UNL     1      -9.349  15.311  68.302  1.00  0.00    -0.194 C  
HETATM   22  C   UNL     1      -8.470  16.010  67.248  1.00  0.00    -0.206 C  
HETATM   23  C   UNL     1      -9.178  16.138  65.882  1.00  0.00    -0.296 C  
HETATM   24  C   UNL     1      -7.966  17.383  67.750  1.00  0.00    -0.208 C  
HETATM   25  C   UNL     1     -10.418  17.022  65.872  1.00  0.00    -0.282 C  
BRANCH  24  26
HETATM   26  C   UNL     1      -7.147  17.305  69.042  1.00  0.00    -0.233 C  
BRANCH  26  27
HETATM   27  C   UNL     1      -6.447  18.631  69.345  1.00  0.00    -0.269 C  
HETATM   28  C   UNL     1      -7.282  19.809  68.861  1.00  0.00    -0.341 C  
ENDBRANCH  26  27
ENDBRANCH  24  26
ENDBRANCH  20  21
ENDBRANCH  18  20
ENDBRANCH  13  18
ENDBRANCH  12  13
ENDBRANCH  10  12
ENDBRANCH   9  10
ENDBRANCH   7   9
ENDBRANCH   3   4
ENDBRANCH   2   3
TORSDOF 11
ENDMDL
MODEL      178
REMARK 921   NORMALIZED FREE ENERGY PREDICTED BY IDOCK:   -3.76 KCAL/MOL
REMARK 922        TOTAL FREE ENERGY PREDICTED BY IDOCK:   -8.43 KCAL/MOL
REMARK 923 INTER-LIGAND FREE ENERGY PREDICTED BY IDOCK:   -6.44 KCAL/MOL
REMARK 924 INTRA-LIGAND FREE ENERGY PREDICTED BY IDOCK:   -1.99 KCAL/MOL
REMARK 927      BINDING AFFINITY PREDICTED BY RF-SCORE:    0.00 PKD
ROOT
HETATM    1  C   UNL     1     -10.664  15.476  70.107  1.00  0.00    -0.345 C  
HETATM    2  C   UNL     1     -11.682  15.538  68.977  1.00  0.00    -0.392 C  
ENDROOT
BRANCH   2   3
HETATM    3  C   UNL     1     -12.060  14.136  68.501  1.00  0.00    -0.312 C  
BRANCH   3   4
HETATM    4  C   UNL     1     -11.117  13.062  69.057  1.00  0.00    -0.281 C  
HETATM    5  C   UNL     1     -10.572  12.103  67.975  1.00  0.00    -0.232 C  
HETATM    6  C   UNL     1      -9.860  12.809  66.798  1.00  0.00    -0.242 C  
HETATM    7  C   UNL     1      -9.678  11.023  68.619  1.00  0.00    -0.195 C  
HETATM    8  C   UNL     1      -8.555  13.501  67.164  1.00  0.00    -0.203 C  
BRANCH   7   9
HETATM    9  O   UNL     1      -9.165  10.165  67.583  1.00  0.00    -0.140 OA 
BRANCH   9  10
HETATM   10  C   UNL     1      -9.766   8.952  67.468  1.00  0.00    -0.170 C  
HETATM   11  O   UNL     1     -10.967   8.774  67.328  1.00  0.00    -0.115 OA 
BRANCH  10  12
HETATM   12  C   UNL     1      -8.747   7.851  67.332  1.00  0.00    -0.128 C  
BRANCH  12  13
HETATM   13  C   UNL     1      -8.286   7.269  68.665  1.00  0.00    -0.125 C  
HETATM   14  O   UNL     1      -6.354   5.926  67.444  1.00  0.00    -0.038 OA 
HETATM   15  S   UNL     1      -6.598   6.753  68.599  1.00  0.00    -0.053 S  
HETATM   16  O   UNL     1      -5.944   8.201  68.302  1.00  0.00    -0.039 OA 
HETATM   17  O   UNL     1      -6.125   6.406  69.920  1.00  0.00    -0.028 OA 
BRANCH  13  18
HETATM   18  C   UNL     1      -9.112   6.076  69.029  1.00  0.00    -0.122 C  
HETATM   19  O   UNL     1      -9.786   5.438  68.232  1.00  0.00    -0.122 OA 
BRANCH  18  20
HETATM   20  O   UNL     1      -9.157   5.916  70.382  1.00  0.00    -0.144 OA 
BRANCH  20  21
HETATM   21  C   UNL     1      -9.604   7.069  71.116  1.00  0.00    -0.165 C  
HETATM   22  C   UNL     1     -11.067   6.996  71.591  1.00  0.00    -0.264 C  
HETATM   23  C   UNL     1     -11.346   5.742  72.448  1.00  0.00    -0.348 C  
HETATM   24  C   UNL     1     -11.489   8.286  72.331  1.00  0.00    -0.463 C  
HETATM   25  C   UNL     1     -10.596   5.680  73.772  1.00  0.00    -0.303 C  
BRANCH  24  26
HETATM   26  C   UNL     1     -11.351   9.556  71.486  1.00  0.00    -0.456 C  
BRANCH  26  27
HETATM   27  C   UNL     1     -12.717  10.115  71.084  1.00  0.00    -0.494 C  
HETATM   28  C   UNL     1     -13.009  11.417  71.818  1.00  0.00    -0.519 C  
ENDBRANCH  26  27
ENDBRANCH  24  26
ENDBRANCH  20  21
ENDBRANCH  18  20
ENDBRANCH  13  18
ENDBRANCH  12  13
ENDBRANCH  10  12
ENDBRANCH   9  10
ENDBRANCH   7   9
ENDBRANCH   3   4
ENDBRANCH   2   3
TORSDOF 11
ENDMDL
MODEL      179
REMARK 921   NORMALIZED FREE ENERGY PREDICTED BY IDOCK:   -3.76 KCAL/MOL
REMARK 922        TOTAL FREE ENERGY PREDICTED BY IDOCK:   -8.43 KCAL/MOL
REMARK 923 INTER-LIGAND FREE ENERGY PREDICTED BY IDOCK:   -7.67 KCAL/MOL
REMARK 924 INTRA-LIGAND FREE ENERGY PREDICTED BY IDOCK:   -0.76 KCAL/MOL
REMARK 927      BINDING AFFINITY PREDICTED BY RF-SCORE:    0.00 PKD
ROOT
HETATM    1  C   UNL     1      -7.052   9.452  67.067  1.00  0.00    -0.086 C  
HETATM    2  C   UNL     1      -7.839   8.150  67.125  1.00  0.00    -0.101 C  
ENDROOT
BRANCH   2   3
HETATM    3  C   UNL     1      -9.144   8.263  66.336  1.00  0.00    -0.226 C  
BRANCH   3   4
HETATM    4  C   UNL     1      -9.397   9.690  65.835  1.00  0.00    -0.275 C  
HETATM    5  C   UNL     1     -10.798  10.228  66.197  1.00  0.00     0.052 C  
HETATM    6  C   UNL     1     -11.129  10.180  67.707  1.00  0.00    -0.293 C  
HETATM    7  C   UNL     1     -10.995  11.643  65.614  1.00  0.00    -0.266 C  
HETATM    8  C   UNL     1     -10.298  11.115  68.572  1.00  0.00    -0.207 C  
BRANCH   7   9
HETATM    9  O   UNL     1     -12.297  12.126  65.993  1.00  0.00    -0.550 OA 
BRANCH   9  10
HETATM   10  C   UNL     1     -12.449  13.476  65.999  1.00  0.00    -0.399 C  
HETATM   11  O   UNL     1     -13.469  14.068  65.678  1.00  0.00    -0.604 OA 
BRANCH  10  12
HETATM   12  C   UNL     1     -11.268  14.153  66.642  1.00  0.00    -0.330 C  
BRANCH  12  13
HETATM   13  C   UNL     1     -11.400  15.671  66.733  1.00  0.00     0.013 C  
HETATM   14  O   UNL     1      -9.065  15.976  65.515  1.00  0.00    -0.320 OA 
HETATM   15  S   UNL     1     -10.415  16.482  65.512  1.00  0.00    -0.223 S  
HETATM   16  O   UNL     1     -11.153  15.878  64.206  1.00  0.00    -0.437 OA 
HETATM   17  O   UNL     1     -10.718  17.895  65.477  1.00  0.00    -0.585 OA 
BRANCH  13  18
HETATM   18  C   UNL     1     -10.952  16.156  68.075  1.00  0.00    -0.338 C  
HETATM   19  O   UNL     1     -10.905  15.457  69.078  1.00  0.00    -0.224 OA 
BRANCH  18  20
HETATM   20  O   UNL     1     -10.785  17.509  68.067  1.00  0.00    -0.387 OA 
BRANCH  20  21
HETATM   21  C   UNL     1      -9.680  17.989  68.853  1.00  0.00    -0.271 C  
HETATM   22  C   UNL     1      -8.511  18.562  68.029  1.00  0.00    -0.302 C  
HETATM   23  C   UNL     1      -8.960  19.698  67.084  1.00  0.00    -0.385 C  
HETATM   24  C   UNL     1      -7.345  19.015  68.938  1.00  0.00    -0.360 C  
HETATM   25  C   UNL     1      -9.483  20.950  67.774  1.00  0.00    -0.188 C  
BRANCH  24  26
HETATM   26  C   UNL     1      -6.774  17.896  69.814  1.00  0.00     0.114 C  
BRANCH  26  27
HETATM   27  C   UNL     1      -5.621  18.397  70.685  1.00  0.00    -0.169 C  
HETATM   28  C   UNL     1      -5.752  19.890  70.952  1.00  0.00    -0.327 C  
ENDBRANCH  26  27
ENDBRANCH  24  26
ENDBRANCH  20  21
ENDBRANCH  18  20
ENDBRANCH  13  18
ENDBRANCH  12  13
ENDBRANCH  10  12
ENDBRANCH   9  10
ENDBRANCH   7   9
ENDBRANCH   3   4
ENDBRANCH   2   3
TORSDOF 11
ENDMDL
MODEL      180
REMARK 921   NORMALIZED FREE ENERGY PREDICTED BY IDOCK:   -3.75 KCAL/MOL
REMARK 922        TOTAL FREE ENERGY PREDICTED BY IDOCK:   -8.41 KCAL/MOL
REMARK 923 INTER-LIGAND FREE ENERGY PREDICTED BY IDOCK:   -6.80 KCAL/MOL
REMARK 924 INTRA-LIGAND FREE ENERGY PREDICTED BY IDOCK:   -1.62 KCAL/MOL
REMARK 927      BINDING AFFINITY PREDICTED BY RF-SCORE:    0.00 PKD
ROOT
HETATM    1  C   UNL     1     -10.631  18.985  66.461  1.00  0.00    -0.495 C  
HETATM    2  C   UNL     1     -10.225  19.387  67.872  1.00  0.00    -0.530 C  
ENDROOT
BRANCH   2   3
HETATM    3  C   UNL     1     -10.184  18.171  68.798  1.00  0.00    -0.353 C  
BRANCH   3   4
HETATM    4  C   UNL     1     -10.675  16.896  68.102  1.00  0.00    -0.375 C  
HETATM    5  C   UNL     1     -10.357  15.606  68.889  1.00  0.00    -0.218 C  
HETATM    6  C   UNL     1     -10.887  15.598  70.341  1.00  0.00    -0.358 C  
HETATM    7  C   UNL     1     -10.834  14.368  68.100  1.00  0.00    -0.244 C  
HETATM    8  C   UNL     1     -12.403  15.572  70.468  1.00  0.00    -0.461 C  
BRANCH   7   9
HETATM    9  O   UNL     1     -10.549  13.187  68.872  1.00  0.00    -0.216 OA 
BRANCH   9  10
HETATM   10  C   UNL     1     -11.464  12.186  68.783  1.00  0.00    -0.307 C  
HETATM   11  O   UNL     1     -12.082  11.888  67.771  1.00  0.00    -0.564 OA 
BRANCH  10  12
HETATM   12  C   UNL     1     -11.482  11.352  70.037  1.00  0.00    -0.331 C  
BRANCH  12  13
HETATM   13  C   UNL     1     -11.324   9.855  69.786  1.00  0.00    -0.193 C  
HETATM   14  O   UNL     1     -11.423   9.378  72.392  1.00  0.00     0.053 OA 
HETATM   15  S   UNL     1     -11.946   8.902  71.136  1.00  0.00    -0.276 S  
HETATM   16  O   UNL     1     -13.488   9.381  71.044  1.00  0.00    -0.258 OA 
HETATM   17  O   UNL     1     -11.982   7.499  70.789  1.00  0.00    -0.277 OA 
BRANCH  13  18
HETATM   18  C   UNL     1      -9.881   9.504  69.608  1.00  0.00    -0.205 C  
HETATM   19  O   UNL     1      -9.023   9.668  70.464  1.00  0.00    -0.236 OA 
BRANCH  18  20
HETATM   20  O   UNL     1      -9.626   9.155  68.315  1.00  0.00    -0.145 OA 
BRANCH  20  21
HETATM   21  C   UNL     1      -8.960  10.162  67.534  1.00  0.00    -0.131 C  
HETATM   22  C   UNL     1      -7.422  10.099  67.589  1.00  0.00    -0.090 C  
HETATM   23  C   UNL     1      -6.875   8.718  67.163  1.00  0.00    -0.067 C  
HETATM   24  C   UNL     1      -6.777  11.237  66.764  1.00  0.00    -0.140 C  
HETATM   25  C   UNL     1      -7.141   8.332  65.714  1.00  0.00    -0.071 C  
BRANCH  24  26
HETATM   26  C   UNL     1      -7.187  12.640  67.221  1.00  0.00    -0.106 C  
BRANCH  26  27
HETATM   27  C   UNL     1      -6.248  13.176  68.302  1.00  0.00    -0.092 C  
HETATM   28  C   UNL     1      -6.953  14.209  69.171  1.00  0.00    -0.111 C  
ENDBRANCH  26  27
ENDBRANCH  24  26
ENDBRANCH  20  21
ENDBRANCH  18  20
ENDBRANCH  13  18
ENDBRANCH  12  13
ENDBRANCH  10  12
ENDBRANCH   9  10
ENDBRANCH   7   9
ENDBRANCH   3   4
ENDBRANCH   2   3
TORSDOF 11
ENDMDL
MODEL      181
REMARK 921   NORMALIZED FREE ENERGY PREDICTED BY IDOCK:   -3.75 KCAL/MOL
REMARK 922        TOTAL FREE ENERGY PREDICTED BY IDOCK:   -8.41 KCAL/MOL
REMARK 923 INTER-LIGAND FREE ENERGY PREDICTED BY IDOCK:   -7.14 KCAL/MOL
REMARK 924 INTRA-LIGAND FREE ENERGY PREDICTED BY IDOCK:   -1.27 KCAL/MOL
REMARK 927      BINDING AFFINITY PREDICTED BY RF-SCORE:    0.00 PKD
ROOT
HETATM    1  C   UNL     1     -10.187  19.916  66.827  1.00  0.00    -0.603 C  
HETATM    2  C   UNL     1      -8.755  19.993  66.317  1.00  0.00    -0.346 C  
ENDROOT
BRANCH   2   3
HETATM    3  C   UNL     1      -7.763  19.559  67.396  1.00  0.00    -0.284 C  
BRANCH   3   4
HETATM    4  C   UNL     1      -8.369  18.531  68.359  1.00  0.00    -0.355 C  
HETATM    5  C   UNL     1      -7.672  17.154  68.305  1.00  0.00    -0.220 C  
HETATM    6  C   UNL     1      -6.146  17.203  68.547  1.00  0.00    -0.149 C  
HETATM    7  C   UNL     1      -8.371  16.163  69.260  1.00  0.00    -0.178 C  
HETATM    8  C   UNL     1      -5.736  17.608  69.956  1.00  0.00    -0.246 C  
BRANCH   7   9
HETATM    9  O   UNL     1      -7.681  14.901  69.207  1.00  0.00    -0.163 OA 
BRANCH   9  10
HETATM   10  C   UNL     1      -8.133  14.017  68.278  1.00  0.00    -0.148 C  
HETATM   11  O   UNL     1      -7.430  13.425  67.472  1.00  0.00    -0.156 OA 
BRANCH  10  12
HETATM   12  C   UNL     1      -9.590  13.702  68.493  1.00  0.00    -0.165 C  
BRANCH  12  13
HETATM   13  C   UNL     1     -10.304  13.201  67.241  1.00  0.00    -0.243 C  
HETATM   14  O   UNL     1     -12.523  14.455  67.968  1.00  0.00    -0.084 OA 
HETATM   15  S   UNL     1     -11.679  14.227  66.822  1.00  0.00    -0.416 S  
HETATM   16  O   UNL     1     -10.853  15.591  66.554  1.00  0.00    -0.313 OA 
HETATM   17  O   UNL     1     -12.205  13.862  65.527  1.00  0.00    -0.392 OA 
BRANCH  13  18
HETATM   18  C   UNL     1     -10.821  11.813  67.453  1.00  0.00    -0.251 C  
HETATM   19  O   UNL     1     -10.896  10.966  66.573  1.00  0.00    -0.242 OA 
BRANCH  18  20
HETATM   20  O   UNL     1     -11.361  11.685  68.697  1.00  0.00    -0.219 OA 
BRANCH  20  21
HETATM   21  C   UNL     1     -10.970  10.498  69.410  1.00  0.00    -0.250 C  
HETATM   22  C   UNL     1     -11.126  10.592  70.939  1.00  0.00     0.080 C  
HETATM   23  C   UNL     1     -12.566  10.956  71.363  1.00  0.00    -0.508 C  
HETATM   24  C   UNL     1     -10.645   9.299  71.638  1.00  0.00    -0.360 C  
HETATM   25  C   UNL     1     -13.627   9.921  71.015  1.00  0.00    -0.168 C  
BRANCH  24  26
HETATM   26  C   UNL     1      -9.181   8.951  71.354  1.00  0.00    -0.328 C  
BRANCH  26  27
HETATM   27  C   UNL     1      -8.702   7.784  72.218  1.00  0.00    -0.177 C  
HETATM   28  C   UNL     1      -8.355   8.256  73.624  1.00  0.00    -0.259 C  
ENDBRANCH  26  27
ENDBRANCH  24  26
ENDBRANCH  20  21
ENDBRANCH  18  20
ENDBRANCH  13  18
ENDBRANCH  12  13
ENDBRANCH  10  12
ENDBRANCH   9  10
ENDBRANCH   7   9
ENDBRANCH   3   4
ENDBRANCH   2   3
TORSDOF 11
ENDMDL
MODEL      182
REMARK 921   NORMALIZED FREE ENERGY PREDICTED BY IDOCK:   -3.74 KCAL/MOL
REMARK 922        TOTAL FREE ENERGY PREDICTED BY IDOCK:   -8.40 KCAL/MOL
REMARK 923 INTER-LIGAND FREE ENERGY PREDICTED BY IDOCK:   -7.37 KCAL/MOL
REMARK 924 INTRA-LIGAND FREE ENERGY PREDICTED BY IDOCK:   -1.03 KCAL/MOL
REMARK 927      BINDING AFFINITY PREDICTED BY RF-SCORE:    0.00 PKD
ROOT
HETATM    1  C   UNL     1     -10.474  19.730  66.683  1.00  0.00    -0.615 C  
HETATM    2  C   UNL     1      -9.994  19.852  68.123  1.00  0.00    -0.551 C  
ENDROOT
BRANCH   2   3
HETATM    3  C   UNL     1      -9.768  18.474  68.745  1.00  0.00    -0.390 C  
BRANCH   3   4
HETATM    4  C   UNL     1     -10.485  17.364  67.968  1.00  0.00    -0.383 C  
HETATM    5  C   UNL     1     -10.158  15.945  68.483  1.00  0.00    -0.217 C  
HETATM    6  C   UNL     1     -10.433  15.735  69.990  1.00  0.00    -0.313 C  
HETATM    7  C   UNL     1     -10.873  14.884  67.618  1.00  0.00    -0.286 C  
HETATM    8  C   UNL     1     -11.902  15.784  70.384  1.00  0.00    -0.391 C  
BRANCH   7   9
HETATM    9  O   UNL     1     -10.571  13.578  68.141  1.00  0.00    -0.232 OA 
BRANCH   9  10
HETATM   10  C   UNL     1     -11.593  12.683  68.126  1.00  0.00    -0.338 C  
HETATM   11  O   UNL     1     -12.777  12.969  68.229  1.00  0.00     0.534 OA 
BRANCH  10  12
HETATM   12  C   UNL     1     -11.105  11.305  67.764  1.00  0.00    -0.328 C  
BRANCH  12  13
HETATM   13  C   UNL     1      -9.584  11.184  67.709  1.00  0.00    -0.172 C  
HETATM   14  O   UNL     1      -9.744   9.855  65.420  1.00  0.00    -0.269 OA 
HETATM   15  S   UNL     1      -9.013  10.922  66.058  1.00  0.00    -0.190 S  
HETATM   16  O   UNL     1      -9.542  12.313  65.426  1.00  0.00    -0.186 OA 
HETATM   17  O   UNL     1      -7.573  11.023  66.001  1.00  0.00    -0.129 OA 
BRANCH  13  18
HETATM   18  C   UNL     1      -9.121  10.029  68.539  1.00  0.00    -0.127 C  
HETATM   19  O   UNL     1      -8.324  10.123  69.462  1.00  0.00    -0.154 OA 
BRANCH  18  20
HETATM   20  O   UNL     1      -9.558   8.850  68.012  1.00  0.00    -0.144 OA 
BRANCH  20  21
HETATM   21  C   UNL     1      -9.466   7.719  68.896  1.00  0.00    -0.150 C  
HETATM   22  C   UNL     1     -10.667   6.758  68.831  1.00  0.00    -0.276 C  
HETATM   23  C   UNL     1     -10.923   6.233  67.401  1.00  0.00    -0.447 C  
HETATM   24  C   UNL     1     -10.517   5.594  69.838  1.00  0.00    -0.378 C  
HETATM   25  C   UNL     1      -9.814   5.368  66.817  1.00  0.00    -0.190 C  
BRANCH  24  26
HETATM   26  C   UNL     1     -10.383   6.050  71.294  1.00  0.00    -0.266 C  
BRANCH  26  27
HETATM   27  C   UNL     1     -11.729   6.489  71.872  1.00  0.00    -0.371 C  
HETATM   28  C   UNL     1     -11.700   7.963  72.255  1.00  0.00    -0.408 C  
ENDBRANCH  26  27
ENDBRANCH  24  26
ENDBRANCH  20  21
ENDBRANCH  18  20
ENDBRANCH  13  18
ENDBRANCH  12  13
ENDBRANCH  10  12
ENDBRANCH   9  10
ENDBRANCH   7   9
ENDBRANCH   3   4
ENDBRANCH   2   3
TORSDOF 11
ENDMDL
MODEL      183
REMARK 921   NORMALIZED FREE ENERGY PREDICTED BY IDOCK:   -3.74 KCAL/MOL
REMARK 922        TOTAL FREE ENERGY PREDICTED BY IDOCK:   -8.39 KCAL/MOL
REMARK 923 INTER-LIGAND FREE ENERGY PREDICTED BY IDOCK:   -6.80 KCAL/MOL
REMARK 924 INTRA-LIGAND FREE ENERGY PREDICTED BY IDOCK:   -1.59 KCAL/MOL
REMARK 927      BINDING AFFINITY PREDICTED BY RF-SCORE:    0.00 PKD
ROOT
HETATM    1  C   UNL     1     -10.787  15.331  64.930  1.00  0.00    -0.444 C  
HETATM    2  C   UNL     1     -10.965  15.282  66.441  1.00  0.00    -0.299 C  
ENDROOT
BRANCH   2   3
HETATM    3  C   UNL     1     -11.609  13.965  66.875  1.00  0.00    -0.400 C  
BRANCH   3   4
HETATM    4  C   UNL     1     -10.570  12.859  67.099  1.00  0.00    -0.246 C  
HETATM    5  C   UNL     1     -10.990  11.494  66.511  1.00  0.00    -0.346 C  
HETATM    6  C   UNL     1     -11.341  11.530  65.005  1.00  0.00    -0.168 C  
HETATM    7  C   UNL     1      -9.922  10.425  66.824  1.00  0.00    -0.206 C  
HETATM    8  C   UNL     1     -10.165  11.821  64.083  1.00  0.00    -0.363 C  
BRANCH   7   9
HETATM    9  O   UNL     1     -10.329   9.175  66.238  1.00  0.00    -0.244 OA 
BRANCH   9  10
HETATM   10  C   UNL     1     -10.552   8.158  67.111  1.00  0.00    -0.285 C  
HETATM   11  O   UNL     1     -10.942   7.041  66.803  1.00  0.00    -0.317 OA 
BRANCH  10  12
HETATM   12  C   UNL     1     -10.066   8.510  68.492  1.00  0.00    -0.214 C  
BRANCH  12  13
HETATM   13  C   UNL     1     -11.156   8.471  69.560  1.00  0.00     0.052 C  
HETATM   14  O   UNL     1      -9.495   9.524  71.337  1.00  0.00    -0.224 OA 
HETATM   15  S   UNL     1     -10.846   9.639  70.847  1.00  0.00    -0.337 S  
HETATM   16  O   UNL     1     -10.919  10.978  69.944  1.00  0.00    -0.239 OA 
HETATM   17  O   UNL     1     -11.989   9.734  71.727  1.00  0.00    -0.392 OA 
BRANCH  13  18
HETATM   18  C   UNL     1     -11.229   7.114  70.184  1.00  0.00    -0.262 C  
HETATM   19  O   UNL     1     -12.197   6.693  70.803  1.00  0.00    -0.378 OA 
BRANCH  18  20
HETATM   20  O   UNL     1     -10.017   6.492  70.129  1.00  0.00    -0.166 OA 
BRANCH  20  21
HETATM   21  C   UNL     1     -10.075   5.060  70.014  1.00  0.00    -0.272 C  
HETATM   22  C   UNL     1      -9.145   4.304  70.981  1.00  0.00    -0.181 C  
HETATM   23  C   UNL     1      -9.401   4.679  72.458  1.00  0.00    -0.157 C  
HETATM   24  C   UNL     1      -9.228   2.774  70.769  1.00  0.00    -0.204 C  
HETATM   25  C   UNL     1     -10.772   4.296  72.998  1.00  0.00    -0.272 C  
BRANCH  24  26
HETATM   26  C   UNL     1      -8.863   2.327  69.350  1.00  0.00    -0.146 C  
BRANCH  26  27
HETATM   27  C   UNL     1      -7.356   2.406  69.106  1.00  0.00    -0.044 C  
HETATM   28  C   UNL     1      -7.055   3.138  67.805  1.00  0.00    -0.050 C  
ENDBRANCH  26  27
ENDBRANCH  24  26
ENDBRANCH  20  21
ENDBRANCH  18  20
ENDBRANCH  13  18
ENDBRANCH  12  13
ENDBRANCH  10  12
ENDBRANCH   9  10
ENDBRANCH   7   9
ENDBRANCH   3   4
ENDBRANCH   2   3
TORSDOF 11
ENDMDL
MODEL      184
REMARK 921   NORMALIZED FREE ENERGY PREDICTED BY IDOCK:   -3.72 KCAL/MOL
REMARK 922        TOTAL FREE ENERGY PREDICTED BY IDOCK:   -8.36 KCAL/MOL
REMARK 923 INTER-LIGAND FREE ENERGY PREDICTED BY IDOCK:   -7.29 KCAL/MOL
REMARK 924 INTRA-LIGAND FREE ENERGY PREDICTED BY IDOCK:   -1.07 KCAL/MOL
REMARK 927      BINDING AFFINITY PREDICTED BY RF-SCORE:    0.00 PKD
ROOT
HETATM    1  C   UNL     1     -12.266  14.624  64.226  1.00  0.00    -0.432 C  
HETATM    2  C   UNL     1     -12.695  13.738  65.387  1.00  0.00    -0.513 C  
ENDROOT
BRANCH   2   3
HETATM    3  C   UNL     1     -11.954  14.117  66.669  1.00  0.00    -0.470 C  
BRANCH   3   4
HETATM    4  C   UNL     1     -11.692  12.902  67.567  1.00  0.00    -0.422 C  
HETATM    5  C   UNL     1     -11.237  11.648  66.787  1.00  0.00    -0.371 C  
HETATM    6  C   UNL     1      -9.993  11.868  65.897  1.00  0.00    -0.261 C  
HETATM    7  C   UNL     1     -11.047  10.458  67.752  1.00  0.00    -0.299 C  
HETATM    8  C   UNL     1      -8.703  12.139  66.658  1.00  0.00    -0.153 C  
BRANCH   7   9
HETATM    9  O   UNL     1     -10.598   9.317  67.000  1.00  0.00    -0.246 OA 
BRANCH   9  10
HETATM   10  C   UNL     1     -10.645   8.124  67.649  1.00  0.00    -0.188 C  
HETATM   11  O   UNL     1     -10.969   7.061  67.140  1.00  0.00    -0.357 OA 
BRANCH  10  12
HETATM   12  C   UNL     1     -10.056   8.233  69.030  1.00  0.00    -0.208 C  
BRANCH  12  13
HETATM   13  C   UNL     1     -10.905   7.579  70.117  1.00  0.00    -0.249 C  
HETATM   14  O   UNL     1      -9.743   9.079  71.969  1.00  0.00    -0.290 OA 
HETATM   15  S   UNL     1     -11.038   8.610  71.545  1.00  0.00    -0.315 S  
HETATM   16  O   UNL     1     -11.794   9.853  70.840  1.00  0.00    -0.304 OA 
HETATM   17  O   UNL     1     -12.012   8.070  72.467  1.00  0.00    -0.358 OA 
BRANCH  13  18
HETATM   18  C   UNL     1     -10.296   6.282  70.548  1.00  0.00    -0.204 C  
HETATM   19  O   UNL     1     -10.779   5.544  71.396  1.00  0.00    -0.249 OA 
BRANCH  18  20
HETATM   20  O   UNL     1      -9.053   6.131  70.008  1.00  0.00    -0.145 OA 
BRANCH  20  21
HETATM   21  C   UNL     1      -8.522   4.796  70.073  1.00  0.00    -0.074 C  
HETATM   22  C   UNL     1      -9.333   3.747  69.290  1.00  0.00    -0.244 C  
HETATM   23  C   UNL     1      -9.504   4.126  67.802  1.00  0.00    -0.225 C  
HETATM   24  C   UNL     1      -8.728   2.332  69.442  1.00  0.00    -0.130 C  
HETATM   25  C   UNL     1      -8.216   4.176  66.992  1.00  0.00    -0.100 C  
BRANCH  24  26
HETATM   26  C   UNL     1      -8.647   1.848  70.893  1.00  0.00    -0.091 C  
BRANCH  26  27
HETATM   27  C   UNL     1     -10.034   1.742  71.530  1.00  0.00    -0.179 C  
HETATM   28  C   UNL     1     -10.047   2.382  72.912  1.00  0.00    -0.212 C  
ENDBRANCH  26  27
ENDBRANCH  24  26
ENDBRANCH  20  21
ENDBRANCH  18  20
ENDBRANCH  13  18
ENDBRANCH  12  13
ENDBRANCH  10  12
ENDBRANCH   9  10
ENDBRANCH   7   9
ENDBRANCH   3   4
ENDBRANCH   2   3
TORSDOF 11
ENDMDL
MODEL      185
REMARK 921   NORMALIZED FREE ENERGY PREDICTED BY IDOCK:   -3.72 KCAL/MOL
REMARK 922        TOTAL FREE ENERGY PREDICTED BY IDOCK:   -8.35 KCAL/MOL
REMARK 923 INTER-LIGAND FREE ENERGY PREDICTED BY IDOCK:   -7.03 KCAL/MOL
REMARK 924 INTRA-LIGAND FREE ENERGY PREDICTED BY IDOCK:   -1.33 KCAL/MOL
REMARK 927      BINDING AFFINITY PREDICTED BY RF-SCORE:    0.00 PKD
ROOT
HETATM    1  C   UNL     1     -12.447  12.144  63.399  1.00  0.00    -0.625 C  
HETATM    2  C   UNL     1     -11.982  13.443  64.043  1.00  0.00    -0.520 C  
ENDROOT
BRANCH   2   3
HETATM    3  C   UNL     1     -10.825  13.192  65.010  1.00  0.00    -0.331 C  
BRANCH   3   4
HETATM    4  C   UNL     1     -11.083  11.986  65.921  1.00  0.00    -0.369 C  
HETATM    5  C   UNL     1     -10.283  12.032  67.241  1.00  0.00    -0.221 C  
HETATM    6  C   UNL     1     -10.498  13.318  68.072  1.00  0.00    -0.248 C  
HETATM    7  C   UNL     1     -10.555  10.762  68.076  1.00  0.00    -0.207 C  
HETATM    8  C   UNL     1     -11.897  13.479  68.649  1.00  0.00    -0.404 C  
BRANCH   7   9
HETATM    9  O   UNL     1      -9.819  10.849  69.309  1.00  0.00    -0.185 OA 
BRANCH   9  10
HETATM   10  C   UNL     1      -9.598   9.672  69.952  1.00  0.00    -0.230 C  
HETATM   11  O   UNL     1      -8.623   8.954  69.786  1.00  0.00    -0.123 OA 
BRANCH  10  12
HETATM   12  C   UNL     1     -10.608   9.454  71.047  1.00  0.00    -0.400 C  
BRANCH  12  13
HETATM   13  C   UNL     1     -11.802   8.602  70.626  1.00  0.00    -0.102 C  
HETATM   14  O   UNL     1     -12.925   8.946  73.003  1.00  0.00    -0.297 OA 
HETATM   15  S   UNL     1     -13.234   8.965  71.595  1.00  0.00    -0.362 S  
HETATM   16  O   UNL     1     -13.399  10.513  71.159  1.00  0.00    -0.317 OA 
HETATM   17  O   UNL     1     -14.396   8.307  71.043  1.00  0.00    -0.202 OA 
BRANCH  13  18
HETATM   18  C   UNL     1     -11.494   7.148  70.797  1.00  0.00    -0.305 C  
HETATM   19  O   UNL     1     -11.715   6.294  69.948  1.00  0.00    -0.408 OA 
BRANCH  18  20
HETATM   20  O   UNL     1     -11.113   6.883  72.078  1.00  0.00    -0.233 OA 
BRANCH  20  21
HETATM   21  C   UNL     1     -10.189   5.791  72.224  1.00  0.00    -0.196 C  
HETATM   22  C   UNL     1      -8.707   6.188  72.093  1.00  0.00    -0.131 C  
HETATM   23  C   UNL     1      -8.304   7.296  73.090  1.00  0.00    -0.140 C  
HETATM   24  C   UNL     1      -7.777   4.958  72.215  1.00  0.00    -0.091 C  
HETATM   25  C   UNL     1      -8.383   6.908  74.561  1.00  0.00    -0.183 C  
BRANCH  24  26
HETATM   26  C   UNL     1      -8.048   3.873  71.169  1.00  0.00    -0.064 C  
BRANCH  26  27
HETATM   27  C   UNL     1      -7.930   4.421  69.746  1.00  0.00    -0.056 C  
HETATM   28  C   UNL     1      -8.226   3.335  68.720  1.00  0.00    -0.076 C  
ENDBRANCH  26  27
ENDBRANCH  24  26
ENDBRANCH  20  21
ENDBRANCH  18  20
ENDBRANCH  13  18
ENDBRANCH  12  13
ENDBRANCH  10  12
ENDBRANCH   9  10
ENDBRANCH   7   9
ENDBRANCH   3   4
ENDBRANCH   2   3
TORSDOF 11
ENDMDL
MODEL      186
REMARK 921   NORMALIZED FREE ENERGY PREDICTED BY IDOCK:   -3.72 KCAL/MOL
REMARK 922        TOTAL FREE ENERGY PREDICTED BY IDOCK:   -8.35 KCAL/MOL
REMARK 923 INTER-LIGAND FREE ENERGY PREDICTED BY IDOCK:   -6.63 KCAL/MOL
REMARK 924 INTRA-LIGAND FREE ENERGY PREDICTED BY IDOCK:   -1.73 KCAL/MOL
REMARK 927      BINDING AFFINITY PREDICTED BY RF-SCORE:    0.00 PKD
ROOT
HETATM    1  C   UNL     1     -10.340  16.653  67.095  1.00  0.00    -0.300 C  
HETATM    2  C   UNL     1     -10.430  15.311  66.382  1.00  0.00    -0.307 C  
ENDROOT
BRANCH   2   3
HETATM    3  C   UNL     1     -11.663  14.530  66.835  1.00  0.00    -0.399 C  
BRANCH   3   4
HETATM    4  C   UNL     1     -11.474  13.903  68.222  1.00  0.00    -0.346 C  
HETATM    5  C   UNL     1     -11.857  12.407  68.276  1.00  0.00    -0.364 C  
HETATM    6  C   UNL     1     -11.123  11.524  67.241  1.00  0.00    -0.351 C  
HETATM    7  C   UNL     1     -11.691  11.865  69.711  1.00  0.00    -0.331 C  
HETATM    8  C   UNL     1      -9.626  11.381  67.472  1.00  0.00    -0.176 C  
BRANCH   7   9
HETATM    9  O   UNL     1     -12.028  10.465  69.721  1.00  0.00    -0.238 OA 
BRANCH   9  10
HETATM   10  C   UNL     1     -12.576   9.996  70.873  1.00  0.00    -0.332 C  
HETATM   11  O   UNL     1     -13.774   9.857  71.073  1.00  0.00    -0.268 OA 
BRANCH  10  12
HETATM   12  C   UNL     1     -11.516   9.478  71.808  1.00  0.00    -0.349 C  
BRANCH  12  13
HETATM   13  C   UNL     1     -10.649   8.375  71.208  1.00  0.00    -0.222 C  
HETATM   14  O   UNL     1     -10.703   7.045  73.500  1.00  0.00    -0.349 OA 
HETATM   15  S   UNL     1     -10.843   6.851  72.079  1.00  0.00    -0.231 S  
HETATM   16  O   UNL     1     -12.415   6.630  71.775  1.00  0.00    -0.352 OA 
HETATM   17  O   UNL     1     -10.183   5.778  71.370  1.00  0.00    -0.201 OA 
BRANCH  13  18
HETATM   18  C   UNL     1      -9.203   8.753  71.270  1.00  0.00    -0.241 C  
HETATM   19  O   UNL     1      -8.539   8.764  72.298  1.00  0.00    -0.377 OA 
BRANCH  18  20
HETATM   20  O   UNL     1      -8.785   9.257  70.074  1.00  0.00    -0.158 OA 
BRANCH  20  21
HETATM   21  C   UNL     1      -8.503   8.271  69.066  1.00  0.00    -0.131 C  
HETATM   22  C   UNL     1      -7.228   8.543  68.246  1.00  0.00    -0.086 C  
HETATM   23  C   UNL     1      -5.975   8.692  69.137  1.00  0.00    -0.042 C  
HETATM   24  C   UNL     1      -7.015   7.468  67.154  1.00  0.00    -0.083 C  
HETATM   25  C   UNL     1      -5.575   7.442  69.910  1.00  0.00    -0.023 C  
BRANCH  24  26
HETATM   26  C   UNL     1      -8.176   7.359  66.161  1.00  0.00    -0.130 C  
BRANCH  26  27
HETATM   27  C   UNL     1      -8.690   5.923  66.053  1.00  0.00    -0.148 C  
HETATM   28  C   UNL     1      -7.739   4.952  66.740  1.00  0.00    -0.092 C  
ENDBRANCH  26  27
ENDBRANCH  24  26
ENDBRANCH  20  21
ENDBRANCH  18  20
ENDBRANCH  13  18
ENDBRANCH  12  13
ENDBRANCH  10  12
ENDBRANCH   9  10
ENDBRANCH   7   9
ENDBRANCH   3   4
ENDBRANCH   2   3
TORSDOF 11
ENDMDL
MODEL      187
REMARK 921   NORMALIZED FREE ENERGY PREDICTED BY IDOCK:   -3.71 KCAL/MOL
REMARK 922        TOTAL FREE ENERGY PREDICTED BY IDOCK:   -8.35 KCAL/MOL
REMARK 923 INTER-LIGAND FREE ENERGY PREDICTED BY IDOCK:   -6.61 KCAL/MOL
REMARK 924 INTRA-LIGAND FREE ENERGY PREDICTED BY IDOCK:   -1.75 KCAL/MOL
REMARK 927      BINDING AFFINITY PREDICTED BY RF-SCORE:    0.00 PKD
ROOT
HETATM    1  C   UNL     1     -11.694  14.272  64.934  1.00  0.00    -0.399 C  
HETATM    2  C   UNL     1     -12.147  13.365  63.798  1.00  0.00    -0.516 C  
ENDROOT
BRANCH   2   3
HETATM    3  C   UNL     1     -11.044  12.381  63.410  1.00  0.00    -0.465 C  
BRANCH   3   4
HETATM    4  C   UNL     1     -10.340  11.786  64.636  1.00  0.00    -0.336 C  
HETATM    5  C   UNL     1     -10.008  10.285  64.484  1.00  0.00    -0.359 C  
HETATM    6  C   UNL     1      -9.170   9.941  63.232  1.00  0.00    -0.274 C  
HETATM    7  C   UNL     1      -9.354   9.750  65.776  1.00  0.00    -0.221 C  
HETATM    8  C   UNL     1      -7.749  10.486  63.246  1.00  0.00    -0.026 C  
BRANCH   7   9
HETATM    9  O   UNL     1      -9.032   8.359  65.592  1.00  0.00    -0.179 OA 
BRANCH   9  10
HETATM   10  C   UNL     1      -8.541   7.716  66.684  1.00  0.00    -0.133 C  
HETATM   11  O   UNL     1      -7.356   7.622  66.968  1.00  0.00    -0.086 OA 
BRANCH  10  12
HETATM   12  C   UNL     1      -9.649   7.300  67.614  1.00  0.00    -0.160 C  
BRANCH  12  13
HETATM   13  C   UNL     1      -9.168   6.882  69.001  1.00  0.00    -0.137 C  
HETATM   14  O   UNL     1     -11.645   6.247  69.701  1.00  0.00    -0.430 OA 
HETATM   15  S   UNL     1     -10.292   5.754  69.764  1.00  0.00    -0.291 S  
HETATM   16  O   UNL     1     -10.163   4.559  68.683  1.00  0.00    -0.040 OA 
HETATM   17  O   UNL     1      -9.717   5.211  70.974  1.00  0.00    -0.164 OA 
BRANCH  13  18
HETATM   18  C   UNL     1      -9.044   8.075  69.894  1.00  0.00    -0.145 C  
HETATM   19  O   UNL     1      -8.327   8.121  70.884  1.00  0.00    -0.111 OA 
BRANCH  18  20
HETATM   20  O   UNL     1      -9.967   9.023  69.564  1.00  0.00    -0.181 OA 
BRANCH  20  21
HETATM   21  C   UNL     1      -9.446  10.356  69.427  1.00  0.00    -0.183 C  
HETATM   22  C   UNL     1     -10.213  11.241  68.426  1.00  0.00    -0.205 C  
HETATM   23  C   UNL     1     -11.717  11.344  68.764  1.00  0.00    -0.404 C  
HETATM   24  C   UNL     1      -9.570  12.642  68.299  1.00  0.00    -0.208 C  
HETATM   25  C   UNL     1     -12.042  12.030  70.084  1.00  0.00    -0.377 C  
BRANCH  24  26
HETATM   26  C   UNL     1      -8.107  12.611  67.846  1.00  0.00    -0.165 C  
BRANCH  26  27
HETATM   27  C   UNL     1      -7.611  14.002  67.451  1.00  0.00    -0.167 C  
HETATM   28  C   UNL     1      -8.780  14.945  67.199  1.00  0.00    -0.240 C  
ENDBRANCH  26  27
ENDBRANCH  24  26
ENDBRANCH  20  21
ENDBRANCH  18  20
ENDBRANCH  13  18
ENDBRANCH  12  13
ENDBRANCH  10  12
ENDBRANCH   9  10
ENDBRANCH   7   9
ENDBRANCH   3   4
ENDBRANCH   2   3
TORSDOF 11
ENDMDL
MODEL      188
REMARK 921   NORMALIZED FREE ENERGY PREDICTED BY IDOCK:   -3.69 KCAL/MOL
REMARK 922        TOTAL FREE ENERGY PREDICTED BY IDOCK:   -8.32 KCAL/MOL
REMARK 923 INTER-LIGAND FREE ENERGY PREDICTED BY IDOCK:   -7.42 KCAL/MOL
REMARK 924 INTRA-LIGAND FREE ENERGY PREDICTED BY IDOCK:   -0.90 KCAL/MOL
REMARK 927      BINDING AFFINITY PREDICTED BY RF-SCORE:    0.00 PKD
ROOT
HETATM    1  C   UNL     1      -5.125  20.460  65.825  1.00  0.00    -0.196 C  
HETATM    2  C   UNL     1      -6.416  19.655  65.779  1.00  0.00    -0.248 C  
ENDROOT
BRANCH   2   3
HETATM    3  C   UNL     1      -7.442  20.207  66.768  1.00  0.00    -0.317 C  
BRANCH   3   4
HETATM    4  C   UNL     1      -8.876  19.810  66.396  1.00  0.00    -0.428 C  
HETATM    5  C   UNL     1      -9.101  18.283  66.360  1.00  0.00    -0.260 C  
HETATM    6  C   UNL     1      -8.721  17.551  67.668  1.00  0.00    -0.223 C  
HETATM    7  C   UNL     1     -10.548  17.965  65.928  1.00  0.00    -0.215 C  
HETATM    8  C   UNL     1      -9.604  17.881  68.863  1.00  0.00    -0.222 C  
BRANCH   7   9
HETATM    9  O   UNL     1     -10.732  16.538  65.932  1.00  0.00    -0.285 OA 
BRANCH   9  10
HETATM   10  C   UNL     1     -11.589  16.049  64.996  1.00  0.00     0.098 C  
HETATM   11  O   UNL     1     -11.850  16.591  63.933  1.00  0.00    -1.059 OA 
BRANCH  10  12
HETATM   12  C   UNL     1     -12.029  14.650  65.341  1.00  0.00    -0.275 C  
BRANCH  12  13
HETATM   13  C   UNL     1     -11.169  13.559  64.709  1.00  0.00    -0.352 C  
HETATM   14  O   UNL     1     -13.294  11.996  64.446  1.00  0.00    -0.657 OA 
HETATM   15  S   UNL     1     -12.138  12.460  63.722  1.00  0.00    -0.572 S  
HETATM   16  O   UNL     1     -12.651  13.543  62.637  1.00  0.00    -0.218 OA 
HETATM   17  O   UNL     1     -11.282  11.572  62.969  1.00  0.00    -0.141 OA 
BRANCH  13  18
HETATM   18  C   UNL     1     -10.494  12.745  65.767  1.00  0.00    -0.276 C  
HETATM   19  O   UNL     1     -10.311  11.538  65.693  1.00  0.00    -0.242 OA 
BRANCH  18  20
HETATM   20  O   UNL     1     -10.283  13.491  66.888  1.00  0.00    -0.250 OA 
BRANCH  20  21
HETATM   21  C   UNL     1      -9.768  12.761  68.015  1.00  0.00    -0.220 C  
HETATM   22  C   UNL     1      -8.367  12.159  67.800  1.00  0.00    -0.159 C  
HETATM   23  C   UNL     1      -7.324  13.225  67.398  1.00  0.00    -0.125 C  
HETATM   24  C   UNL     1      -7.900  11.354  69.034  1.00  0.00    -0.043 C  
HETATM   25  C   UNL     1      -7.037  14.284  68.454  1.00  0.00    -0.105 C  
BRANCH  24  26
HETATM   26  C   UNL     1      -8.835  10.200  69.409  1.00  0.00    -0.197 C  
BRANCH  26  27
HETATM   27  C   UNL     1      -8.980   9.199  68.262  1.00  0.00    -0.129 C  
HETATM   28  C   UNL     1      -7.720   8.356  68.114  1.00  0.00    -0.103 C  
ENDBRANCH  26  27
ENDBRANCH  24  26
ENDBRANCH  20  21
ENDBRANCH  18  20
ENDBRANCH  13  18
ENDBRANCH  12  13
ENDBRANCH  10  12
ENDBRANCH   9  10
ENDBRANCH   7   9
ENDBRANCH   3   4
ENDBRANCH   2   3
TORSDOF 11
ENDMDL
MODEL      189
REMARK 921   NORMALIZED FREE ENERGY PREDICTED BY IDOCK:   -3.69 KCAL/MOL
REMARK 922        TOTAL FREE ENERGY PREDICTED BY IDOCK:   -8.31 KCAL/MOL
REMARK 923 INTER-LIGAND FREE ENERGY PREDICTED BY IDOCK:   -6.93 KCAL/MOL
REMARK 924 INTRA-LIGAND FREE ENERGY PREDICTED BY IDOCK:   -1.39 KCAL/MOL
REMARK 927      BINDING AFFINITY PREDICTED BY RF-SCORE:    0.00 PKD
ROOT
HETATM    1  C   UNL     1     -12.275  12.701  63.485  1.00  0.00    -0.638 C  
HETATM    2  C   UNL     1     -10.781  12.483  63.678  1.00  0.00    -0.469 C  
ENDROOT
BRANCH   2   3
HETATM    3  C   UNL     1     -10.466  11.003  63.894  1.00  0.00    -0.422 C  
BRANCH   3   4
HETATM    4  C   UNL     1     -10.470  10.621  65.379  1.00  0.00    -0.254 C  
HETATM    5  C   UNL     1      -9.694   9.320  65.680  1.00  0.00    -0.302 C  
HETATM    6  C   UNL     1      -8.229   9.323  65.186  1.00  0.00    -0.143 C  
HETATM    7  C   UNL     1      -9.789   8.976  67.182  1.00  0.00    -0.203 C  
HETATM    8  C   UNL     1      -7.314  10.303  65.906  1.00  0.00    -0.131 C  
BRANCH   7   9
HETATM    9  O   UNL     1      -9.034   7.777  67.433  1.00  0.00    -0.123 OA 
BRANCH   9  10
HETATM   10  C   UNL     1      -9.763   6.669  67.732  1.00  0.00    -0.123 C  
HETATM   11  O   UNL     1     -10.942   6.509  67.451  1.00  0.00    -0.325 OA 
BRANCH  10  12
HETATM   12  C   UNL     1      -8.887   5.572  68.277  1.00  0.00    -0.104 C  
BRANCH  12  13
HETATM   13  C   UNL     1      -8.740   5.598  69.796  1.00  0.00    -0.125 C  
HETATM   14  O   UNL     1      -6.675   3.941  69.653  1.00  0.00    -0.033 OA 
HETATM   15  S   UNL     1      -7.104   5.158  70.297  1.00  0.00    -0.055 S  
HETATM   16  O   UNL     1      -6.326   6.382  69.583  1.00  0.00    -0.035 OA 
HETATM   17  O   UNL     1      -6.930   5.393  71.712  1.00  0.00    -0.066 OA 
BRANCH  13  18
HETATM   18  C   UNL     1      -9.686   4.628  70.430  1.00  0.00    -0.222 C  
HETATM   19  O   UNL     1      -9.943   3.522  69.976  1.00  0.00    -0.044 OA 
BRANCH  18  20
HETATM   20  O   UNL     1     -10.353   5.213  71.466  1.00  0.00    -0.210 OA 
BRANCH  20  21
HETATM   21  C   UNL     1     -10.586   6.624  71.318  1.00  0.00    -0.223 C  
HETATM   22  C   UNL     1     -11.061   7.330  72.602  1.00  0.00    -0.355 C  
HETATM   23  C   UNL     1     -10.087   7.123  73.783  1.00  0.00    -0.391 C  
HETATM   24  C   UNL     1     -11.333   8.833  72.356  1.00  0.00    -0.272 C  
HETATM   25  C   UNL     1      -8.704   7.732  73.599  1.00  0.00    -0.308 C  
BRANCH  24  26
HETATM   26  C   UNL     1     -12.386   9.101  71.276  1.00  0.00    -0.382 C  
BRANCH  26  27
HETATM   27  C   UNL     1     -13.381  10.175  71.716  1.00  0.00    -0.485 C  
HETATM   28  C   UNL     1     -12.787  11.567  71.548  1.00  0.00    -0.485 C  
ENDBRANCH  26  27
ENDBRANCH  24  26
ENDBRANCH  20  21
ENDBRANCH  18  20
ENDBRANCH  13  18
ENDBRANCH  12  13
ENDBRANCH  10  12
ENDBRANCH   9  10
ENDBRANCH   7   9
ENDBRANCH   3   4
ENDBRANCH   2   3
TORSDOF 11
ENDMDL
MODEL      190
REMARK 921   NORMALIZED FREE ENERGY PREDICTED BY IDOCK:   -3.66 KCAL/MOL
REMARK 922        TOTAL FREE ENERGY PREDICTED BY IDOCK:   -8.27 KCAL/MOL
REMARK 923 INTER-LIGAND FREE ENERGY PREDICTED BY IDOCK:   -6.13 KCAL/MOL
REMARK 924 INTRA-LIGAND FREE ENERGY PREDICTED BY IDOCK:   -2.14 KCAL/MOL
REMARK 927      BINDING AFFINITY PREDICTED BY RF-SCORE:    0.00 PKD
ROOT
HETATM    1  C   UNL     1      -8.927  11.194  62.550  1.00  0.00    -0.347 C  
HETATM    2  C   UNL     1      -9.212   9.749  62.933  1.00  0.00    -0.241 C  
ENDROOT
BRANCH   2   3
HETATM    3  C   UNL     1      -7.968   9.080  63.516  1.00  0.00    -0.150 C  
BRANCH   3   4
HETATM    4  C   UNL     1      -7.119  10.055  64.342  1.00  0.00    -0.135 C  
HETATM    5  C   UNL     1      -7.741  10.400  65.713  1.00  0.00    -0.146 C  
HETATM    6  C   UNL     1      -8.061   9.171  66.595  1.00  0.00    -0.111 C  
HETATM    7  C   UNL     1      -6.858  11.424  66.458  1.00  0.00    -0.064 C  
HETATM    8  C   UNL     1      -6.842   8.404  67.087  1.00  0.00    -0.070 C  
BRANCH   7   9
HETATM    9  O   UNL     1      -7.449  11.702  67.740  1.00  0.00    -0.099 OA 
BRANCH   9  10
HETATM   10  C   UNL     1      -7.945  12.957  67.904  1.00  0.00    -0.156 C  
HETATM   11  O   UNL     1      -7.326  13.989  67.690  1.00  0.00    -0.149 OA 
BRANCH  10  12
HETATM   12  C   UNL     1      -9.423  12.924  68.192  1.00  0.00    -0.218 C  
BRANCH  12  13
HETATM   13  C   UNL     1     -10.296  12.900  66.940  1.00  0.00    -0.243 C  
HETATM   14  O   UNL     1     -12.185  14.272  68.196  1.00  0.00    -0.284 OA 
HETATM   15  S   UNL     1     -11.472  14.218  66.944  1.00  0.00    -0.379 S  
HETATM   16  O   UNL     1     -10.418  15.444  66.936  1.00  0.00    -0.283 OA 
HETATM   17  O   UNL     1     -12.137  14.303  65.664  1.00  0.00    -0.380 OA 
BRANCH  13  18
HETATM   18  C   UNL     1     -11.054  11.614  66.855  1.00  0.00    -0.308 C  
HETATM   19  O   UNL     1     -11.230  10.987  65.819  1.00  0.00    -0.041 OA 
BRANCH  18  20
HETATM   20  O   UNL     1     -11.670  11.337  68.039  1.00  0.00    -0.501 OA 
BRANCH  20  21
HETATM   21  C   UNL     1     -11.368  10.045  68.594  1.00  0.00    -0.055 C  
HETATM   22  C   UNL     1     -10.926  10.071  70.069  1.00  0.00    -0.352 C  
HETATM   23  C   UNL     1     -11.966  10.758  70.983  1.00  0.00    -0.409 C  
HETATM   24  C   UNL     1     -10.577   8.655  70.582  1.00  0.00    -0.249 C  
HETATM   25  C   UNL     1     -13.310  10.050  71.084  1.00  0.00    -0.379 C  
BRANCH  24  26
HETATM   26  C   UNL     1      -9.461   7.969  69.788  1.00  0.00    -0.159 C  
BRANCH  26  27
HETATM   27  C   UNL     1      -8.155   7.918  70.582  1.00  0.00    -0.102 C  
HETATM   28  C   UNL     1      -7.402   9.237  70.473  1.00  0.00    -0.120 C  
ENDBRANCH  26  27
ENDBRANCH  24  26
ENDBRANCH  20  21
ENDBRANCH  18  20
ENDBRANCH  13  18
ENDBRANCH  12  13
ENDBRANCH  10  12
ENDBRANCH   9  10
ENDBRANCH   7   9
ENDBRANCH   3   4
ENDBRANCH   2   3
TORSDOF 11
ENDMDL
MODEL      191
REMARK 921   NORMALIZED FREE ENERGY PREDICTED BY IDOCK:   -3.66 KCAL/MOL
REMARK 922        TOTAL FREE ENERGY PREDICTED BY IDOCK:   -8.26 KCAL/MOL
REMARK 923 INTER-LIGAND FREE ENERGY PREDICTED BY IDOCK:   -6.83 KCAL/MOL
REMARK 924 INTRA-LIGAND FREE ENERGY PREDICTED BY IDOCK:   -1.43 KCAL/MOL
REMARK 927      BINDING AFFINITY PREDICTED BY RF-SCORE:    0.00 PKD
ROOT
HETATM    1  C   UNL     1      -8.800   5.954  71.793  1.00  0.00    -0.139 C  
HETATM    2  C   UNL     1      -8.510   5.092  70.572  1.00  0.00    -0.113 C  
ENDROOT
BRANCH   2   3
HETATM    3  C   UNL     1      -9.806   4.593  69.933  1.00  0.00    -0.296 C  
BRANCH   3   4
HETATM    4  C   UNL     1     -10.536   5.699  69.162  1.00  0.00    -0.339 C  
HETATM    5  C   UNL     1      -9.721   6.259  67.975  1.00  0.00    -0.122 C  
HETATM    6  C   UNL     1      -9.256   5.189  66.960  1.00  0.00    -0.117 C  
HETATM    7  C   UNL     1     -10.498   7.401  67.285  1.00  0.00    -0.315 C  
HETATM    8  C   UNL     1     -10.376   4.526  66.173  1.00  0.00    -0.258 C  
BRANCH   7   9
HETATM    9  O   UNL     1      -9.726   7.880  66.169  1.00  0.00    -0.139 OA 
BRANCH   9  10
HETATM   10  C   UNL     1      -9.793   9.217  65.934  1.00  0.00    -0.265 C  
HETATM   11  O   UNL     1      -9.703   9.741  64.833  1.00  0.00    -0.296 OA 
BRANCH  10  12
HETATM   12  C   UNL     1     -10.191   9.968  67.176  1.00  0.00    -0.284 C  
BRANCH  12  13
HETATM   13  C   UNL     1      -9.143  10.967  67.658  1.00  0.00    -0.148 C  
HETATM   14  O   UNL     1      -9.628  10.306  70.179  1.00  0.00    -0.088 OA 
HETATM   15  S   UNL     1      -8.540  10.551  69.265  1.00  0.00    -0.080 S  
HETATM   16  O   UNL     1      -7.896   9.117  68.888  1.00  0.00    -0.091 OA 
HETATM   17  O   UNL     1      -7.406  11.378  69.608  1.00  0.00    -0.011 OA 
BRANCH  13  18
HETATM   18  C   UNL     1      -9.724  12.343  67.732  1.00  0.00    -0.201 C  
HETATM   19  O   UNL     1      -9.295  13.232  68.455  1.00  0.00    -0.205 OA 
BRANCH  18  20
HETATM   20  O   UNL     1     -10.893  12.410  67.034  1.00  0.00    -0.235 OA 
BRANCH  20  21
HETATM   21  C   UNL     1     -11.212  13.710  66.508  1.00  0.00    -0.310 C  
HETATM   22  C   UNL     1     -10.485  14.065  65.197  1.00  0.00    -0.415 C  
HETATM   23  C   UNL     1     -10.734  13.020  64.086  1.00  0.00    -0.429 C  
HETATM   24  C   UNL     1     -10.843  15.490  64.717  1.00  0.00    -0.385 C  
HETATM   25  C   UNL     1     -12.176  12.909  63.610  1.00  0.00    -0.581 C  
BRANCH  24  26
HETATM   26  C   UNL     1     -10.503  16.586  65.732  1.00  0.00    -0.343 C  
BRANCH  26  27
HETATM   27  C   UNL     1      -9.017  16.579  66.092  1.00  0.00    -0.344 C  
HETATM   28  C   UNL     1      -8.591  17.924  66.665  1.00  0.00    -0.283 C  
ENDBRANCH  26  27
ENDBRANCH  24  26
ENDBRANCH  20  21
ENDBRANCH  18  20
ENDBRANCH  13  18
ENDBRANCH  12  13
ENDBRANCH  10  12
ENDBRANCH   9  10
ENDBRANCH   7   9
ENDBRANCH   3   4
ENDBRANCH   2   3
TORSDOF 11
ENDMDL
MODEL      192
REMARK 921   NORMALIZED FREE ENERGY PREDICTED BY IDOCK:   -3.65 KCAL/MOL
REMARK 922        TOTAL FREE ENERGY PREDICTED BY IDOCK:   -8.25 KCAL/MOL
REMARK 923 INTER-LIGAND FREE ENERGY PREDICTED BY IDOCK:   -8.30 KCAL/MOL
REMARK 924 INTRA-LIGAND FREE ENERGY PREDICTED BY IDOCK:    0.06 KCAL/MOL
REMARK 927      BINDING AFFINITY PREDICTED BY RF-SCORE:    0.00 PKD
ROOT
HETATM    1  C   UNL     1      -7.627   7.636  62.926  1.00  0.00    -0.118 C  
HETATM    2  C   UNL     1      -6.691   8.554  63.699  1.00  0.00    -0.084 C  
ENDROOT
BRANCH   2   3
HETATM    3  C   UNL     1      -7.476   9.619  64.465  1.00  0.00    -0.128 C  
BRANCH   3   4
HETATM    4  C   UNL     1      -8.806   9.081  65.007  1.00  0.00    -0.213 C  
HETATM    5  C   UNL     1      -9.137   9.583  66.429  1.00  0.00    -0.195 C  
HETATM    6  C   UNL     1      -9.143  11.122  66.577  1.00  0.00    -0.193 C  
HETATM    7  C   UNL     1     -10.458   8.956  66.923  1.00  0.00    -0.234 C  
HETATM    8  C   UNL     1     -10.258  11.831  65.822  1.00  0.00    -0.276 C  
BRANCH   7   9
HETATM    9  O   UNL     1     -10.752   9.466  68.237  1.00  0.00    -0.220 OA 
BRANCH   9  10
HETATM   10  C   UNL     1     -10.413   8.656  69.275  1.00  0.00    -0.217 C  
HETATM   11  O   UNL     1     -10.290   7.442  69.206  1.00  0.00    -0.195 OA 
BRANCH  10  12
HETATM   12  C   UNL     1     -10.012   9.460  70.483  1.00  0.00    -0.328 C  
BRANCH  12  13
HETATM   13  C   UNL     1     -11.178   9.828  71.396  1.00  0.00    -0.298 C  
HETATM   14  O   UNL     1     -12.266   7.441  71.018  1.00  0.00    -0.315 OA 
HETATM   15  S   UNL     1     -11.963   8.391  72.058  1.00  0.00    -0.384 S  
HETATM   16  O   UNL     1     -10.696   7.817  72.882  1.00  0.00    -0.326 OA 
HETATM   17  O   UNL     1     -12.918   8.763  73.077  1.00  0.00    -0.286 OA 
BRANCH  13  18
HETATM   18  C   UNL     1     -12.211  10.603  70.639  1.00  0.00    -0.365 C  
HETATM   19  O   UNL     1     -13.291  10.148  70.290  1.00  0.00    -0.065 OA 
BRANCH  18  20
HETATM   20  O   UNL     1     -11.712  11.806  70.237  1.00  0.00    -0.309 OA 
BRANCH  20  21
HETATM   21  C   UNL     1     -12.602  12.922  70.415  1.00  0.00    -0.074 C  
HETATM   22  C   UNL     1     -11.897  14.273  70.632  1.00  0.00    -0.349 C  
HETATM   23  C   UNL     1     -10.917  14.616  69.488  1.00  0.00    -0.269 C  
HETATM   24  C   UNL     1     -12.915  15.415  70.859  1.00  0.00    -0.539 C  
HETATM   25  C   UNL     1     -11.559  14.827  68.123  1.00  0.00    -0.356 C  
BRANCH  24  26
HETATM   26  C   UNL     1     -13.837  15.189  72.061  1.00  0.00    -0.608 C  
BRANCH  26  27
HETATM   27  C   UNL     1     -13.340  15.935  73.299  1.00  0.00    -0.660 C  
HETATM   28  C   UNL     1     -12.226  15.160  73.990  1.00  0.00    -0.701 C  
ENDBRANCH  26  27
ENDBRANCH  24  26
ENDBRANCH  20  21
ENDBRANCH  18  20
ENDBRANCH  13  18
ENDBRANCH  12  13
ENDBRANCH  10  12
ENDBRANCH   9  10
ENDBRANCH   7   9
ENDBRANCH   3   4
ENDBRANCH   2   3
TORSDOF 11
ENDMDL
MODEL      193
REMARK 921   NORMALIZED FREE ENERGY PREDICTED BY IDOCK:   -3.65 KCAL/MOL
REMARK 922        TOTAL FREE ENERGY PREDICTED BY IDOCK:   -8.24 KCAL/MOL
REMARK 923 INTER-LIGAND FREE ENERGY PREDICTED BY IDOCK:   -7.60 KCAL/MOL
REMARK 924 INTRA-LIGAND FREE ENERGY PREDICTED BY IDOCK:   -0.64 KCAL/MOL
REMARK 927      BINDING AFFINITY PREDICTED BY RF-SCORE:    0.00 PKD
ROOT
HETATM    1  C   UNL     1     -10.483  17.432  68.175  1.00  0.00    -0.389 C  
HETATM    2  C   UNL     1     -10.882  16.791  69.497  1.00  0.00    -0.225 C  
ENDROOT
BRANCH   2   3
HETATM    3  C   UNL     1     -11.240  15.317  69.305  1.00  0.00    -0.291 C  
BRANCH   3   4
HETATM    4  C   UNL     1     -10.185  14.567  68.482  1.00  0.00    -0.240 C  
HETATM    5  C   UNL     1     -10.783  13.476  67.567  1.00  0.00    -0.266 C  
HETATM    6  C   UNL     1     -11.878  13.983  66.601  1.00  0.00    -0.443 C  
HETATM    7  C   UNL     1      -9.657  12.734  66.815  1.00  0.00    -0.244 C  
HETATM    8  C   UNL     1     -11.386  14.937  65.522  1.00  0.00    -0.339 C  
BRANCH   7   9
HETATM    9  O   UNL     1     -10.248  11.745  65.952  1.00  0.00    -0.221 OA 
BRANCH   9  10
HETATM   10  C   UNL     1     -10.592  10.571  66.545  1.00  0.00    -0.174 C  
HETATM   11  O   UNL     1     -11.651  10.358  67.116  1.00  0.00    -0.166 OA 
BRANCH  10  12
HETATM   12  C   UNL     1      -9.586   9.493  66.240  1.00  0.00    -0.287 C  
BRANCH  12  13
HETATM   13  C   UNL     1      -8.884   8.935  67.475  1.00  0.00    -0.130 C  
HETATM   14  O   UNL     1     -10.875   7.229  67.871  1.00  0.00    -0.188 OA 
HETATM   15  S   UNL     1      -9.435   7.299  67.850  1.00  0.00    -0.135 S  
HETATM   16  O   UNL     1      -8.938   6.588  66.487  1.00  0.00    -0.134 OA 
HETATM   17  O   UNL     1      -8.612   6.715  68.885  1.00  0.00    -0.125 OA 
BRANCH  13  18
HETATM   18  C   UNL     1      -9.162   9.793  68.668  1.00  0.00    -0.137 C  
HETATM   19  O   UNL     1      -8.486  10.760  68.991  1.00  0.00    -0.153 OA 
BRANCH  18  20
HETATM   20  O   UNL     1     -10.145   9.247  69.437  1.00  0.00    -0.183 OA 
BRANCH  20  21
HETATM   21  C   UNL     1     -10.752  10.149  70.379  1.00  0.00    -0.266 C  
HETATM   22  C   UNL     1     -12.246   9.886  70.643  1.00  0.00    -0.325 C  
HETATM   23  C   UNL     1     -12.514   8.441  71.119  1.00  0.00    -0.189 C  
HETATM   24  C   UNL     1     -12.839  10.920  71.629  1.00  0.00    -0.554 C  
HETATM   25  C   UNL     1     -11.902   8.076  72.464  1.00  0.00    -0.419 C  
BRANCH  24  26
HETATM   26  C   UNL     1     -12.713  12.370  71.151  1.00  0.00    -0.336 C  
BRANCH  26  27
HETATM   27  C   UNL     1     -13.101  13.360  72.250  1.00  0.00    -0.484 C  
HETATM   28  C   UNL     1     -14.144  14.349  71.746  1.00  0.00    -0.558 C  
ENDBRANCH  26  27
ENDBRANCH  24  26
ENDBRANCH  20  21
ENDBRANCH  18  20
ENDBRANCH  13  18
ENDBRANCH  12  13
ENDBRANCH  10  12
ENDBRANCH   9  10
ENDBRANCH   7   9
ENDBRANCH   3   4
ENDBRANCH   2   3
TORSDOF 11
ENDMDL
MODEL      194
REMARK 921   NORMALIZED FREE ENERGY PREDICTED BY IDOCK:   -3.64 KCAL/MOL
REMARK 922        TOTAL FREE ENERGY PREDICTED BY IDOCK:   -8.23 KCAL/MOL
REMARK 923 INTER-LIGAND FREE ENERGY PREDICTED BY IDOCK:   -7.16 KCAL/MOL
REMARK 924 INTRA-LIGAND FREE ENERGY PREDICTED BY IDOCK:   -1.07 KCAL/MOL
REMARK 927      BINDING AFFINITY PREDICTED BY RF-SCORE:    0.00 PKD
ROOT
HETATM    1  C   UNL     1      -6.716   3.974  62.503  1.00  0.00    -0.030 C  
HETATM    2  C   UNL     1      -7.523   2.787  63.011  1.00  0.00    -0.053 C  
ENDROOT
BRANCH   2   3
HETATM    3  C   UNL     1      -8.149   3.092  64.372  1.00  0.00    -0.082 C  
BRANCH   3   4
HETATM    4  C   UNL     1      -7.627   4.405  64.968  1.00  0.00    -0.077 C  
HETATM    5  C   UNL     1      -8.724   5.478  65.142  1.00  0.00    -0.118 C  
HETATM    6  C   UNL     1      -9.941   5.018  65.978  1.00  0.00    -0.220 C  
HETATM    7  C   UNL     1      -8.112   6.783  65.695  1.00  0.00    -0.122 C  
HETATM    8  C   UNL     1      -9.644   4.759  67.448  1.00  0.00    -0.186 C  
BRANCH   7   9
HETATM    9  O   UNL     1      -9.163   7.751  65.871  1.00  0.00    -0.129 OA 
BRANCH   9  10
HETATM   10  C   UNL     1      -8.943   8.697  66.822  1.00  0.00    -0.141 C  
HETATM   11  O   UNL     1      -8.454   8.485  67.922  1.00  0.00    -0.128 OA 
BRANCH  10  12
HETATM   12  C   UNL     1      -9.192  10.080  66.280  1.00  0.00    -0.199 C  
BRANCH  12  13
HETATM   13  C   UNL     1     -10.509  10.697  66.741  1.00  0.00    -0.247 C  
HETATM   14  O   UNL     1      -9.916  12.964  65.502  1.00  0.00    -0.271 OA 
HETATM   15  S   UNL     1     -11.000  12.034  65.698  1.00  0.00    -0.304 S  
HETATM   16  O   UNL     1     -11.163  11.189  64.329  1.00  0.00    -0.246 OA 
HETATM   17  O   UNL     1     -12.343  12.460  66.022  1.00  0.00    -0.627 OA 
BRANCH  13  18
HETATM   18  C   UNL     1     -10.379  11.229  68.133  1.00  0.00    -0.186 C  
HETATM   19  O   UNL     1      -9.405  11.843  68.546  1.00  0.00    -0.196 OA 
BRANCH  18  20
HETATM   20  O   UNL     1     -11.400  10.781  68.918  1.00  0.00    -0.244 OA 
BRANCH  20  21
HETATM   21  C   UNL     1     -11.644  11.562  70.101  1.00  0.00    -0.249 C  
HETATM   22  C   UNL     1     -13.027  11.337  70.740  1.00  0.00    -0.171 C  
HETATM   23  C   UNL     1     -13.283   9.852  71.082  1.00  0.00    -0.424 C  
HETATM   24  C   UNL     1     -13.234  12.240  71.978  1.00  0.00    -0.508 C  
HETATM   25  C   UNL     1     -12.362   9.260  72.140  1.00  0.00    -0.398 C  
BRANCH  24  26
HETATM   26  C   UNL     1     -13.114  13.737  71.676  1.00  0.00    -0.456 C  
BRANCH  26  27
HETATM   27  C   UNL     1     -13.874  14.580  72.701  1.00  0.00    -0.483 C  
HETATM   28  C   UNL     1     -12.910  15.292  73.641  1.00  0.00    -0.662 C  
ENDBRANCH  26  27
ENDBRANCH  24  26
ENDBRANCH  20  21
ENDBRANCH  18  20
ENDBRANCH  13  18
ENDBRANCH  12  13
ENDBRANCH  10  12
ENDBRANCH   9  10
ENDBRANCH   7   9
ENDBRANCH   3   4
ENDBRANCH   2   3
TORSDOF 11
ENDMDL
MODEL      195
REMARK 921   NORMALIZED FREE ENERGY PREDICTED BY IDOCK:   -3.63 KCAL/MOL
REMARK 922        TOTAL FREE ENERGY PREDICTED BY IDOCK:   -8.22 KCAL/MOL
REMARK 923 INTER-LIGAND FREE ENERGY PREDICTED BY IDOCK:   -7.33 KCAL/MOL
REMARK 924 INTRA-LIGAND FREE ENERGY PREDICTED BY IDOCK:   -0.89 KCAL/MOL
REMARK 927      BINDING AFFINITY PREDICTED BY RF-SCORE:    0.00 PKD
ROOT
HETATM    1  C   UNL     1     -10.779  18.948  65.607  1.00  0.00    -0.214 C  
HETATM    2  C   UNL     1      -9.985  20.211  65.911  1.00  0.00    -0.415 C  
ENDROOT
BRANCH   2   3
HETATM    3  C   UNL     1      -9.998  20.520  67.408  1.00  0.00    -0.525 C  
BRANCH   3   4
HETATM    4  C   UNL     1      -9.623  19.297  68.255  1.00  0.00    -0.438 C  
HETATM    5  C   UNL     1      -8.254  18.689  67.883  1.00  0.00    -0.285 C  
HETATM    6  C   UNL     1      -7.076  19.690  67.932  1.00  0.00    -0.301 C  
HETATM    7  C   UNL     1      -7.975  17.436  68.740  1.00  0.00    -0.244 C  
HETATM    8  C   UNL     1      -6.727  20.196  69.324  1.00  0.00    -0.263 C  
BRANCH   7   9
HETATM    9  O   UNL     1      -6.681  16.910  68.388  1.00  0.00    -0.154 OA 
BRANCH   9  10
HETATM   10  C   UNL     1      -6.665  15.627  67.941  1.00  0.00    -0.150 C  
HETATM   11  O   UNL     1      -5.671  15.033  67.551  1.00  0.00    -0.326 OA 
BRANCH  10  12
HETATM   12  C   UNL     1      -7.993  14.954  68.173  1.00  0.00    -0.130 C  
BRANCH  12  13
HETATM   13  C   UNL     1      -8.418  14.021  67.042  1.00  0.00    -0.147 C  
HETATM   14  O   UNL     1     -10.943  14.777  67.328  1.00  0.00    -0.301 OA 
HETATM   15  S   UNL     1      -9.944  14.534  66.317  1.00  0.00    -0.319 S  
HETATM   16  O   UNL     1      -9.449  15.974  65.772  1.00  0.00    -0.334 OA 
HETATM   17  O   UNL     1     -10.216  13.769  65.121  1.00  0.00    -0.351 OA 
BRANCH  13  18
HETATM   18  C   UNL     1      -8.603  12.628  67.554  1.00  0.00    -0.185 C  
HETATM   19  O   UNL     1      -9.033  12.357  68.667  1.00  0.00    -0.099 OA 
BRANCH  18  20
HETATM   20  O   UNL     1      -8.059  11.722  66.694  1.00  0.00    -0.161 OA 
BRANCH  20  21
HETATM   21  C   UNL     1      -8.505  10.367  66.877  1.00  0.00    -0.124 C  
HETATM   22  C   UNL     1      -9.941  10.096  66.390  1.00  0.00    -0.295 C  
HETATM   23  C   UNL     1     -10.140  10.473  64.905  1.00  0.00    -0.403 C  
HETATM   24  C   UNL     1     -10.365   8.634  66.660  1.00  0.00    -0.303 C  
HETATM   25  C   UNL     1      -9.326   9.653  63.912  1.00  0.00    -0.096 C  
BRANCH  24  26
HETATM   26  C   UNL     1     -10.308   8.237  68.138  1.00  0.00    -0.253 C  
BRANCH  26  27
HETATM   27  C   UNL     1     -10.558   9.436  69.053  1.00  0.00    -0.233 C  
HETATM   28  C   UNL     1     -10.093   9.142  70.473  1.00  0.00    -0.288 C  
ENDBRANCH  26  27
ENDBRANCH  24  26
ENDBRANCH  20  21
ENDBRANCH  18  20
ENDBRANCH  13  18
ENDBRANCH  12  13
ENDBRANCH  10  12
ENDBRANCH   9  10
ENDBRANCH   7   9
ENDBRANCH   3   4
ENDBRANCH   2   3
TORSDOF 11
ENDMDL
MODEL      196
REMARK 921   NORMALIZED FREE ENERGY PREDICTED BY IDOCK:   -3.63 KCAL/MOL
REMARK 922        TOTAL FREE ENERGY PREDICTED BY IDOCK:   -8.21 KCAL/MOL
REMARK 923 INTER-LIGAND FREE ENERGY PREDICTED BY IDOCK:   -6.58 KCAL/MOL
REMARK 924 INTRA-LIGAND FREE ENERGY PREDICTED BY IDOCK:   -1.64 KCAL/MOL
REMARK 927      BINDING AFFINITY PREDICTED BY RF-SCORE:    0.00 PKD
ROOT
HETATM    1  C   UNL     1      -7.313   4.189  65.505  1.00  0.00    -0.076 C  
HETATM    2  C   UNL     1      -6.035   3.940  66.293  1.00  0.00    -0.027 C  
ENDROOT
BRANCH   2   3
HETATM    3  C   UNL     1      -5.701   5.133  67.189  1.00  0.00    -0.014 C  
BRANCH   3   4
HETATM    4  C   UNL     1      -6.943   5.693  67.893  1.00  0.00    -0.066 C  
HETATM    5  C   UNL     1      -6.639   6.298  69.282  1.00  0.00    -0.044 C  
HETATM    6  C   UNL     1      -5.551   7.396  69.274  1.00  0.00    -0.015 C  
HETATM    7  C   UNL     1      -7.943   6.790  69.947  1.00  0.00    -0.120 C  
HETATM    8  C   UNL     1      -5.941   8.677  68.551  1.00  0.00    -0.045 C  
BRANCH   7   9
HETATM    9  O   UNL     1      -7.622   7.373  71.223  1.00  0.00    -0.080 OA 
BRANCH   9  10
HETATM   10  C   UNL     1      -8.585   8.157  71.775  1.00  0.00    -0.146 C  
HETATM   11  O   UNL     1      -8.448   8.831  72.785  1.00  0.00    -0.414 OA 
BRANCH  10  12
HETATM   12  C   UNL     1      -9.789   8.252  70.875  1.00  0.00    -0.215 C  
BRANCH  12  13
HETATM   13  C   UNL     1     -10.806   9.303  71.313  1.00  0.00    -0.347 C  
HETATM   14  O   UNL     1     -12.771   7.537  71.092  1.00  0.00    -0.310 OA 
HETATM   15  S   UNL     1     -12.265   8.559  71.974  1.00  0.00    -0.392 S  
HETATM   16  O   UNL     1     -11.574   7.812  73.230  1.00  0.00    -0.248 OA 
HETATM   17  O   UNL     1     -13.115   9.562  72.573  1.00  0.00    -0.383 OA 
BRANCH  13  18
HETATM   18  C   UNL     1     -11.215  10.152  70.151  1.00  0.00    -0.310 C  
HETATM   19  O   UNL     1     -12.339  10.610  69.997  1.00  0.00    -0.311 OA 
BRANCH  18  20
HETATM   20  O   UNL     1     -10.229  10.189  69.210  1.00  0.00    -0.196 OA 
BRANCH  20  21
HETATM   21  C   UNL     1     -10.689  10.329  67.855  1.00  0.00    -0.264 C  
HETATM   22  C   UNL     1      -9.676   9.875  66.787  1.00  0.00    -0.244 C  
HETATM   23  C   UNL     1      -9.220   8.414  66.992  1.00  0.00    -0.186 C  
HETATM   24  C   UNL     1     -10.222  10.097  65.357  1.00  0.00    -0.281 C  
HETATM   25  C   UNL     1     -10.312   7.364  66.837  1.00  0.00    -0.367 C  
BRANCH  24  26
HETATM   26  C   UNL     1     -10.578  11.555  65.051  1.00  0.00    -0.354 C  
BRANCH  26  27
HETATM   27  C   UNL     1     -10.995  11.738  63.591  1.00  0.00    -0.513 C  
HETATM   28  C   UNL     1     -12.503  11.920  63.476  1.00  0.00    -0.609 C  
ENDBRANCH  26  27
ENDBRANCH  24  26
ENDBRANCH  20  21
ENDBRANCH  18  20
ENDBRANCH  13  18
ENDBRANCH  12  13
ENDBRANCH  10  12
ENDBRANCH   9  10
ENDBRANCH   7   9
ENDBRANCH   3   4
ENDBRANCH   2   3
TORSDOF 11
ENDMDL
MODEL      197
REMARK 921   NORMALIZED FREE ENERGY PREDICTED BY IDOCK:   -3.61 KCAL/MOL
REMARK 922        TOTAL FREE ENERGY PREDICTED BY IDOCK:   -8.17 KCAL/MOL
REMARK 923 INTER-LIGAND FREE ENERGY PREDICTED BY IDOCK:   -6.12 KCAL/MOL
REMARK 924 INTRA-LIGAND FREE ENERGY PREDICTED BY IDOCK:   -2.05 KCAL/MOL
REMARK 927      BINDING AFFINITY PREDICTED BY RF-SCORE:    0.00 PKD
ROOT
HETATM    1  C   UNL     1      -5.413  10.917  65.617  1.00  0.00    -0.131 C  
HETATM    2  C   UNL     1      -5.361  10.248  66.984  1.00  0.00    -0.041 C  
ENDROOT
BRANCH   2   3
HETATM    3  C   UNL     1      -5.436   8.727  66.853  1.00  0.00    -0.040 C  
BRANCH   3   4
HETATM    4  C   UNL     1      -5.866   8.054  68.162  1.00  0.00    -0.041 C  
HETATM    5  C   UNL     1      -7.394   8.074  68.389  1.00  0.00    -0.098 C  
HETATM    6  C   UNL     1      -8.218   7.457  67.235  1.00  0.00    -0.115 C  
HETATM    7  C   UNL     1      -7.741   7.428  69.748  1.00  0.00    -0.103 C  
HETATM    8  C   UNL     1      -8.037   5.958  67.052  1.00  0.00    -0.102 C  
BRANCH   7   9
HETATM    9  O   UNL     1      -9.171   7.437  69.915  1.00  0.00    -0.145 OA 
BRANCH   9  10
HETATM   10  C   UNL     1      -9.678   8.483  70.620  1.00  0.00    -0.176 C  
HETATM   11  O   UNL     1      -9.057   9.143  71.440  1.00  0.00    -0.266 OA 
BRANCH  10  12
HETATM   12  C   UNL     1     -11.048   8.861  70.121  1.00  0.00    -0.217 C  
BRANCH  12  13
HETATM   13  C   UNL     1     -11.519  10.234  70.592  1.00  0.00    -0.349 C  
HETATM   14  O   UNL     1     -14.022   9.368  70.709  1.00  0.00    -0.023 OA 
HETATM   15  S   UNL     1     -13.055  10.132  71.457  1.00  0.00    -0.434 S  
HETATM   16  O   UNL     1     -12.550   9.203  72.680  1.00  0.00    -0.296 OA 
HETATM   17  O   UNL     1     -13.372  11.400  72.073  1.00  0.00    -0.467 OA 
BRANCH  13  18
HETATM   18  C   UNL     1     -11.714  11.149  69.424  1.00  0.00    -0.332 C  
HETATM   19  O   UNL     1     -12.228  10.812  68.366  1.00  0.00    -0.470 OA 
BRANCH  18  20
HETATM   20  O   UNL     1     -11.082  12.338  69.633  1.00  0.00    -0.111 OA 
BRANCH  20  21
HETATM   21  C   UNL     1     -10.925  13.156  68.460  1.00  0.00    -0.263 C  
HETATM   22  C   UNL     1      -9.470  13.550  68.146  1.00  0.00    -0.214 C  
HETATM   23  C   UNL     1      -8.545  12.321  68.005  1.00  0.00    -0.176 C  
HETATM   24  C   UNL     1      -9.385  14.463  66.901  1.00  0.00    -0.269 C  
HETATM   25  C   UNL     1      -8.865  11.398  66.837  1.00  0.00    -0.173 C  
BRANCH  24  26
HETATM   26  C   UNL     1     -10.186  15.762  67.032  1.00  0.00    -0.280 C  
BRANCH  26  27
HETATM   27  C   UNL     1     -10.406  16.426  65.672  1.00  0.00    -0.371 C  
HETATM   28  C   UNL     1     -11.148  15.493  64.725  1.00  0.00    -0.421 C  
ENDBRANCH  26  27
ENDBRANCH  24  26
ENDBRANCH  20  21
ENDBRANCH  18  20
ENDBRANCH  13  18
ENDBRANCH  12  13
ENDBRANCH  10  12
ENDBRANCH   9  10
ENDBRANCH   7   9
ENDBRANCH   3   4
ENDBRANCH   2   3
TORSDOF 11
ENDMDL
MODEL      198
REMARK 921   NORMALIZED FREE ENERGY PREDICTED BY IDOCK:   -3.61 KCAL/MOL
REMARK 922        TOTAL FREE ENERGY PREDICTED BY IDOCK:   -8.17 KCAL/MOL
REMARK 923 INTER-LIGAND FREE ENERGY PREDICTED BY IDOCK:   -6.99 KCAL/MOL
REMARK 924 INTRA-LIGAND FREE ENERGY PREDICTED BY IDOCK:   -1.19 KCAL/MOL
REMARK 927      BINDING AFFINITY PREDICTED BY RF-SCORE:    0.00 PKD
ROOT
HETATM    1  C   UNL     1     -10.480  19.618  66.043  1.00  0.00    -0.622 C  
HETATM    2  C   UNL     1      -9.945  19.908  67.438  1.00  0.00    -0.558 C  
ENDROOT
BRANCH   2   3
HETATM    3  C   UNL     1      -9.902  18.635  68.284  1.00  0.00    -0.410 C  
BRANCH   3   4
HETATM    4  C   UNL     1     -10.706  17.493  67.653  1.00  0.00    -0.306 C  
HETATM    5  C   UNL     1     -10.064  16.103  67.859  1.00  0.00    -0.244 C  
HETATM    6  C   UNL     1      -9.789  15.741  69.336  1.00  0.00    -0.286 C  
HETATM    7  C   UNL     1     -10.902  15.017  67.151  1.00  0.00    -0.314 C  
HETATM    8  C   UNL     1     -11.034  15.542  70.187  1.00  0.00    -0.336 C  
BRANCH   7   9
HETATM    9  O   UNL     1     -10.293  13.734  67.385  1.00  0.00    -0.249 OA 
BRANCH   9  10
HETATM   10  C   UNL     1     -11.130  12.750  67.809  1.00  0.00    -0.253 C  
HETATM   11  O   UNL     1     -12.237  12.522  67.343  1.00  0.00    -0.430 OA 
BRANCH  10  12
HETATM   12  C   UNL     1     -10.445  11.841  68.795  1.00  0.00    -0.221 C  
BRANCH  12  13
HETATM   13  C   UNL     1     -10.397  10.380  68.358  1.00  0.00    -0.174 C  
HETATM   14  O   UNL     1      -9.163   9.717  70.608  1.00  0.00    -0.229 OA 
HETATM   15  S   UNL     1     -10.234   9.294  69.741  1.00  0.00    -0.225 S  
HETATM   16  O   UNL     1     -11.625   9.671  70.474  1.00  0.00    -0.264 OA 
HETATM   17  O   UNL     1     -10.405   7.920  69.326  1.00  0.00    -0.213 OA 
BRANCH  13  18
HETATM   18  C   UNL     1      -9.231  10.142  67.452  1.00  0.00    -0.141 C  
HETATM   19  O   UNL     1      -8.395  10.990  67.171  1.00  0.00    -0.126 OA 
BRANCH  18  20
HETATM   20  O   UNL     1      -9.331   8.925  66.847  1.00  0.00    -0.152 OA 
BRANCH  20  21
HETATM   21  C   UNL     1      -9.649   8.968  65.445  1.00  0.00    -0.014 C  
HETATM   22  C   UNL     1      -8.435   9.173  64.520  1.00  0.00    -0.195 C  
HETATM   23  C   UNL     1      -7.345   8.099  64.734  1.00  0.00    -0.089 C  
HETATM   24  C   UNL     1      -8.859   9.254  63.036  1.00  0.00    -0.173 C  
HETATM   25  C   UNL     1      -7.756   6.676  64.381  1.00  0.00    -0.113 C  
BRANCH  24  26
HETATM   26  C   UNL     1      -9.849  10.384  62.737  1.00  0.00    -0.115 C  
BRANCH  26  27
HETATM   27  C   UNL     1      -9.345  11.727  63.264  1.00  0.00    -0.092 C  
HETATM   28  C   UNL     1     -10.434  12.445  64.051  1.00  0.00    -0.443 C  
ENDBRANCH  26  27
ENDBRANCH  24  26
ENDBRANCH  20  21
ENDBRANCH  18  20
ENDBRANCH  13  18
ENDBRANCH  12  13
ENDBRANCH  10  12
ENDBRANCH   9  10
ENDBRANCH   7   9
ENDBRANCH   3   4
ENDBRANCH   2   3
TORSDOF 11
ENDMDL
MODEL      199
REMARK 921   NORMALIZED FREE ENERGY PREDICTED BY IDOCK:   -3.61 KCAL/MOL
REMARK 922        TOTAL FREE ENERGY PREDICTED BY IDOCK:   -8.17 KCAL/MOL
REMARK 923 INTER-LIGAND FREE ENERGY PREDICTED BY IDOCK:   -7.33 KCAL/MOL
REMARK 924 INTRA-LIGAND FREE ENERGY PREDICTED BY IDOCK:   -0.85 KCAL/MOL
REMARK 927      BINDING AFFINITY PREDICTED BY RF-SCORE:    0.00 PKD
ROOT
HETATM    1  C   UNL     1      -6.946   6.260  68.862  1.00  0.00    -0.076 C  
HETATM    2  C   UNL     1      -6.632   7.295  69.933  1.00  0.00    -0.040 C  
ENDROOT
BRANCH   2   3
HETATM    3  C   UNL     1      -7.799   7.445  70.909  1.00  0.00    -0.096 C  
BRANCH   3   4
HETATM    4  C   UNL     1      -8.499   8.803  70.771  1.00  0.00    -0.202 C  
HETATM    5  C   UNL     1      -9.564   8.833  69.652  1.00  0.00    -0.171 C  
HETATM    6  C   UNL     1     -10.650   7.740  69.776  1.00  0.00    -0.241 C  
HETATM    7  C   UNL     1     -10.182  10.243  69.541  1.00  0.00    -0.236 C  
HETATM    8  C   UNL     1     -11.576   7.894  70.973  1.00  0.00    -0.299 C  
BRANCH   7   9
HETATM    9  O   UNL     1     -11.187  10.230  68.512  1.00  0.00    -0.252 OA 
BRANCH   9  10
HETATM   10  C   UNL     1     -11.647  11.447  68.118  1.00  0.00    -0.294 C  
HETATM   11  O   UNL     1     -12.081  12.310  68.868  1.00  0.00    -0.265 OA 
BRANCH  10  12
HETATM   12  C   UNL     1     -11.373  11.685  66.656  1.00  0.00    -0.338 C  
BRANCH  12  13
HETATM   13  C   UNL     1     -11.356  13.159  66.263  1.00  0.00    -0.315 C  
HETATM   14  O   UNL     1     -11.185  12.504  63.700  1.00  0.00    -0.423 OA 
HETATM   15  S   UNL     1     -11.886  13.392  64.594  1.00  0.00    -0.413 S  
HETATM   16  O   UNL     1     -13.387  12.818  64.764  1.00  0.00    -0.736 OA 
HETATM   17  O   UNL     1     -12.065  14.798  64.313  1.00  0.00    -0.474 OA 
BRANCH  13  18
HETATM   18  C   UNL     1      -9.974  13.718  66.384  1.00  0.00    -0.297 C  
HETATM   19  O   UNL     1      -8.966  13.037  66.515  1.00  0.00    -0.178 OA 
BRANCH  18  20
HETATM   20  O   UNL     1     -10.012  15.075  66.514  1.00  0.00    -0.245 OA 
BRANCH  20  21
HETATM   21  C   UNL     1      -8.726  15.715  66.574  1.00  0.00    -0.307 C  
HETATM   22  C   UNL     1      -8.370  16.305  67.952  1.00  0.00    -0.170 C  
HETATM   23  C   UNL     1      -8.438  15.250  69.079  1.00  0.00    -0.221 C  
HETATM   24  C   UNL     1      -6.996  17.014  67.928  1.00  0.00    -0.169 C  
HETATM   25  C   UNL     1      -7.428  14.115  68.968  1.00  0.00    -0.082 C  
BRANCH  24  26
HETATM   26  C   UNL     1      -6.908  18.156  66.912  1.00  0.00    -0.214 C  
BRANCH  26  27
HETATM   27  C   UNL     1      -6.335  19.427  67.541  1.00  0.00    -0.215 C  
HETATM   28  C   UNL     1      -7.055  19.760  68.842  1.00  0.00    -0.358 C  
ENDBRANCH  26  27
ENDBRANCH  24  26
ENDBRANCH  20  21
ENDBRANCH  18  20
ENDBRANCH  13  18
ENDBRANCH  12  13
ENDBRANCH  10  12
ENDBRANCH   9  10
ENDBRANCH   7   9
ENDBRANCH   3   4
ENDBRANCH   2   3
TORSDOF 11
ENDMDL
MODEL      200
REMARK 921   NORMALIZED FREE ENERGY PREDICTED BY IDOCK:   -3.60 KCAL/MOL
REMARK 922        TOTAL FREE ENERGY PREDICTED BY IDOCK:   -8.17 KCAL/MOL
REMARK 923 INTER-LIGAND FREE ENERGY PREDICTED BY IDOCK:   -7.01 KCAL/MOL
REMARK 924 INTRA-LIGAND FREE ENERGY PREDICTED BY IDOCK:   -1.16 KCAL/MOL
REMARK 927      BINDING AFFINITY PREDICTED BY RF-SCORE:    0.00 PKD
ROOT
HETATM    1  C   UNL     1      -5.286  20.745  66.137  1.00  0.00    -0.216 C  
HETATM    2  C   UNL     1      -6.644  20.156  65.784  1.00  0.00    -0.269 C  
ENDROOT
BRANCH   2   3
HETATM    3  C   UNL     1      -7.746  20.756  66.658  1.00  0.00    -0.095 C  
BRANCH   3   4
HETATM    4  C   UNL     1      -9.146  20.341  66.191  1.00  0.00    -0.227 C  
HETATM    5  C   UNL     1      -9.453  18.845  66.422  1.00  0.00    -0.358 C  
HETATM    6  C   UNL     1      -9.273  18.376  67.884  1.00  0.00    -0.294 C  
HETATM    7  C   UNL     1     -10.855  18.497  65.878  1.00  0.00    -0.035 C  
HETATM    8  C   UNL     1     -10.270  18.966  68.871  1.00  0.00    -0.267 C  
BRANCH   7   9
HETATM    9  O   UNL     1     -11.120  17.105  66.134  1.00  0.00     0.111 OA 
BRANCH   9  10
HETATM   10  C   UNL     1     -11.543  16.377  65.067  1.00  0.00     0.300 C  
HETATM   11  O   UNL     1     -11.489  16.743  63.903  1.00  0.00    -1.116 OA 
BRANCH  10  12
HETATM   12  C   UNL     1     -11.908  14.975  65.477  1.00  0.00    -0.071 C  
BRANCH  12  13
HETATM   13  C   UNL     1     -11.014  13.900  64.863  1.00  0.00    -0.386 C  
HETATM   14  O   UNL     1     -12.996  12.143  64.982  1.00  0.00    -0.418 OA 
HETATM   15  S   UNL     1     -11.966  12.626  64.096  1.00  0.00    -0.466 S  
HETATM   16  O   UNL     1     -12.685  13.542  62.974  1.00  0.00    -0.668 OA 
HETATM   17  O   UNL     1     -11.108  11.739  63.343  1.00  0.00    -0.393 OA 
BRANCH  13  18
HETATM   18  C   UNL     1     -10.164  13.262  65.915  1.00  0.00    -0.293 C  
HETATM   19  O   UNL     1     -10.484  12.264  66.545  1.00  0.00    -0.223 OA 
BRANCH  18  20
HETATM   20  O   UNL     1      -9.083  14.043  66.200  1.00  0.00    -0.106 OA 
BRANCH  20  21
HETATM   21  C   UNL     1      -9.242  14.907  67.339  1.00  0.00    -0.194 C  
HETATM   22  C   UNL     1      -8.857  14.267  68.685  1.00  0.00    -0.150 C  
HETATM   23  C   UNL     1      -7.409  13.728  68.688  1.00  0.00    -0.117 C  
HETATM   24  C   UNL     1      -9.096  15.238  69.865  1.00  0.00     0.099 C  
HETATM   25  C   UNL     1      -6.322  14.783  68.534  1.00  0.00    -0.086 C  
BRANCH  24  26
HETATM   26  C   UNL     1     -10.547  15.712  69.990  1.00  0.00    -0.342 C  
BRANCH  26  27
HETATM   27  C   UNL     1     -11.498  14.547  70.263  1.00  0.00    -0.281 C  
HETATM   28  C   UNL     1     -12.808  15.044  70.860  1.00  0.00    -0.451 C  
ENDBRANCH  26  27
ENDBRANCH  24  26
ENDBRANCH  20  21
ENDBRANCH  18  20
ENDBRANCH  13  18
ENDBRANCH  12  13
ENDBRANCH  10  12
ENDBRANCH   9  10
ENDBRANCH   7   9
ENDBRANCH   3   4
ENDBRANCH   2   3
TORSDOF 11
ENDMDL
MODEL      201
REMARK 921   NORMALIZED FREE ENERGY PREDICTED BY IDOCK:   -3.60 KCAL/MOL
REMARK 922        TOTAL FREE ENERGY PREDICTED BY IDOCK:   -8.16 KCAL/MOL
REMARK 923 INTER-LIGAND FREE ENERGY PREDICTED BY IDOCK:   -6.89 KCAL/MOL
REMARK 924 INTRA-LIGAND FREE ENERGY PREDICTED BY IDOCK:   -1.27 KCAL/MOL
REMARK 927      BINDING AFFINITY PREDICTED BY RF-SCORE:    0.00 PKD
ROOT
HETATM    1  C   UNL     1      -9.492  19.642  66.858  1.00  0.00    -0.456 C  
HETATM    2  C   UNL     1      -9.119  18.552  67.853  1.00  0.00    -0.306 C  
ENDROOT
BRANCH   2   3
HETATM    3  C   UNL     1     -10.360  17.800  68.333  1.00  0.00    -0.378 C  
BRANCH   3   4
HETATM    4  C   UNL     1     -10.785  16.699  67.353  1.00  0.00    -0.253 C  
HETATM    5  C   UNL     1     -10.167  15.321  67.673  1.00  0.00    -0.242 C  
HETATM    6  C   UNL     1     -10.437  14.819  69.110  1.00  0.00    -0.243 C  
HETATM    7  C   UNL     1     -10.598  14.283  66.615  1.00  0.00    -0.278 C  
HETATM    8  C   UNL     1     -11.892  14.488  69.407  1.00  0.00    -0.367 C  
BRANCH   7   9
HETATM    9  O   UNL     1     -10.029  13.006  66.957  1.00  0.00    -0.234 OA 
BRANCH   9  10
HETATM   10  C   UNL     1     -10.802  11.921  66.686  1.00  0.00    -0.276 C  
HETATM   11  O   UNL     1     -12.013  11.867  66.840  1.00  0.00    -0.614 OA 
BRANCH  10  12
HETATM   12  C   UNL     1     -10.010  10.853  65.980  1.00  0.00    -0.290 C  
BRANCH  12  13
HETATM   13  C   UNL     1      -9.233   9.936  66.921  1.00  0.00    -0.147 C  
HETATM   14  O   UNL     1      -8.394   8.487  64.866  1.00  0.00    -0.157 OA 
HETATM   15  S   UNL     1      -7.921   9.104  66.080  1.00  0.00    -0.104 S  
HETATM   16  O   UNL     1      -7.073  10.413  65.657  1.00  0.00    -0.138 OA 
HETATM   17  O   UNL     1      -7.074   8.413  67.026  1.00  0.00    -0.076 OA 
BRANCH  13  18
HETATM   18  C   UNL     1     -10.135   8.894  67.501  1.00  0.00    -0.227 C  
HETATM   19  O   UNL     1     -10.855   8.161  66.837  1.00  0.00    -0.250 OA 
BRANCH  18  20
HETATM   20  O   UNL     1     -10.183   9.000  68.860  1.00  0.00    -0.197 OA 
BRANCH  20  21
HETATM   21  C   UNL     1     -10.365   7.757  69.559  1.00  0.00    -0.219 C  
HETATM   22  C   UNL     1      -9.073   7.161  70.148  1.00  0.00    -0.152 C  
HETATM   23  C   UNL     1      -8.348   8.144  71.093  1.00  0.00    -0.134 C  
HETATM   24  C   UNL     1      -9.340   5.806  70.845  1.00  0.00    -0.185 C  
HETATM   25  C   UNL     1      -9.112   8.514  72.357  1.00  0.00    -0.308 C  
BRANCH  24  26
HETATM   26  C   UNL     1      -9.947   4.746  69.922  1.00  0.00    -0.306 C  
BRANCH  26  27
HETATM   27  C   UNL     1      -8.888   3.763  69.421  1.00  0.00    -0.146 C  
HETATM   28  C   UNL     1      -9.463   2.843  68.352  1.00  0.00    -0.207 C  
ENDBRANCH  26  27
ENDBRANCH  24  26
ENDBRANCH  20  21
ENDBRANCH  18  20
ENDBRANCH  13  18
ENDBRANCH  12  13
ENDBRANCH  10  12
ENDBRANCH   9  10
ENDBRANCH   7   9
ENDBRANCH   3   4
ENDBRANCH   2   3
TORSDOF 11
ENDMDL
MODEL      202
REMARK 921   NORMALIZED FREE ENERGY PREDICTED BY IDOCK:   -3.59 KCAL/MOL
REMARK 922        TOTAL FREE ENERGY PREDICTED BY IDOCK:   -8.15 KCAL/MOL
REMARK 923 INTER-LIGAND FREE ENERGY PREDICTED BY IDOCK:   -6.69 KCAL/MOL
REMARK 924 INTRA-LIGAND FREE ENERGY PREDICTED BY IDOCK:   -1.46 KCAL/MOL
REMARK 927      BINDING AFFINITY PREDICTED BY RF-SCORE:    0.00 PKD
ROOT
HETATM    1  C   UNL     1     -10.663   4.675  74.194  1.00  0.00    -0.329 C  
HETATM    2  C   UNL     1     -11.342   5.130  72.910  1.00  0.00    -0.354 C  
ENDROOT
BRANCH   2   3
HETATM    3  C   UNL     1     -10.444   6.083  72.122  1.00  0.00    -0.246 C  
BRANCH   3   4
HETATM    4  C   UNL     1     -11.249   7.025  71.219  1.00  0.00    -0.296 C  
HETATM    5  C   UNL     1     -11.003   8.520  71.518  1.00  0.00    -0.337 C  
HETATM    6  C   UNL     1      -9.519   8.947  71.458  1.00  0.00    -0.347 C  
HETATM    7  C   UNL     1     -11.887   9.399  70.607  1.00  0.00    -0.207 C  
HETATM    8  C   UNL     1      -8.892   8.888  70.073  1.00  0.00    -0.165 C  
BRANCH   7   9
HETATM    9  O   UNL     1     -11.614  10.784  70.890  1.00  0.00    -0.306 OA 
BRANCH   9  10
HETATM   10  C   UNL     1     -12.682  11.531  71.274  1.00  0.00    -0.364 C  
HETATM   11  O   UNL     1     -13.307  11.379  72.314  1.00  0.00    -0.410 OA 
BRANCH  10  12
HETATM   12  C   UNL     1     -12.882  12.706  70.354  1.00  0.00     0.163 C  
BRANCH  12  13
HETATM   13  C   UNL     1     -11.589  13.423  69.977  1.00  0.00    -0.148 C  
HETATM   14  O   UNL     1     -12.850  15.755  69.965  1.00  0.00    -0.225 OA 
HETATM   15  S   UNL     1     -11.637  15.130  70.429  1.00  0.00    -0.319 S  
HETATM   16  O   UNL     1     -11.782  14.924  72.026  1.00  0.00    -0.365 OA 
HETATM   17  O   UNL     1     -10.334  15.733  70.260  1.00  0.00    -0.286 OA 
BRANCH  13  18
HETATM   18  C   UNL     1     -11.360  13.350  68.501  1.00  0.00    -0.289 C  
HETATM   19  O   UNL     1     -12.201  13.639  67.660  1.00  0.00    -0.326 OA 
BRANCH  18  20
HETATM   20  O   UNL     1     -10.169  12.748  68.226  1.00  0.00    -0.233 OA 
BRANCH  20  21
HETATM   21  C   UNL     1      -9.180  13.604  67.628  1.00  0.00    -0.213 C  
HETATM   22  C   UNL     1      -7.882  13.748  68.444  1.00  0.00    -0.143 C  
HETATM   23  C   UNL     1      -7.221  12.385  68.744  1.00  0.00    -0.094 C  
HETATM   24  C   UNL     1      -6.887  14.716  67.762  1.00  0.00    -0.193 C  
HETATM   25  C   UNL     1      -6.726  11.620  67.525  1.00  0.00    -0.096 C  
BRANCH  24  26
HETATM   26  C   UNL     1      -7.445  16.126  67.549  1.00  0.00    -0.179 C  
BRANCH  26  27
HETATM   27  C   UNL     1      -6.480  17.196  68.060  1.00  0.00    -0.151 C  
HETATM   28  C   UNL     1      -6.361  17.141  69.577  1.00  0.00    -0.230 C  
ENDBRANCH  26  27
ENDBRANCH  24  26
ENDBRANCH  20  21
ENDBRANCH  18  20
ENDBRANCH  13  18
ENDBRANCH  12  13
ENDBRANCH  10  12
ENDBRANCH   9  10
ENDBRANCH   7   9
ENDBRANCH   3   4
ENDBRANCH   2   3
TORSDOF 11
ENDMDL
MODEL      203
REMARK 921   NORMALIZED FREE ENERGY PREDICTED BY IDOCK:   -3.59 KCAL/MOL
REMARK 922        TOTAL FREE ENERGY PREDICTED BY IDOCK:   -8.15 KCAL/MOL
REMARK 923 INTER-LIGAND FREE ENERGY PREDICTED BY IDOCK:   -6.77 KCAL/MOL
REMARK 924 INTRA-LIGAND FREE ENERGY PREDICTED BY IDOCK:   -1.38 KCAL/MOL
REMARK 927      BINDING AFFINITY PREDICTED BY RF-SCORE:    0.00 PKD
ROOT
HETATM    1  C   UNL     1     -10.270   6.850  74.130  1.00  0.00    -0.331 C  
HETATM    2  C   UNL     1      -9.078   5.904  74.178  1.00  0.00    -0.128 C  
ENDROOT
BRANCH   2   3
HETATM    3  C   UNL     1      -8.929   5.143  72.861  1.00  0.00    -0.120 C  
BRANCH   3   4
HETATM    4  C   UNL     1      -8.601   6.073  71.688  1.00  0.00    -0.131 C  
HETATM    5  C   UNL     1      -9.207   5.607  70.346  1.00  0.00    -0.179 C  
HETATM    6  C   UNL     1     -10.737   5.392  70.378  1.00  0.00    -0.276 C  
HETATM    7  C   UNL     1      -8.788   6.563  69.209  1.00  0.00    -0.132 C  
HETATM    8  C   UNL     1     -11.556   6.661  70.566  1.00  0.00    -0.448 C  
BRANCH   7   9
HETATM    9  O   UNL     1      -9.391   6.117  67.980  1.00  0.00    -0.116 OA 
BRANCH   9  10
HETATM   10  C   UNL     1     -10.062   7.063  67.272  1.00  0.00    -0.204 C  
HETATM   11  O   UNL     1     -11.173   6.918  66.785  1.00  0.00    -0.279 OA 
BRANCH  10  12
HETATM   12  C   UNL     1      -9.352   8.390  67.330  1.00  0.00    -0.181 C  
BRANCH  12  13
HETATM   13  C   UNL     1      -9.954   9.453  66.416  1.00  0.00    -0.276 C  
HETATM   14  O   UNL     1      -7.531  10.311  65.767  1.00  0.00    -0.131 OA 
HETATM   15  S   UNL     1      -8.804   9.974  65.181  1.00  0.00    -0.197 S  
HETATM   16  O   UNL     1      -8.631   8.550  64.436  1.00  0.00    -0.127 OA 
HETATM   17  O   UNL     1      -9.459  10.815  64.205  1.00  0.00    -0.225 OA 
BRANCH  13  18
HETATM   18  C   UNL     1     -10.351  10.660  67.206  1.00  0.00    -0.220 C  
HETATM   19  O   UNL     1     -10.051  10.843  68.378  1.00  0.00    -0.170 OA 
BRANCH  18  20
HETATM   20  O   UNL     1     -11.236  11.425  66.506  1.00  0.00    -0.296 OA 
BRANCH  20  21
HETATM   21  C   UNL     1     -11.482  12.729  67.060  1.00  0.00    -0.341 C  
HETATM   22  C   UNL     1     -10.633  13.856  66.443  1.00  0.00    -0.280 C  
HETATM   23  C   UNL     1     -10.799  13.944  64.909  1.00  0.00    -0.413 C  
HETATM   24  C   UNL     1     -10.919  15.217  67.117  1.00  0.00    -0.331 C  
HETATM   25  C   UNL     1     -12.193  14.320  64.427  1.00  0.00    -0.471 C  
BRANCH  24  26
HETATM   26  C   UNL     1     -10.653  15.227  68.626  1.00  0.00    -0.236 C  
BRANCH  26  27
HETATM   27  C   UNL     1     -10.109  16.577  69.093  1.00  0.00    -0.287 C  
HETATM   28  C   UNL     1      -9.146  17.159  68.066  1.00  0.00    -0.240 C  
ENDBRANCH  26  27
ENDBRANCH  24  26
ENDBRANCH  20  21
ENDBRANCH  18  20
ENDBRANCH  13  18
ENDBRANCH  12  13
ENDBRANCH  10  12
ENDBRANCH   9  10
ENDBRANCH   7   9
ENDBRANCH   3   4
ENDBRANCH   2   3
TORSDOF 11
ENDMDL
MODEL      204
REMARK 921   NORMALIZED FREE ENERGY PREDICTED BY IDOCK:   -3.57 KCAL/MOL
REMARK 922        TOTAL FREE ENERGY PREDICTED BY IDOCK:   -8.12 KCAL/MOL
REMARK 923 INTER-LIGAND FREE ENERGY PREDICTED BY IDOCK:   -6.96 KCAL/MOL
REMARK 924 INTRA-LIGAND FREE ENERGY PREDICTED BY IDOCK:   -1.16 KCAL/MOL
REMARK 927      BINDING AFFINITY PREDICTED BY RF-SCORE:    0.00 PKD
ROOT
HETATM    1  C   UNL     1      -7.182   9.215  64.972  1.00  0.00    -0.096 C  
HETATM    2  C   UNL     1      -6.345   8.674  66.123  1.00  0.00    -0.056 C  
ENDROOT
BRANCH   2   3
HETATM    3  C   UNL     1      -6.584   7.177  66.318  1.00  0.00    -0.052 C  
BRANCH   3   4
HETATM    4  C   UNL     1      -6.648   6.788  67.800  1.00  0.00    -0.058 C  
HETATM    5  C   UNL     1      -8.001   7.122  68.465  1.00  0.00    -0.124 C  
HETATM    6  C   UNL     1      -9.229   6.510  67.752  1.00  0.00    -0.113 C  
HETATM    7  C   UNL     1      -7.967   6.752  69.963  1.00  0.00    -0.116 C  
HETATM    8  C   UNL     1      -9.314   4.992  67.817  1.00  0.00    -0.146 C  
BRANCH   7   9
HETATM    9  O   UNL     1      -9.250   7.049  70.545  1.00  0.00    -0.158 OA 
BRANCH   9  10
HETATM   10  C   UNL     1      -9.518   8.366  70.746  1.00  0.00    -0.169 C  
HETATM   11  O   UNL     1      -8.754   9.165  71.266  1.00  0.00    -0.270 OA 
BRANCH  10  12
HETATM   12  C   UNL     1     -10.801   8.769  70.068  1.00  0.00    -0.231 C  
BRANCH  12  13
HETATM   13  C   UNL     1     -11.491   9.967  70.715  1.00  0.00    -0.356 C  
HETATM   14  O   UNL     1     -13.750   8.594  70.915  1.00  0.00     0.039 OA 
HETATM   15  S   UNL     1     -12.891   9.471  71.671  1.00  0.00    -0.424 S  
HETATM   16  O   UNL     1     -12.102   8.560  72.749  1.00  0.00    -0.337 OA 
HETATM   17  O   UNL     1     -13.397  10.585  72.440  1.00  0.00    -0.287 OA 
BRANCH  13  18
HETATM   18  C   UNL     1     -11.970  10.923  69.670  1.00  0.00    -0.343 C  
HETATM   19  O   UNL     1     -12.211  10.611  68.511  1.00  0.00    -0.382 OA 
BRANCH  18  20
HETATM   20  O   UNL     1     -11.921  12.205  70.130  1.00  0.00    -0.339 OA 
BRANCH  20  21
HETATM   21  C   UNL     1     -11.280  13.143  69.248  1.00  0.00    -0.206 C  
HETATM   22  C   UNL     1     -12.116  14.397  68.933  1.00  0.00    -0.288 C  
HETATM   23  C   UNL     1     -12.547  15.153  70.209  1.00  0.00    -0.370 C  
HETATM   24  C   UNL     1     -11.382  15.336  67.946  1.00  0.00    -0.339 C  
HETATM   25  C   UNL     1     -11.410  15.748  71.028  1.00  0.00    -0.437 C  
BRANCH  24  26
HETATM   26  C   UNL     1     -11.037  14.676  66.608  1.00  0.00    -0.334 C  
BRANCH  26  27
HETATM   27  C   UNL     1     -12.288  14.165  65.892  1.00  0.00    -0.486 C  
HETATM   28  C   UNL     1     -12.207  14.438  64.396  1.00  0.00    -0.481 C  
ENDBRANCH  26  27
ENDBRANCH  24  26
ENDBRANCH  20  21
ENDBRANCH  18  20
ENDBRANCH  13  18
ENDBRANCH  12  13
ENDBRANCH  10  12
ENDBRANCH   9  10
ENDBRANCH   7   9
ENDBRANCH   3   4
ENDBRANCH   2   3
TORSDOF 11
ENDMDL
MODEL      205
REMARK 921   NORMALIZED FREE ENERGY PREDICTED BY IDOCK:   -3.57 KCAL/MOL
REMARK 922        TOTAL FREE ENERGY PREDICTED BY IDOCK:   -8.11 KCAL/MOL
REMARK 923 INTER-LIGAND FREE ENERGY PREDICTED BY IDOCK:   -6.02 KCAL/MOL
REMARK 924 INTRA-LIGAND FREE ENERGY PREDICTED BY IDOCK:   -2.08 KCAL/MOL
REMARK 927      BINDING AFFINITY PREDICTED BY RF-SCORE:    0.00 PKD
ROOT
HETATM    1  C   UNL     1      -8.477   9.286  64.324  1.00  0.00    -0.202 C  
HETATM    2  C   UNL     1      -9.601   9.755  65.238  1.00  0.00    -0.368 C  
ENDROOT
BRANCH   2   3
HETATM    3  C   UNL     1      -9.934  11.225  64.986  1.00  0.00    -0.323 C  
BRANCH   3   4
HETATM    4  C   UNL     1     -11.029  11.741  65.927  1.00  0.00    -0.354 C  
HETATM    5  C   UNL     1     -10.687  11.562  67.423  1.00  0.00    -0.275 C  
HETATM    6  C   UNL     1      -9.344  12.198  67.850  1.00  0.00    -0.192 C  
HETATM    7  C   UNL     1     -11.857  12.053  68.301  1.00  0.00    -0.287 C  
HETATM    8  C   UNL     1      -9.311  13.718  67.792  1.00  0.00    -0.213 C  
BRANCH   7   9
HETATM    9  O   UNL     1     -11.496  11.899  69.686  1.00  0.00    -0.285 OA 
BRANCH   9  10
HETATM   10  C   UNL     1     -12.057  10.842  70.330  1.00  0.00    -0.363 C  
HETATM   11  O   UNL     1     -13.257  10.623  70.404  1.00  0.00    -0.204 OA 
BRANCH  10  12
HETATM   12  C   UNL     1     -11.008   9.858  70.777  1.00  0.00    -0.407 C  
BRANCH  12  13
HETATM   13  C   UNL     1     -11.408   8.398  70.582  1.00  0.00    -0.244 C  
HETATM   14  O   UNL     1     -10.488   7.794  72.994  1.00  0.00    -0.320 OA 
HETATM   15  S   UNL     1     -11.619   7.572  72.129  1.00  0.00    -0.311 S  
HETATM   16  O   UNL     1     -12.839   8.473  72.689  1.00  0.00    -0.323 OA 
HETATM   17  O   UNL     1     -12.200   6.264  71.926  1.00  0.00    -0.329 OA 
BRANCH  13  18
HETATM   18  C   UNL     1     -10.355   7.665  69.814  1.00  0.00    -0.223 C  
HETATM   19  O   UNL     1     -10.126   6.469  69.932  1.00  0.00    -0.169 OA 
BRANCH  18  20
HETATM   20  O   UNL     1      -9.573   8.536  69.115  1.00  0.00    -0.164 OA 
BRANCH  20  21
HETATM   21  C   UNL     1      -8.327   7.992  68.647  1.00  0.00    -0.127 C  
HETATM   22  C   UNL     1      -7.237   9.043  68.365  1.00  0.00    -0.077 C  
HETATM   23  C   UNL     1      -6.944   9.931  69.594  1.00  0.00    -0.086 C  
HETATM   24  C   UNL     1      -5.945   8.389  67.824  1.00  0.00    -0.047 C  
HETATM   25  C   UNL     1      -6.357   9.204  70.796  1.00  0.00    -0.064 C  
BRANCH  24  26
HETATM   26  C   UNL     1      -6.149   7.593  66.532  1.00  0.00    -0.044 C  
BRANCH  26  27
HETATM   27  C   UNL     1      -5.406   6.257  66.570  1.00  0.00    -0.013 C  
HETATM   28  C   UNL     1      -5.433   5.661  67.971  1.00  0.00    -0.008 C  
ENDBRANCH  26  27
ENDBRANCH  24  26
ENDBRANCH  20  21
ENDBRANCH  18  20
ENDBRANCH  13  18
ENDBRANCH  12  13
ENDBRANCH  10  12
ENDBRANCH   9  10
ENDBRANCH   7   9
ENDBRANCH   3   4
ENDBRANCH   2   3
TORSDOF 11
ENDMDL
MODEL      206
REMARK 921   NORMALIZED FREE ENERGY PREDICTED BY IDOCK:   -3.56 KCAL/MOL
REMARK 922        TOTAL FREE ENERGY PREDICTED BY IDOCK:   -8.09 KCAL/MOL
REMARK 923 INTER-LIGAND FREE ENERGY PREDICTED BY IDOCK:   -7.89 KCAL/MOL
REMARK 924 INTRA-LIGAND FREE ENERGY PREDICTED BY IDOCK:   -0.20 KCAL/MOL
REMARK 927      BINDING AFFINITY PREDICTED BY RF-SCORE:    0.00 PKD
ROOT
HETATM    1  C   UNL     1      -5.905  16.696  67.102  1.00  0.00    -0.194 C  
HETATM    2  C   UNL     1      -6.153  18.050  67.751  1.00  0.00    -0.161 C  
ENDROOT
BRANCH   2   3
HETATM    3  C   UNL     1      -7.190  17.941  68.868  1.00  0.00    -0.258 C  
BRANCH   3   4
HETATM    4  C   UNL     1      -8.621  18.136  68.352  1.00  0.00    -0.310 C  
HETATM    5  C   UNL     1      -9.218  16.867  67.705  1.00  0.00    -0.230 C  
HETATM    6  C   UNL     1      -9.200  15.619  68.617  1.00  0.00    -0.205 C  
HETATM    7  C   UNL     1     -10.634  17.158  67.164  1.00  0.00    -0.244 C  
HETATM    8  C   UNL     1     -10.111  15.703  69.833  1.00  0.00    -0.272 C  
BRANCH   7   9
HETATM    9  O   UNL     1     -11.172  15.951  66.595  1.00  0.00    -0.129 OA 
BRANCH   9  10
HETATM   10  C   UNL     1     -10.993  15.796  65.257  1.00  0.00    -0.344 C  
HETATM   11  O   UNL     1     -11.284  16.627  64.409  1.00  0.00    -1.033 OA 
BRANCH  10  12
HETATM   12  C   UNL     1     -10.204  14.550  64.954  1.00  0.00    -0.338 C  
BRANCH  12  13
HETATM   13  C   UNL     1     -10.977  13.509  64.149  1.00  0.00    -0.251 C  
HETATM   14  O   UNL     1     -12.040  12.534  66.374  1.00  0.00    -0.576 OA 
HETATM   15  S   UNL     1     -12.391  12.926  65.031  1.00  0.00    -0.489 S  
HETATM   16  O   UNL     1     -13.178  14.335  65.130  1.00  0.00    -0.686 OA 
HETATM   17  O   UNL     1     -13.219  12.109  64.173  1.00  0.00    -0.740 OA 
BRANCH  13  18
HETATM   18  C   UNL     1     -10.109  12.328  63.849  1.00  0.00    -0.347 C  
HETATM   19  O   UNL     1      -9.428  12.215  62.839  1.00  0.00    -0.200 OA 
BRANCH  18  20
HETATM   20  O   UNL     1     -10.323  11.330  64.752  1.00  0.00    -0.270 OA 
BRANCH  20  21
HETATM   21  C   UNL     1      -9.149  10.589  65.128  1.00  0.00    -0.197 C  
HETATM   22  C   UNL     1      -7.992  11.454  65.661  1.00  0.00     0.335 C  
HETATM   23  C   UNL     1      -8.415  12.329  66.861  1.00  0.00    -0.159 C  
HETATM   24  C   UNL     1      -6.752  10.595  66.002  1.00  0.00    -0.128 C  
HETATM   25  C   UNL     1      -8.819  11.563  68.114  1.00  0.00    -0.165 C  
BRANCH  24  26
HETATM   26  C   UNL     1      -6.209   9.795  64.814  1.00  0.00    -0.095 C  
BRANCH  26  27
HETATM   27  C   UNL     1      -5.678  10.714  63.713  1.00  0.00    -0.046 C  
HETATM   28  C   UNL     1      -6.418  10.478  62.403  1.00  0.00    -0.153 C  
ENDBRANCH  26  27
ENDBRANCH  24  26
ENDBRANCH  20  21
ENDBRANCH  18  20
ENDBRANCH  13  18
ENDBRANCH  12  13
ENDBRANCH  10  12
ENDBRANCH   9  10
ENDBRANCH   7   9
ENDBRANCH   3   4
ENDBRANCH   2   3
TORSDOF 11
ENDMDL
MODEL      207
REMARK 921   NORMALIZED FREE ENERGY PREDICTED BY IDOCK:   -3.55 KCAL/MOL
REMARK 922        TOTAL FREE ENERGY PREDICTED BY IDOCK:   -8.09 KCAL/MOL
REMARK 923 INTER-LIGAND FREE ENERGY PREDICTED BY IDOCK:   -6.82 KCAL/MOL
REMARK 924 INTRA-LIGAND FREE ENERGY PREDICTED BY IDOCK:   -1.27 KCAL/MOL
REMARK 927      BINDING AFFINITY PREDICTED BY RF-SCORE:    0.00 PKD
ROOT
HETATM    1  C   UNL     1      -9.419   4.636  67.556  1.00  0.00    -0.182 C  
HETATM    2  C   UNL     1     -10.677   5.189  66.901  1.00  0.00    -0.148 C  
ENDROOT
BRANCH   2   3
HETATM    3  C   UNL     1     -11.078   6.526  67.525  1.00  0.00    -0.396 C  
BRANCH   3   4
HETATM    4  C   UNL     1     -10.370   7.712  66.858  1.00  0.00    -0.388 C  
HETATM    5  C   UNL     1      -9.961   8.820  67.853  1.00  0.00    -0.231 C  
HETATM    6  C   UNL     1      -9.082   8.331  69.027  1.00  0.00    -0.147 C  
HETATM    7  C   UNL     1      -9.306   9.998  67.101  1.00  0.00    -0.149 C  
HETATM    8  C   UNL     1      -7.691   7.861  68.629  1.00  0.00    -0.113 C  
BRANCH   7   9
HETATM    9  O   UNL     1      -8.912  10.999  68.057  1.00  0.00    -0.136 OA 
BRANCH   9  10
HETATM   10  C   UNL     1      -9.739  12.073  68.165  1.00  0.00    -0.199 C  
HETATM   11  O   UNL     1     -10.301  12.424  69.192  1.00  0.00    -0.023 OA 
BRANCH  10  12
HETATM   12  C   UNL     1      -9.723  12.899  66.907  1.00  0.00    -0.240 C  
BRANCH  12  13
HETATM   13  C   UNL     1     -10.963  13.770  66.723  1.00  0.00    -0.304 C  
HETATM   14  O   UNL     1     -11.090  13.101  64.161  1.00  0.00    -0.375 OA 
HETATM   15  S   UNL     1     -11.919  13.253  65.331  1.00  0.00    -0.423 S  
HETATM   16  O   UNL     1     -12.282  11.769  65.860  1.00  0.00    -0.308 OA 
HETATM   17  O   UNL     1     -13.186  13.948  65.304  1.00  0.00    -0.774 OA 
BRANCH  13  18
HETATM   18  C   UNL     1     -10.574  15.197  66.503  1.00  0.00    -0.304 C  
HETATM   19  O   UNL     1     -10.853  15.839  65.499  1.00  0.00    -0.344 OA 
BRANCH  18  20
HETATM   20  O   UNL     1      -9.719  15.619  67.478  1.00  0.00    -0.220 OA 
BRANCH  20  21
HETATM   21  C   UNL     1      -8.410  15.995  67.016  1.00  0.00    -0.219 C  
HETATM   22  C   UNL     1      -7.418  16.361  68.136  1.00  0.00    -0.152 C  
HETATM   23  C   UNL     1      -7.256  15.226  69.172  1.00  0.00    -0.169 C  
HETATM   24  C   UNL     1      -6.049  16.796  67.562  1.00  0.00    -0.179 C  
HETATM   25  C   UNL     1      -6.644  13.939  68.636  1.00  0.00    -0.095 C  
BRANCH  24  26
HETATM   26  C   UNL     1      -6.130  18.001  66.620  1.00  0.00    -0.201 C  
BRANCH  26  27
HETATM   27  C   UNL     1      -5.163  17.860  65.443  1.00  0.00    -0.125 C  
HETATM   28  C   UNL     1      -5.478  18.881  64.358  1.00  0.00    -0.277 C  
ENDBRANCH  26  27
ENDBRANCH  24  26
ENDBRANCH  20  21
ENDBRANCH  18  20
ENDBRANCH  13  18
ENDBRANCH  12  13
ENDBRANCH  10  12
ENDBRANCH   9  10
ENDBRANCH   7   9
ENDBRANCH   3   4
ENDBRANCH   2   3
TORSDOF 11
ENDMDL
MODEL      208
REMARK 921   NORMALIZED FREE ENERGY PREDICTED BY IDOCK:   -3.55 KCAL/MOL
REMARK 922        TOTAL FREE ENERGY PREDICTED BY IDOCK:   -8.08 KCAL/MOL
REMARK 923 INTER-LIGAND FREE ENERGY PREDICTED BY IDOCK:   -6.35 KCAL/MOL
REMARK 924 INTRA-LIGAND FREE ENERGY PREDICTED BY IDOCK:   -1.74 KCAL/MOL
REMARK 927      BINDING AFFINITY PREDICTED BY RF-SCORE:    0.00 PKD
ROOT
HETATM    1  C   UNL     1     -12.351  12.472  63.449  1.00  0.00    -0.577 C  
HETATM    2  C   UNL     1     -11.042  13.060  63.957  1.00  0.00    -0.433 C  
ENDROOT
BRANCH   2   3
HETATM    3  C   UNL     1     -11.020  13.110  65.485  1.00  0.00    -0.296 C  
BRANCH   3   4
HETATM    4  C   UNL     1     -11.264  11.733  66.113  1.00  0.00    -0.363 C  
HETATM    5  C   UNL     1     -10.259  11.383  67.233  1.00  0.00    -0.229 C  
HETATM    6  C   UNL     1     -10.185  12.427  68.371  1.00  0.00    -0.227 C  
HETATM    7  C   UNL     1     -10.536   9.965  67.776  1.00  0.00    -0.261 C  
HETATM    8  C   UNL     1     -11.442  12.535  69.222  1.00  0.00    -0.353 C  
BRANCH   7   9
HETATM    9  O   UNL     1      -9.604   9.682  68.835  1.00  0.00    -0.153 OA 
BRANCH   9  10
HETATM   10  C   UNL     1     -10.090   8.951  69.873  1.00  0.00    -0.195 C  
HETATM   11  O   UNL     1     -11.036   8.180  69.805  1.00  0.00    -0.225 OA 
BRANCH  10  12
HETATM   12  C   UNL     1      -9.193   9.054  71.078  1.00  0.00    -0.331 C  
BRANCH  12  13
HETATM   13  C   UNL     1      -8.599   7.721  71.522  1.00  0.00    -0.117 C  
HETATM   14  O   UNL     1      -8.100   8.711  73.930  1.00  0.00    -0.398 OA 
HETATM   15  S   UNL     1      -8.641   7.544  73.279  1.00  0.00    -0.177 S  
HETATM   16  O   UNL     1     -10.247   7.593  73.460  1.00  0.00    -0.334 OA 
HETATM   17  O   UNL     1      -8.274   6.199  73.660  1.00  0.00    -0.114 OA 
BRANCH  13  18
HETATM   18  C   UNL     1      -7.171   7.613  71.088  1.00  0.00    -0.062 C  
HETATM   19  O   UNL     1      -6.363   8.529  71.150  1.00  0.00    -0.036 OA 
BRANCH  18  20
HETATM   20  O   UNL     1      -6.949   6.428  70.452  1.00  0.00    -0.060 OA 
BRANCH  20  21
HETATM   21  C   UNL     1      -7.929   6.079  69.458  1.00  0.00    -0.106 C  
HETATM   22  C   UNL     1      -8.214   4.570  69.344  1.00  0.00    -0.071 C  
HETATM   23  C   UNL     1      -8.652   3.951  70.689  1.00  0.00    -0.108 C  
HETATM   24  C   UNL     1      -9.241   4.270  68.227  1.00  0.00    -0.190 C  
HETATM   25  C   UNL     1      -9.974   4.466  71.243  1.00  0.00    -0.245 C  
BRANCH  24  26
HETATM   26  C   UNL     1      -8.805   4.753  66.841  1.00  0.00    -0.110 C  
BRANCH  26  27
HETATM   27  C   UNL     1      -9.971   5.368  66.066  1.00  0.00    -0.118 C  
HETATM   28  C   UNL     1     -10.791   6.289  66.960  1.00  0.00    -0.458 C  
ENDBRANCH  26  27
ENDBRANCH  24  26
ENDBRANCH  20  21
ENDBRANCH  18  20
ENDBRANCH  13  18
ENDBRANCH  12  13
ENDBRANCH  10  12
ENDBRANCH   9  10
ENDBRANCH   7   9
ENDBRANCH   3   4
ENDBRANCH   2   3
TORSDOF 11
ENDMDL
MODEL      209
REMARK 921   NORMALIZED FREE ENERGY PREDICTED BY IDOCK:   -3.55 KCAL/MOL
REMARK 922        TOTAL FREE ENERGY PREDICTED BY IDOCK:   -8.08 KCAL/MOL
REMARK 923 INTER-LIGAND FREE ENERGY PREDICTED BY IDOCK:   -7.09 KCAL/MOL
REMARK 924 INTRA-LIGAND FREE ENERGY PREDICTED BY IDOCK:   -0.99 KCAL/MOL
REMARK 927      BINDING AFFINITY PREDICTED BY RF-SCORE:    0.00 PKD
ROOT
HETATM    1  C   UNL     1     -10.898  19.722  67.310  1.00  0.00    -0.469 C  
HETATM    2  C   UNL     1      -9.630  20.548  67.144  1.00  0.00    -0.570 C  
ENDROOT
BRANCH   2   3
HETATM    3  C   UNL     1      -8.385  19.666  67.232  1.00  0.00    -0.337 C  
BRANCH   3   4
HETATM    4  C   UNL     1      -8.467  18.662  68.389  1.00  0.00    -0.366 C  
HETATM    5  C   UNL     1      -8.858  17.237  67.938  1.00  0.00    -0.235 C  
HETATM    6  C   UNL     1      -7.942  16.641  66.844  1.00  0.00    -0.255 C  
HETATM    7  C   UNL     1      -8.971  16.302  69.161  1.00  0.00    -0.219 C  
HETATM    8  C   UNL     1      -6.517  16.352  67.293  1.00  0.00    -0.222 C  
BRANCH   7   9
HETATM    9  O   UNL     1      -9.308  14.979  68.705  1.00  0.00    -0.188 OA 
BRANCH   9  10
HETATM   10  C   UNL     1     -10.632  14.672  68.704  1.00  0.00    -0.252 C  
HETATM   11  O   UNL     1     -11.466  15.164  69.451  1.00  0.00    -0.269 OA 
BRANCH  10  12
HETATM   12  C   UNL     1     -10.987  13.795  67.533  1.00  0.00    -0.285 C  
BRANCH  12  13
HETATM   13  C   UNL     1      -9.789  13.084  66.909  1.00  0.00    -0.240 C  
HETATM   14  O   UNL     1     -11.404  11.388  65.668  1.00  0.00    -0.160 OA 
HETATM   15  S   UNL     1     -10.243  12.212  65.442  1.00  0.00    -0.274 S  
HETATM   16  O   UNL     1     -10.721  13.489  64.573  1.00  0.00    -0.390 OA 
HETATM   17  O   UNL     1      -9.066  11.729  64.757  1.00  0.00     0.085 OA 
BRANCH  13  18
HETATM   18  C   UNL     1      -9.211  12.092  67.867  1.00  0.00    -0.190 C  
HETATM   19  O   UNL     1      -8.017  11.841  67.959  1.00  0.00    -0.125 OA 
BRANCH  18  20
HETATM   20  O   UNL     1     -10.199  11.383  68.482  1.00  0.00    -0.195 OA 
BRANCH  20  21
HETATM   21  C   UNL     1      -9.743  10.307  69.320  1.00  0.00    -0.225 C  
HETATM   22  C   UNL     1     -10.431   8.955  69.056  1.00  0.00    -0.231 C  
HETATM   23  C   UNL     1     -10.301   8.507  67.583  1.00  0.00    -0.317 C  
HETATM   24  C   UNL     1      -9.922   7.860  70.022  1.00  0.00    -0.191 C  
HETATM   25  C   UNL     1      -8.881   8.219  67.114  1.00  0.00    -0.145 C  
BRANCH  24  26
HETATM   26  C   UNL     1     -10.138   8.194  71.501  1.00  0.00    -0.243 C  
BRANCH  26  27
HETATM   27  C   UNL     1     -11.456   7.619  72.021  1.00  0.00    -0.327 C  
HETATM   28  C   UNL     1     -12.334   8.718  72.607  1.00  0.00    -0.254 C  
ENDBRANCH  26  27
ENDBRANCH  24  26
ENDBRANCH  20  21
ENDBRANCH  18  20
ENDBRANCH  13  18
ENDBRANCH  12  13
ENDBRANCH  10  12
ENDBRANCH   9  10
ENDBRANCH   7   9
ENDBRANCH   3   4
ENDBRANCH   2   3
TORSDOF 11
ENDMDL
MODEL      210
REMARK 921   NORMALIZED FREE ENERGY PREDICTED BY IDOCK:   -3.55 KCAL/MOL
REMARK 922        TOTAL FREE ENERGY PREDICTED BY IDOCK:   -8.08 KCAL/MOL
REMARK 923 INTER-LIGAND FREE ENERGY PREDICTED BY IDOCK:   -7.36 KCAL/MOL
REMARK 924 INTRA-LIGAND FREE ENERGY PREDICTED BY IDOCK:   -0.72 KCAL/MOL
REMARK 927      BINDING AFFINITY PREDICTED BY RF-SCORE:    0.00 PKD
ROOT
HETATM    1  C   UNL     1     -10.652  18.548  65.942  1.00  0.00    -0.336 C  
HETATM    2  C   UNL     1      -9.935  19.872  66.167  1.00  0.00    -0.593 C  
ENDROOT
BRANCH   2   3
HETATM    3  C   UNL     1      -9.527  20.033  67.631  1.00  0.00    -0.498 C  
BRANCH   3   4
HETATM    4  C   UNL     1      -9.562  18.702  68.391  1.00  0.00    -0.396 C  
HETATM    5  C   UNL     1      -8.447  17.722  67.966  1.00  0.00    -0.253 C  
HETATM    6  C   UNL     1      -7.017  18.300  68.070  1.00  0.00    -0.222 C  
HETATM    7  C   UNL     1      -8.582  16.391  68.736  1.00  0.00    -0.250 C  
HETATM    8  C   UNL     1      -6.543  18.579  69.489  1.00  0.00    -0.189 C  
BRANCH   7   9
HETATM    9  O   UNL     1      -7.514  15.512  68.337  1.00  0.00    -0.111 OA 
BRANCH   9  10
HETATM   10  C   UNL     1      -7.893  14.302  67.849  1.00  0.00    -0.152 C  
HETATM   11  O   UNL     1      -7.152  13.511  67.283  1.00  0.00    -0.130 OA 
BRANCH  10  12
HETATM   12  C   UNL     1      -9.300  13.964  68.265  1.00  0.00    -0.209 C  
BRANCH  12  13
HETATM   13  C   UNL     1     -10.005  12.990  67.327  1.00  0.00    -0.232 C  
HETATM   14  O   UNL     1     -12.355  14.051  67.942  1.00  0.00    -0.238 OA 
HETATM   15  S   UNL     1     -11.578  13.607  66.812  1.00  0.00    -0.386 S  
HETATM   16  O   UNL     1     -11.048  14.927  66.043  1.00  0.00    -0.329 OA 
HETATM   17  O   UNL     1     -12.128  12.775  65.766  1.00  0.00    -0.432 OA 
BRANCH  13  18
HETATM   18  C   UNL     1     -10.232  11.678  68.008  1.00  0.00    -0.190 C  
HETATM   19  O   UNL     1     -11.051  11.499  68.900  1.00  0.00    -0.201 OA 
BRANCH  18  20
HETATM   20  O   UNL     1      -9.286  10.770  67.634  1.00  0.00    -0.146 OA 
BRANCH  20  21
HETATM   21  C   UNL     1      -9.081   9.690  68.561  1.00  0.00    -0.131 C  
HETATM   22  C   UNL     1     -10.135   8.569  68.480  1.00  0.00    -0.214 C  
HETATM   23  C   UNL     1     -10.248   7.971  67.060  1.00  0.00    -0.374 C  
HETATM   24  C   UNL     1      -9.875   7.468  69.533  1.00  0.00    -0.169 C  
HETATM   25  C   UNL     1      -9.004   7.252  66.556  1.00  0.00    -0.175 C  
BRANCH  24  26
HETATM   26  C   UNL     1      -9.874   7.982  70.976  1.00  0.00    -0.200 C  
BRANCH  26  27
HETATM   27  C   UNL     1     -10.780   7.139  71.874  1.00  0.00    -0.243 C  
HETATM   28  C   UNL     1     -12.052   7.898  72.228  1.00  0.00    -0.363 C  
ENDBRANCH  26  27
ENDBRANCH  24  26
ENDBRANCH  20  21
ENDBRANCH  18  20
ENDBRANCH  13  18
ENDBRANCH  12  13
ENDBRANCH  10  12
ENDBRANCH   9  10
ENDBRANCH   7   9
ENDBRANCH   3   4
ENDBRANCH   2   3
TORSDOF 11
ENDMDL
MODEL      211
REMARK 921   NORMALIZED FREE ENERGY PREDICTED BY IDOCK:   -3.55 KCAL/MOL
REMARK 922        TOTAL FREE ENERGY PREDICTED BY IDOCK:   -8.07 KCAL/MOL
REMARK 923 INTER-LIGAND FREE ENERGY PREDICTED BY IDOCK:   -6.64 KCAL/MOL
REMARK 924 INTRA-LIGAND FREE ENERGY PREDICTED BY IDOCK:   -1.43 KCAL/MOL
REMARK 927      BINDING AFFINITY PREDICTED BY RF-SCORE:    0.00 PKD
ROOT
HETATM    1  C   UNL     1     -10.724  16.817  69.556  1.00  0.00    -0.273 C  
HETATM    2  C   UNL     1     -11.936  15.909  69.395  1.00  0.00    -0.268 C  
ENDROOT
BRANCH   2   3
HETATM    3  C   UNL     1     -11.726  14.912  68.255  1.00  0.00    -0.342 C  
BRANCH   3   4
HETATM    4  C   UNL     1     -10.606  13.910  68.560  1.00  0.00    -0.260 C  
HETATM    5  C   UNL     1     -10.031  13.230  67.298  1.00  0.00    -0.231 C  
HETATM    6  C   UNL     1      -9.519  14.213  66.220  1.00  0.00    -0.264 C  
HETATM    7  C   UNL     1      -8.951  12.200  67.691  1.00  0.00    -0.178 C  
HETATM    8  C   UNL     1      -8.291  15.017  66.622  1.00  0.00    -0.115 C  
BRANCH   7   9
HETATM    9  O   UNL     1      -8.417  11.605  66.494  1.00  0.00    -0.172 OA 
BRANCH   9  10
HETATM   10  C   UNL     1      -9.125  10.563  65.984  1.00  0.00    -0.168 C  
HETATM   11  O   UNL     1     -10.101  10.668  65.256  1.00  0.00    -0.267 OA 
BRANCH  10  12
HETATM   12  C   UNL     1      -8.439   9.252  66.264  1.00  0.00    -0.133 C  
BRANCH  12  13
HETATM   13  C   UNL     1      -8.629   8.747  67.691  1.00  0.00    -0.128 C  
HETATM   14  O   UNL     1      -6.963   6.737  67.235  1.00  0.00    -0.070 OA 
HETATM   15  S   UNL     1      -7.269   7.749  68.214  1.00  0.00    -0.092 S  
HETATM   16  O   UNL     1      -6.120   8.883  68.111  1.00  0.00    -0.049 OA 
HETATM   17  O   UNL     1      -7.368   7.462  69.627  1.00  0.00    -0.085 OA 
BRANCH  13  18
HETATM   18  C   UNL     1      -9.869   7.916  67.792  1.00  0.00    -0.163 C  
HETATM   19  O   UNL     1     -10.598   7.653  66.846  1.00  0.00    -0.341 OA 
BRANCH  18  20
HETATM   20  O   UNL     1     -10.169   7.654  69.096  1.00  0.00    -0.193 OA 
BRANCH  20  21
HETATM   21  C   UNL     1     -10.631   8.787  69.852  1.00  0.00    -0.224 C  
HETATM   22  C   UNL     1     -11.357   8.427  71.161  1.00  0.00    -0.310 C  
HETATM   23  C   UNL     1     -10.493   7.547  72.091  1.00  0.00    -0.255 C  
HETATM   24  C   UNL     1     -11.862   9.691  71.896  1.00  0.00    -0.280 C  
HETATM   25  C   UNL     1      -9.227   8.208  72.621  1.00  0.00    -0.332 C  
BRANCH  24  26
HETATM   26  C   UNL     1     -12.826  10.544  71.065  1.00  0.00    -0.502 C  
BRANCH  26  27
HETATM   27  C   UNL     1     -12.486  12.032  71.162  1.00  0.00    -0.353 C  
HETATM   28  C   UNL     1     -13.404  12.734  72.153  1.00  0.00    -0.593 C  
ENDBRANCH  26  27
ENDBRANCH  24  26
ENDBRANCH  20  21
ENDBRANCH  18  20
ENDBRANCH  13  18
ENDBRANCH  12  13
ENDBRANCH  10  12
ENDBRANCH   9  10
ENDBRANCH   7   9
ENDBRANCH   3   4
ENDBRANCH   2   3
TORSDOF 11
ENDMDL
MODEL      212
REMARK 921   NORMALIZED FREE ENERGY PREDICTED BY IDOCK:   -3.54 KCAL/MOL
REMARK 922        TOTAL FREE ENERGY PREDICTED BY IDOCK:   -8.06 KCAL/MOL
REMARK 923 INTER-LIGAND FREE ENERGY PREDICTED BY IDOCK:   -7.19 KCAL/MOL
REMARK 924 INTRA-LIGAND FREE ENERGY PREDICTED BY IDOCK:   -0.87 KCAL/MOL
REMARK 927      BINDING AFFINITY PREDICTED BY RF-SCORE:    0.00 PKD
ROOT
HETATM    1  C   UNL     1     -10.809   4.938  71.390  1.00  0.00     0.066 C  
HETATM    2  C   UNL     1      -9.788   5.869  72.028  1.00  0.00    -0.181 C  
ENDROOT
BRANCH   2   3
HETATM    3  C   UNL     1     -10.461   6.836  73.001  1.00  0.00    -0.280 C  
BRANCH   3   4
HETATM    4  C   UNL     1     -10.362   8.293  72.531  1.00  0.00    -0.401 C  
HETATM    5  C   UNL     1     -11.108   8.561  71.205  1.00  0.00    -0.320 C  
HETATM    6  C   UNL     1     -12.600   8.159  71.220  1.00  0.00    -0.243 C  
HETATM    7  C   UNL     1     -10.917  10.031  70.773  1.00  0.00    -0.305 C  
HETATM    8  C   UNL     1     -13.477   8.991  72.144  1.00  0.00    -0.514 C  
BRANCH   7   9
HETATM    9  O   UNL     1     -11.645  10.255  69.552  1.00  0.00    -0.228 OA 
BRANCH   9  10
HETATM   10  C   UNL     1     -10.898  10.608  68.473  1.00  0.00    -0.233 C  
HETATM   11  O   UNL     1     -11.336  10.793  67.347  1.00  0.00    -0.416 OA 
BRANCH  10  12
HETATM   12  C   UNL     1      -9.485  10.939  68.875  1.00  0.00    -0.182 C  
BRANCH  12  13
HETATM   13  C   UNL     1      -8.831  12.010  68.007  1.00  0.00    -0.179 C  
HETATM   14  O   UNL     1      -6.566  11.768  69.363  1.00  0.00    -0.104 OA 
HETATM   15  S   UNL     1      -7.070  11.867  68.017  1.00  0.00    -0.093 S  
HETATM   16  O   UNL     1      -6.972  10.395  67.356  1.00  0.00    -0.082 OA 
HETATM   17  O   UNL     1      -6.487  12.747  67.029  1.00  0.00    -0.180 OA 
BRANCH  13  18
HETATM   18  C   UNL     1      -9.179  13.376  68.508  1.00  0.00    -0.082 C  
HETATM   19  O   UNL     1      -8.427  14.076  69.172  1.00  0.00     0.065 OA 
BRANCH  18  20
HETATM   20  O   UNL     1     -10.495  13.650  68.284  1.00  0.00    -0.235 OA 
BRANCH  20  21
HETATM   21  C   UNL     1     -10.766  14.980  67.806  1.00  0.00    -0.278 C  
HETATM   22  C   UNL     1     -10.178  15.291  66.417  1.00  0.00    -0.287 C  
HETATM   23  C   UNL     1     -10.648  14.287  65.341  1.00  0.00    -0.367 C  
HETATM   24  C   UNL     1     -10.471  16.748  65.991  1.00  0.00    -0.300 C  
HETATM   25  C   UNL     1     -12.142  14.301  65.047  1.00  0.00    -0.428 C  
BRANCH  24  26
HETATM   26  C   UNL     1      -9.918  17.798  66.959  1.00  0.00    -0.322 C  
BRANCH  26  27
HETATM   27  C   UNL     1     -10.218  19.218  66.480  1.00  0.00    -0.522 C  
HETATM   28  C   UNL     1      -9.455  20.243  67.309  1.00  0.00    -0.557 C  
ENDBRANCH  26  27
ENDBRANCH  24  26
ENDBRANCH  20  21
ENDBRANCH  18  20
ENDBRANCH  13  18
ENDBRANCH  12  13
ENDBRANCH  10  12
ENDBRANCH   9  10
ENDBRANCH   7   9
ENDBRANCH   3   4
ENDBRANCH   2   3
TORSDOF 11
ENDMDL
MODEL      213
REMARK 921   NORMALIZED FREE ENERGY PREDICTED BY IDOCK:   -3.54 KCAL/MOL
REMARK 922        TOTAL FREE ENERGY PREDICTED BY IDOCK:   -8.06 KCAL/MOL
REMARK 923 INTER-LIGAND FREE ENERGY PREDICTED BY IDOCK:   -6.48 KCAL/MOL
REMARK 924 INTRA-LIGAND FREE ENERGY PREDICTED BY IDOCK:   -1.58 KCAL/MOL
REMARK 927      BINDING AFFINITY PREDICTED BY RF-SCORE:    0.00 PKD
ROOT
HETATM    1  C   UNL     1      -6.823  10.030  62.659  1.00  0.00    -0.123 C  
HETATM    2  C   UNL     1      -8.258   9.524  62.596  1.00  0.00    -0.150 C  
ENDROOT
BRANCH   2   3
HETATM    3  C   UNL     1      -8.940   9.640  63.959  1.00  0.00    -0.261 C  
BRANCH   3   4
HETATM    4  C   UNL     1      -7.939   9.920  65.086  1.00  0.00    -0.139 C  
HETATM    5  C   UNL     1      -8.221   9.112  66.372  1.00  0.00    -0.114 C  
HETATM    6  C   UNL     1      -8.295   7.582  66.160  1.00  0.00    -0.138 C  
HETATM    7  C   UNL     1      -7.206   9.488  67.473  1.00  0.00    -0.090 C  
HETATM    8  C   UNL     1      -6.978   6.928  65.767  1.00  0.00    -0.064 C  
BRANCH   7   9
HETATM    9  O   UNL     1      -7.479   8.699  68.645  1.00  0.00    -0.092 OA 
BRANCH   9  10
HETATM   10  C   UNL     1      -8.247   9.295  69.595  1.00  0.00    -0.126 C  
HETATM   11  O   UNL     1      -7.839  10.084  70.434  1.00  0.00    -0.216 OA 
BRANCH  10  12
HETATM   12  C   UNL     1      -9.709   9.018  69.363  1.00  0.00    -0.169 C  
BRANCH  12  13
HETATM   13  C   UNL     1     -10.614   9.484  70.500  1.00  0.00    -0.297 C  
HETATM   14  O   UNL     1     -11.907   7.171  70.458  1.00  0.00    -0.299 OA 
HETATM   15  S   UNL     1     -11.318   8.118  71.370  1.00  0.00    -0.269 S  
HETATM   16  O   UNL     1      -9.937   7.474  71.909  1.00  0.00    -0.169 OA 
HETATM   17  O   UNL     1     -11.993   8.575  72.564  1.00  0.00    -0.389 OA 
BRANCH  13  18
HETATM   18  C   UNL     1     -11.740  10.313  69.967  1.00  0.00    -0.254 C  
HETATM   19  O   UNL     1     -12.842  10.392  70.492  1.00  0.00    -0.341 OA 
BRANCH  18  20
HETATM   20  O   UNL     1     -11.431  10.811  68.737  1.00  0.00    -0.269 OA 
BRANCH  20  21
HETATM   21  C   UNL     1     -11.857  12.166  68.506  1.00  0.00    -0.310 C  
HETATM   22  C   UNL     1     -10.733  13.121  68.063  1.00  0.00    -0.248 C  
HETATM   23  C   UNL     1     -10.003  12.623  66.796  1.00  0.00    -0.237 C  
HETATM   24  C   UNL     1     -11.256  14.565  67.878  1.00  0.00    -0.310 C  
HETATM   25  C   UNL     1     -10.857  12.558  65.537  1.00  0.00    -0.312 C  
BRANCH  24  26
HETATM   26  C   UNL     1     -11.883  15.161  69.141  1.00  0.00    -0.340 C  
BRANCH  26  27
HETATM   27  C   UNL     1     -10.966  15.002  70.354  1.00  0.00    -0.222 C  
HETATM   28  C   UNL     1     -11.541  15.717  71.569  1.00  0.00    -0.531 C  
ENDBRANCH  26  27
ENDBRANCH  24  26
ENDBRANCH  20  21
ENDBRANCH  18  20
ENDBRANCH  13  18
ENDBRANCH  12  13
ENDBRANCH  10  12
ENDBRANCH   9  10
ENDBRANCH   7   9
ENDBRANCH   3   4
ENDBRANCH   2   3
TORSDOF 11
ENDMDL
MODEL      214
REMARK 921   NORMALIZED FREE ENERGY PREDICTED BY IDOCK:   -3.53 KCAL/MOL
REMARK 922        TOTAL FREE ENERGY PREDICTED BY IDOCK:   -8.04 KCAL/MOL
REMARK 923 INTER-LIGAND FREE ENERGY PREDICTED BY IDOCK:   -6.80 KCAL/MOL
REMARK 924 INTRA-LIGAND FREE ENERGY PREDICTED BY IDOCK:   -1.24 KCAL/MOL
REMARK 927      BINDING AFFINITY PREDICTED BY RF-SCORE:    0.00 PKD
ROOT
HETATM    1  C   UNL     1     -10.798  19.489  66.907  1.00  0.00    -0.523 C  
HETATM    2  C   UNL     1      -9.466  20.002  67.434  1.00  0.00    -0.508 C  
ENDROOT
BRANCH   2   3
HETATM    3  C   UNL     1      -8.440  18.873  67.526  1.00  0.00    -0.296 C  
BRANCH   3   4
HETATM    4  C   UNL     1      -8.879  17.769  68.496  1.00  0.00    -0.284 C  
HETATM    5  C   UNL     1      -9.117  16.407  67.809  1.00  0.00    -0.199 C  
HETATM    6  C   UNL     1      -7.911  15.883  66.997  1.00  0.00    -0.267 C  
HETATM    7  C   UNL     1      -9.606  15.367  68.840  1.00  0.00    -0.220 C  
HETATM    8  C   UNL     1      -6.695  15.506  67.830  1.00  0.00    -0.172 C  
BRANCH   7   9
HETATM    9  O   UNL     1      -9.791  14.104  68.175  1.00  0.00    -0.216 OA 
BRANCH   9  10
HETATM   10  C   UNL     1     -10.773  13.309  68.675  1.00  0.00    -0.259 C  
HETATM   11  O   UNL     1     -11.171  13.329  69.831  1.00  0.00    -0.069 OA 
BRANCH  10  12
HETATM   12  C   UNL     1     -11.456  12.534  67.579  1.00  0.00    -0.397 C  
BRANCH  12  13
HETATM   13  C   UNL     1     -10.813  12.709  66.206  1.00  0.00    -0.273 C  
HETATM   14  O   UNL     1     -13.205  12.886  65.076  1.00  0.00    -0.765 OA 
HETATM   15  S   UNL     1     -11.907  13.512  65.075  1.00  0.00    -0.374 S  
HETATM   16  O   UNL     1     -12.046  14.912  65.871  1.00  0.00    -0.159 OA 
HETATM   17  O   UNL     1     -11.208  13.856  63.857  1.00  0.00    -0.131 OA 
BRANCH  13  18
HETATM   18  C   UNL     1     -10.453  11.379  65.624  1.00  0.00    -0.262 C  
HETATM   19  O   UNL     1      -9.986  11.224  64.503  1.00  0.00    -0.247 OA 
BRANCH  18  20
HETATM   20  O   UNL     1     -10.883  10.367  66.429  1.00  0.00    -0.119 OA 
BRANCH  20  21
HETATM   21  C   UNL     1      -9.895   9.365  66.726  1.00  0.00    -0.218 C  
HETATM   22  C   UNL     1      -8.838   9.798  67.760  1.00  0.00    -0.129 C  
HETATM   23  C   UNL     1      -9.472  10.259  69.091  1.00  0.00    -0.225 C  
HETATM   24  C   UNL     1      -7.787   8.688  67.994  1.00  0.00    -0.103 C  
HETATM   25  C   UNL     1     -10.224   9.182  69.861  1.00  0.00    -0.222 C  
BRANCH  24  26
HETATM   26  C   UNL     1      -7.034   8.273  66.726  1.00  0.00    -0.070 C  
BRANCH  26  27
HETATM   27  C   UNL     1      -7.302   6.812  66.366  1.00  0.00    -0.073 C  
HETATM   28  C   UNL     1      -6.013   6.001  66.389  1.00  0.00    -0.025 C  
ENDBRANCH  26  27
ENDBRANCH  24  26
ENDBRANCH  20  21
ENDBRANCH  18  20
ENDBRANCH  13  18
ENDBRANCH  12  13
ENDBRANCH  10  12
ENDBRANCH   9  10
ENDBRANCH   7   9
ENDBRANCH   3   4
ENDBRANCH   2   3
TORSDOF 11
ENDMDL
MODEL      215
REMARK 921   NORMALIZED FREE ENERGY PREDICTED BY IDOCK:   -3.52 KCAL/MOL
REMARK 922        TOTAL FREE ENERGY PREDICTED BY IDOCK:   -8.03 KCAL/MOL
REMARK 923 INTER-LIGAND FREE ENERGY PREDICTED BY IDOCK:   -6.66 KCAL/MOL
REMARK 924 INTRA-LIGAND FREE ENERGY PREDICTED BY IDOCK:   -1.38 KCAL/MOL
REMARK 927      BINDING AFFINITY PREDICTED BY RF-SCORE:    0.00 PKD
ROOT
HETATM    1  C   UNL     1     -11.496   2.349  73.620  1.00  0.00    -0.278 C  
HETATM    2  C   UNL     1     -10.439   3.128  74.391  1.00  0.00    -0.237 C  
ENDROOT
BRANCH   2   3
HETATM    3  C   UNL     1      -9.083   3.054  73.690  1.00  0.00    -0.086 C  
BRANCH   3   4
HETATM    4  C   UNL     1      -9.073   3.827  72.365  1.00  0.00    -0.140 C  
HETATM    5  C   UNL     1      -8.424   5.224  72.475  1.00  0.00    -0.118 C  
HETATM    6  C   UNL     1      -6.985   5.216  73.041  1.00  0.00    -0.079 C  
HETATM    7  C   UNL     1      -8.501   5.957  71.119  1.00  0.00    -0.124 C  
HETATM    8  C   UNL     1      -5.950   4.557  72.141  1.00  0.00    -0.016 C  
BRANCH   7   9
HETATM    9  O   UNL     1      -7.864   7.242  71.248  1.00  0.00    -0.094 OA 
BRANCH   9  10
HETATM   10  C   UNL     1      -8.652   8.251  71.703  1.00  0.00    -0.155 C  
HETATM   11  O   UNL     1      -8.407   8.947  72.677  1.00  0.00    -0.392 OA 
BRANCH  10  12
HETATM   12  C   UNL     1      -9.773   8.540  70.740  1.00  0.00    -0.221 C  
BRANCH  12  13
HETATM   13  C   UNL     1     -10.900   9.378  71.339  1.00  0.00    -0.360 C  
HETATM   14  O   UNL     1     -12.628   7.414  70.907  1.00  0.00    -0.257 OA 
HETATM   15  S   UNL     1     -12.227   8.364  71.915  1.00  0.00    -0.367 S  
HETATM   16  O   UNL     1     -11.400   7.551  73.042  1.00  0.00    -0.341 OA 
HETATM   17  O   UNL     1     -13.177   9.155  72.663  1.00  0.00    -0.436 OA 
BRANCH  13  18
HETATM   18  C   UNL     1     -11.456  10.316  70.315  1.00  0.00    -0.317 C  
HETATM   19  O   UNL     1     -12.135  11.299  70.580  1.00  0.00    -0.355 OA 
BRANCH  18  20
HETATM   20  O   UNL     1     -11.263   9.827  69.057  1.00  0.00    -0.155 OA 
BRANCH  20  21
HETATM   21  C   UNL     1     -10.973  10.820  68.058  1.00  0.00    -0.283 C  
HETATM   22  C   UNL     1      -9.499  10.868  67.614  1.00  0.00    -0.170 C  
HETATM   23  C   UNL     1      -8.995   9.502  67.097  1.00  0.00    -0.148 C  
HETATM   24  C   UNL     1      -9.256  11.986  66.574  1.00  0.00    -0.216 C  
HETATM   25  C   UNL     1      -9.674   8.996  65.832  1.00  0.00    -0.306 C  
BRANCH  24  26
HETATM   26  C   UNL     1      -9.622  13.386  67.075  1.00  0.00    -0.244 C  
BRANCH  26  27
HETATM   27  C   UNL     1     -10.542  14.112  66.093  1.00  0.00    -0.293 C  
HETATM   28  C   UNL     1     -11.958  14.208  66.645  1.00  0.00    -0.470 C  
ENDBRANCH  26  27
ENDBRANCH  24  26
ENDBRANCH  20  21
ENDBRANCH  18  20
ENDBRANCH  13  18
ENDBRANCH  12  13
ENDBRANCH  10  12
ENDBRANCH   9  10
ENDBRANCH   7   9
ENDBRANCH   3   4
ENDBRANCH   2   3
TORSDOF 11
ENDMDL
MODEL      216
REMARK 921   NORMALIZED FREE ENERGY PREDICTED BY IDOCK:   -3.51 KCAL/MOL
REMARK 922        TOTAL FREE ENERGY PREDICTED BY IDOCK:   -8.01 KCAL/MOL
REMARK 923 INTER-LIGAND FREE ENERGY PREDICTED BY IDOCK:   -6.86 KCAL/MOL
REMARK 924 INTRA-LIGAND FREE ENERGY PREDICTED BY IDOCK:   -1.15 KCAL/MOL
REMARK 927      BINDING AFFINITY PREDICTED BY RF-SCORE:    0.00 PKD
ROOT
HETATM    1  C   UNL     1      -5.448   6.681  71.167  1.00  0.00    -0.027 C  
HETATM    2  C   UNL     1      -5.967   6.037  72.445  1.00  0.00    -0.037 C  
ENDROOT
BRANCH   2   3
HETATM    3  C   UNL     1      -7.474   6.246  72.593  1.00  0.00    -0.099 C  
BRANCH   3   4
HETATM    4  C   UNL     1      -7.900   7.671  72.218  1.00  0.00    -0.116 C  
HETATM    5  C   UNL     1      -9.088   7.717  71.232  1.00  0.00    -0.153 C  
HETATM    6  C   UNL     1     -10.341   6.947  71.708  1.00  0.00    -0.217 C  
HETATM    7  C   UNL     1      -9.420   9.179  70.864  1.00  0.00    -0.276 C  
HETATM    8  C   UNL     1     -11.034   7.545  72.923  1.00  0.00    -0.434 C  
BRANCH   7   9
HETATM    9  O   UNL     1     -10.547   9.188  69.968  1.00  0.00    -0.210 OA 
BRANCH   9  10
HETATM   10  C   UNL     1     -10.266   8.936  68.662  1.00  0.00    -0.200 C  
HETATM   11  O   UNL     1     -10.558   7.908  68.068  1.00  0.00    -0.200 OA 
BRANCH  10  12
HETATM   12  C   UNL     1      -9.725  10.162  67.976  1.00  0.00    -0.161 C  
BRANCH  12  13
HETATM   13  C   UNL     1     -10.628  10.700  66.869  1.00  0.00    -0.254 C  
HETATM   14  O   UNL     1      -8.508  11.442  65.461  1.00  0.00    -0.015 OA 
HETATM   15  S   UNL     1      -9.780  10.779  65.321  1.00  0.00    -0.278 S  
HETATM   16  O   UNL     1      -9.484   9.198  65.159  1.00  0.00    -0.191 OA 
HETATM   17  O   UNL     1     -10.706  11.085  64.255  1.00  0.00    -0.368 OA 
BRANCH  13  18
HETATM   18  C   UNL     1     -11.098  12.080  67.201  1.00  0.00    -0.290 C  
HETATM   19  O   UNL     1     -12.257  12.457  67.089  1.00  0.00    -0.492 OA 
BRANCH  18  20
HETATM   20  O   UNL     1     -10.041  12.900  67.463  1.00  0.00    -0.210 OA 
BRANCH  20  21
HETATM   21  C   UNL     1     -10.364  14.299  67.551  1.00  0.00    -0.248 C  
HETATM   22  C   UNL     1      -9.719  15.173  66.460  1.00  0.00    -0.290 C  
HETATM   23  C   UNL     1     -10.065  14.687  65.035  1.00  0.00    -0.318 C  
HETATM   24  C   UNL     1     -10.076  16.667  66.645  1.00  0.00    -0.305 C  
HETATM   25  C   UNL     1     -11.538  14.774  64.658  1.00  0.00    -0.401 C  
BRANCH  24  26
HETATM   26  C   UNL     1      -9.644  17.241  67.998  1.00  0.00    -0.274 C  
BRANCH  26  27
HETATM   27  C   UNL     1      -9.937  18.739  68.092  1.00  0.00    -0.412 C  
HETATM   28  C   UNL     1      -8.660  19.526  68.357  1.00  0.00    -0.389 C  
ENDBRANCH  26  27
ENDBRANCH  24  26
ENDBRANCH  20  21
ENDBRANCH  18  20
ENDBRANCH  13  18
ENDBRANCH  12  13
ENDBRANCH  10  12
ENDBRANCH   9  10
ENDBRANCH   7   9
ENDBRANCH   3   4
ENDBRANCH   2   3
TORSDOF 11
ENDMDL
MODEL      217
REMARK 921   NORMALIZED FREE ENERGY PREDICTED BY IDOCK:   -3.49 KCAL/MOL
REMARK 922        TOTAL FREE ENERGY PREDICTED BY IDOCK:   -7.98 KCAL/MOL
REMARK 923 INTER-LIGAND FREE ENERGY PREDICTED BY IDOCK:   -6.61 KCAL/MOL
REMARK 924 INTRA-LIGAND FREE ENERGY PREDICTED BY IDOCK:   -1.38 KCAL/MOL
REMARK 927      BINDING AFFINITY PREDICTED BY RF-SCORE:    0.00 PKD
ROOT
HETATM    1  C   UNL     1      -6.152  20.871  68.398  1.00  0.00    -0.362 C  
HETATM    2  C   UNL     1      -7.316  21.165  67.462  1.00  0.00    -0.174 C  
ENDROOT
BRANCH   2   3
HETATM    3  C   UNL     1      -7.240  20.302  66.203  1.00  0.00    -0.291 C  
BRANCH   3   4
HETATM    4  C   UNL     1      -8.527  19.502  65.970  1.00  0.00    -0.247 C  
HETATM    5  C   UNL     1      -8.426  18.030  66.427  1.00  0.00    -0.262 C  
HETATM    6  C   UNL     1      -8.005  17.848  67.904  1.00  0.00    -0.235 C  
HETATM    7  C   UNL     1      -9.738  17.280  66.111  1.00  0.00    -0.224 C  
HETATM    8  C   UNL     1      -9.026  18.331  68.923  1.00  0.00    -0.148 C  
BRANCH   7   9
HETATM    9  O   UNL     1      -9.621  15.922  66.574  1.00  0.00    -0.236 OA 
BRANCH   9  10
HETATM   10  C   UNL     1     -10.729  15.401  67.163  1.00  0.00    -0.314 C  
HETATM   11  O   UNL     1     -11.302  15.882  68.129  1.00  0.00    -0.345 OA 
BRANCH  10  12
HETATM   12  C   UNL     1     -11.287  14.258  66.356  1.00  0.00    -0.346 C  
BRANCH  12  13
HETATM   13  C   UNL     1     -10.574  12.929  66.592  1.00  0.00    -0.261 C  
HETATM   14  O   UNL     1     -12.189  11.724  64.869  1.00  0.00    -0.210 OA 
HETATM   15  S   UNL     1     -10.798  11.823  65.233  1.00  0.00    -0.281 S  
HETATM   16  O   UNL     1     -10.067  12.720  64.104  1.00  0.00    -0.350 OA 
HETATM   17  O   UNL     1      -9.947  10.664  65.381  1.00  0.00    -0.246 OA 
BRANCH  13  18
HETATM   18  C   UNL     1     -11.108  12.259  67.817  1.00  0.00    -0.255 C  
HETATM   19  O   UNL     1     -12.298  12.167  68.087  1.00  0.00    -0.265 OA 
BRANCH  18  20
HETATM   20  O   UNL     1     -10.095  11.935  68.670  1.00  0.00    -0.216 OA 
BRANCH  20  21
HETATM   21  C   UNL     1     -10.194  10.627  69.261  1.00  0.00    -0.213 C  
HETATM   22  C   UNL     1      -9.338   9.549  68.572  1.00  0.00    -0.138 C  
HETATM   23  C   UNL     1      -7.844   9.936  68.506  1.00  0.00    -0.081 C  
HETATM   24  C   UNL     1      -9.530   8.164  69.233  1.00  0.00    -0.159 C  
HETATM   25  C   UNL     1      -7.145  10.060  69.854  1.00  0.00    -0.130 C  
BRANCH  24  26
HETATM   26  C   UNL     1     -10.979   7.668  69.217  1.00  0.00    -0.030 C  
BRANCH  26  27
HETATM   27  C   UNL     1     -11.507   7.429  70.632  1.00  0.00    -0.307 C  
HETATM   28  C   UNL     1     -10.574   8.039  71.670  1.00  0.00    -0.280 C  
ENDBRANCH  26  27
ENDBRANCH  24  26
ENDBRANCH  20  21
ENDBRANCH  18  20
ENDBRANCH  13  18
ENDBRANCH  12  13
ENDBRANCH  10  12
ENDBRANCH   9  10
ENDBRANCH   7   9
ENDBRANCH   3   4
ENDBRANCH   2   3
TORSDOF 11
ENDMDL
MODEL      218
REMARK 921   NORMALIZED FREE ENERGY PREDICTED BY IDOCK:   -3.48 KCAL/MOL
REMARK 922        TOTAL FREE ENERGY PREDICTED BY IDOCK:   -7.97 KCAL/MOL
REMARK 923 INTER-LIGAND FREE ENERGY PREDICTED BY IDOCK:   -7.12 KCAL/MOL
REMARK 924 INTRA-LIGAND FREE ENERGY PREDICTED BY IDOCK:   -0.84 KCAL/MOL
REMARK 927      BINDING AFFINITY PREDICTED BY RF-SCORE:    0.00 PKD
ROOT
HETATM    1  C   UNL     1     -13.536  15.251  71.216  1.00  0.00    -0.591 C  
HETATM    2  C   UNL     1     -12.104  15.667  70.909  1.00  0.00    -0.452 C  
ENDROOT
BRANCH   2   3
HETATM    3  C   UNL     1     -11.841  15.658  69.404  1.00  0.00    -0.391 C  
BRANCH   3   4
HETATM    4  C   UNL     1     -10.683  14.727  69.023  1.00  0.00    -0.251 C  
HETATM    5  C   UNL     1     -11.147  13.327  68.566  1.00  0.00    -0.294 C  
HETATM    6  C   UNL     1     -12.159  13.340  67.399  1.00  0.00    -0.327 C  
HETATM    7  C   UNL     1      -9.926  12.435  68.254  1.00  0.00    -0.224 C  
HETATM    8  C   UNL     1     -11.599  13.836  66.073  1.00  0.00    -0.361 C  
BRANCH   7   9
HETATM    9  O   UNL     1     -10.392  11.149  67.805  1.00  0.00    -0.178 OA 
BRANCH   9  10
HETATM   10  C   UNL     1      -9.723  10.613  66.750  1.00  0.00    -0.185 C  
HETATM   11  O   UNL     1     -10.234   9.946  65.863  1.00  0.00    -0.261 OA 
BRANCH  10  12
HETATM   12  C   UNL     1      -8.302  11.108  66.699  1.00  0.00    -0.160 C  
BRANCH  12  13
HETATM   13  C   UNL     1      -7.300  10.182  67.382  1.00  0.00    -0.089 C  
HETATM   14  O   UNL     1      -7.491   8.452  65.383  1.00  0.00    -0.081 OA 
HETATM   15  S   UNL     1      -6.518   9.104  66.222  1.00  0.00    -0.066 S  
HETATM   16  O   UNL     1      -5.794  10.240  65.329  1.00  0.00    -0.101 OA 
HETATM   17  O   UNL     1      -5.429   8.391  66.852  1.00  0.00    -0.035 OA 
BRANCH  13  18
HETATM   18  C   UNL     1      -7.985   9.331  68.404  1.00  0.00    -0.102 C  
HETATM   19  O   UNL     1      -8.068   9.615  69.591  1.00  0.00    -0.110 OA 
BRANCH  18  20
HETATM   20  O   UNL     1      -8.335   8.126  67.872  1.00  0.00    -0.126 OA 
BRANCH  20  21
HETATM   21  C   UNL     1      -9.038   7.247  68.768  1.00  0.00    -0.127 C  
HETATM   22  C   UNL     1     -10.560   7.186  68.539  1.00  0.00    -0.219 C  
HETATM   23  C   UNL     1     -10.922   6.787  67.091  1.00  0.00    -0.458 C  
HETATM   24  C   UNL     1     -11.251   6.258  69.565  1.00  0.00    -0.500 C  
HETATM   25  C   UNL     1     -10.498   5.384  66.678  1.00  0.00    -0.356 C  
BRANCH  24  26
HETATM   26  C   UNL     1     -11.030   6.677  71.022  1.00  0.00    -0.305 C  
BRANCH  26  27
HETATM   27  C   UNL     1     -11.916   7.862  71.407  1.00  0.00    -0.331 C  
HETATM   28  C   UNL     1     -11.070   9.070  71.789  1.00  0.00    -0.444 C  
ENDBRANCH  26  27
ENDBRANCH  24  26
ENDBRANCH  20  21
ENDBRANCH  18  20
ENDBRANCH  13  18
ENDBRANCH  12  13
ENDBRANCH  10  12
ENDBRANCH   9  10
ENDBRANCH   7   9
ENDBRANCH   3   4
ENDBRANCH   2   3
TORSDOF 11
ENDMDL
MODEL      219
REMARK 921   NORMALIZED FREE ENERGY PREDICTED BY IDOCK:   -3.47 KCAL/MOL
REMARK 922        TOTAL FREE ENERGY PREDICTED BY IDOCK:   -7.95 KCAL/MOL
REMARK 923 INTER-LIGAND FREE ENERGY PREDICTED BY IDOCK:   -6.45 KCAL/MOL
REMARK 924 INTRA-LIGAND FREE ENERGY PREDICTED BY IDOCK:   -1.50 KCAL/MOL
REMARK 927      BINDING AFFINITY PREDICTED BY RF-SCORE:    0.00 PKD
ROOT
HETATM    1  C   UNL     1      -5.575   5.740  70.902  1.00  0.00    -0.013 C  
HETATM    2  C   UNL     1      -5.999   5.322  72.303  1.00  0.00    -0.026 C  
ENDROOT
BRANCH   2   3
HETATM    3  C   UNL     1      -7.519   5.371  72.453  1.00  0.00    -0.096 C  
BRANCH   3   4
HETATM    4  C   UNL     1      -8.088   6.759  72.138  1.00  0.00    -0.100 C  
HETATM    5  C   UNL     1      -9.118   6.754  70.986  1.00  0.00    -0.156 C  
HETATM    6  C   UNL     1     -10.302   5.782  71.195  1.00  0.00    -0.286 C  
HETATM    7  C   UNL     1      -9.601   8.190  70.694  1.00  0.00    -0.166 C  
HETATM    8  C   UNL     1     -11.240   6.155  72.333  1.00  0.00    -0.329 C  
BRANCH   7   9
HETATM    9  O   UNL     1     -10.578   8.146  69.638  1.00  0.00    -0.227 OA 
BRANCH   9  10
HETATM   10  C   UNL     1     -10.081   8.058  68.376  1.00  0.00    -0.195 C  
HETATM   11  O   UNL     1     -10.338   7.165  67.582  1.00  0.00    -0.180 OA 
BRANCH  10  12
HETATM   12  C   UNL     1      -9.327   9.306  68.000  1.00  0.00    -0.145 C  
BRANCH  12  13
HETATM   13  C   UNL     1     -10.060  10.192  66.996  1.00  0.00    -0.223 C  
HETATM   14  O   UNL     1      -8.042  11.912  66.997  1.00  0.00    -0.161 OA 
HETATM   15  S   UNL     1      -8.939  11.224  66.102  1.00  0.00    -0.198 S  
HETATM   16  O   UNL     1      -8.094  10.049  65.382  1.00  0.00    -0.131 OA 
HETATM   17  O   UNL     1      -9.624  11.893  65.020  1.00  0.00    -0.200 OA 
BRANCH  13  18
HETATM   18  C   UNL     1     -11.036  11.081  67.698  1.00  0.00    -0.300 C  
HETATM   19  O   UNL     1     -12.158  11.334  67.281  1.00  0.00    -0.362 OA 
BRANCH  18  20
HETATM   20  O   UNL     1     -10.444  11.710  68.753  1.00  0.00    -0.209 OA 
BRANCH  20  21
HETATM   21  C   UNL     1     -11.201  12.796  69.315  1.00  0.00    -0.190 C  
HETATM   22  C   UNL     1     -10.522  14.173  69.201  1.00  0.00    -0.143 C  
HETATM   23  C   UNL     1     -10.169  14.536  67.741  1.00  0.00    -0.226 C  
HETATM   24  C   UNL     1     -11.371  15.282  69.864  1.00  0.00    -0.308 C  
HETATM   25  C   UNL     1     -11.359  14.709  66.808  1.00  0.00    -0.360 C  
BRANCH  24  26
HETATM   26  C   UNL     1     -11.651  15.039  71.351  1.00  0.00    -0.397 C  
BRANCH  26  27
HETATM   27  C   UNL     1     -13.148  15.103  71.659  1.00  0.00    -0.471 C  
HETATM   28  C   UNL     1     -13.644  13.777  72.219  1.00  0.00    -0.656 C  
ENDBRANCH  26  27
ENDBRANCH  24  26
ENDBRANCH  20  21
ENDBRANCH  18  20
ENDBRANCH  13  18
ENDBRANCH  12  13
ENDBRANCH  10  12
ENDBRANCH   9  10
ENDBRANCH   7   9
ENDBRANCH   3   4
ENDBRANCH   2   3
TORSDOF 11
ENDMDL
MODEL      220
REMARK 921   NORMALIZED FREE ENERGY PREDICTED BY IDOCK:   -3.46 KCAL/MOL
REMARK 922        TOTAL FREE ENERGY PREDICTED BY IDOCK:   -7.93 KCAL/MOL
REMARK 923 INTER-LIGAND FREE ENERGY PREDICTED BY IDOCK:   -7.31 KCAL/MOL
REMARK 924 INTRA-LIGAND FREE ENERGY PREDICTED BY IDOCK:   -0.62 KCAL/MOL
REMARK 927      BINDING AFFINITY PREDICTED BY RF-SCORE:    0.00 PKD
ROOT
HETATM    1  C   UNL     1      -9.006   3.708  68.418  1.00  0.00    -0.176 C  
HETATM    2  C   UNL     1      -8.617   2.806  69.581  1.00  0.00    -0.116 C  
ENDROOT
BRANCH   2   3
HETATM    3  C   UNL     1      -8.749   3.541  70.914  1.00  0.00    -0.123 C  
BRANCH   3   4
HETATM    4  C   UNL     1      -9.226   4.988  70.733  1.00  0.00    -0.192 C  
HETATM    5  C   UNL     1     -10.575   5.281  71.427  1.00  0.00    -0.247 C  
HETATM    6  C   UNL     1     -10.600   4.949  72.937  1.00  0.00    -0.276 C  
HETATM    7  C   UNL     1     -11.011   6.736  71.154  1.00  0.00    -0.257 C  
HETATM    8  C   UNL     1      -9.707   5.830  73.798  1.00  0.00    -0.163 C  
BRANCH   7   9
HETATM    9  O   UNL     1     -12.254   6.984  71.836  1.00  0.00    -0.314 OA 
BRANCH   9  10
HETATM   10  C   UNL     1     -12.875   8.154  71.529  1.00  0.00    -0.301 C  
HETATM   11  O   UNL     1     -14.059   8.390  71.716  1.00  0.00    -0.396 OA 
BRANCH  10  12
HETATM   12  C   UNL     1     -11.879   9.203  71.110  1.00  0.00    -0.374 C  
BRANCH  12  13
HETATM   13  C   UNL     1     -12.442  10.236  70.138  1.00  0.00    -0.110 C  
HETATM   14  O   UNL     1      -9.999  10.802  69.278  1.00  0.00    -0.214 OA 
HETATM   15  S   UNL     1     -11.332  10.538  68.797  1.00  0.00    -0.223 S  
HETATM   16  O   UNL     1     -11.334   9.045  68.178  1.00  0.00     0.266 OA 
HETATM   17  O   UNL     1     -11.972  11.350  67.787  1.00  0.00    -0.637 OA 
BRANCH  13  18
HETATM   18  C   UNL     1     -12.679  11.538  70.835  1.00  0.00    -0.278 C  
HETATM   19  O   UNL     1     -13.037  11.638  72.001  1.00  0.00    -0.478 OA 
BRANCH  18  20
HETATM   20  O   UNL     1     -12.622  12.575  69.952  1.00  0.00     0.019 OA 
BRANCH  20  21
HETATM   21  C   UNL     1     -11.698  13.620  70.302  1.00  0.00    -0.189 C  
HETATM   22  C   UNL     1     -12.236  15.047  70.088  1.00  0.00    -0.392 C  
HETATM   23  C   UNL     1     -13.558  15.297  70.848  1.00  0.00    -0.402 C  
HETATM   24  C   UNL     1     -11.175  16.114  70.443  1.00  0.00    -0.394 C  
HETATM   25  C   UNL     1     -13.455  15.239  72.366  1.00  0.00    -0.565 C  
BRANCH  24  26
HETATM   26  C   UNL     1      -9.882  15.992  69.630  1.00  0.00    -0.196 C  
BRANCH  26  27
HETATM   27  C   UNL     1     -10.158  16.026  68.126  1.00  0.00    -0.234 C  
HETATM   28  C   UNL     1     -10.546  17.428  67.676  1.00  0.00    -0.350 C  
ENDBRANCH  26  27
ENDBRANCH  24  26
ENDBRANCH  20  21
ENDBRANCH  18  20
ENDBRANCH  13  18
ENDBRANCH  12  13
ENDBRANCH  10  12
ENDBRANCH   9  10
ENDBRANCH   7   9
ENDBRANCH   3   4
ENDBRANCH   2   3
TORSDOF 11
ENDMDL
MODEL      221
REMARK 921   NORMALIZED FREE ENERGY PREDICTED BY IDOCK:   -3.43 KCAL/MOL
REMARK 922        TOTAL FREE ENERGY PREDICTED BY IDOCK:   -7.89 KCAL/MOL
REMARK 923 INTER-LIGAND FREE ENERGY PREDICTED BY IDOCK:   -6.87 KCAL/MOL
REMARK 924 INTRA-LIGAND FREE ENERGY PREDICTED BY IDOCK:   -1.02 KCAL/MOL
REMARK 927      BINDING AFFINITY PREDICTED BY RF-SCORE:    0.00 PKD
ROOT
HETATM    1  C   UNL     1      -9.449   4.861  69.132  1.00  0.00    -0.205 C  
HETATM    2  C   UNL     1     -10.754   5.137  69.864  1.00  0.00    -0.059 C  
ENDROOT
BRANCH   2   3
HETATM    3  C   UNL     1     -11.105   6.624  69.818  1.00  0.00    -0.398 C  
BRANCH   3   4
HETATM    4  C   UNL     1     -10.122   7.425  68.956  1.00  0.00    -0.193 C  
HETATM    5  C   UNL     1     -10.263   8.954  69.124  1.00  0.00    -0.214 C  
HETATM    6  C   UNL     1     -10.138   9.448  70.584  1.00  0.00    -0.356 C  
HETATM    7  C   UNL     1      -9.280   9.687  68.187  1.00  0.00    -0.125 C  
HETATM    8  C   UNL     1      -8.757   9.280  71.200  1.00  0.00    -0.113 C  
BRANCH   7   9
HETATM    9  O   UNL     1      -9.416  11.106  68.389  1.00  0.00    -0.175 OA 
BRANCH   9  10
HETATM   10  C   UNL     1      -8.771  11.896  67.490  1.00  0.00    -0.163 C  
HETATM   11  O   UNL     1      -7.620  12.290  67.602  1.00  0.00    -0.122 OA 
BRANCH  10  12
HETATM   12  C   UNL     1      -9.584  12.067  66.234  1.00  0.00    -0.243 C  
BRANCH  12  13
HETATM   13  C   UNL     1     -10.429  13.338  66.213  1.00  0.00    -0.287 C  
HETATM   14  O   UNL     1     -12.521  11.968  65.334  1.00  0.00    -0.421 OA 
HETATM   15  S   UNL     1     -12.155  12.971  66.301  1.00  0.00    -0.328 S  
HETATM   16  O   UNL     1     -12.149  12.261  67.754  1.00  0.00    -0.478 OA 
HETATM   17  O   UNL     1     -12.918  14.183  66.494  1.00  0.00     0.008 OA 
BRANCH  13  18
HETATM   18  C   UNL     1     -10.191  14.105  64.952  1.00  0.00    -0.341 C  
HETATM   19  O   UNL     1      -9.957  13.588  63.867  1.00  0.00     0.067 OA 
BRANCH  18  20
HETATM   20  O   UNL     1     -10.086  15.439  65.211  1.00  0.00    -0.349 OA 
BRANCH  20  21
HETATM   21  C   UNL     1     -10.260  15.805  66.591  1.00  0.00    -0.285 C  
HETATM   22  C   UNL     1      -9.023  16.453  67.240  1.00  0.00    -0.208 C  
HETATM   23  C   UNL     1      -8.538  17.700  66.468  1.00  0.00    -0.287 C  
HETATM   24  C   UNL     1      -9.269  16.778  68.732  1.00  0.00    -0.260 C  
HETATM   25  C   UNL     1      -9.513  18.869  66.444  1.00  0.00    -0.358 C  
BRANCH  24  26
HETATM   26  C   UNL     1      -9.634  15.554  69.578  1.00  0.00    -0.278 C  
BRANCH  26  27
HETATM   27  C   UNL     1     -10.878  15.810  70.430  1.00  0.00    -0.345 C  
HETATM   28  C   UNL     1     -12.140  15.390  69.688  1.00  0.00    -0.354 C  
ENDBRANCH  26  27
ENDBRANCH  24  26
ENDBRANCH  20  21
ENDBRANCH  18  20
ENDBRANCH  13  18
ENDBRANCH  12  13
ENDBRANCH  10  12
ENDBRANCH   9  10
ENDBRANCH   7   9
ENDBRANCH   3   4
ENDBRANCH   2   3
TORSDOF 11
ENDMDL
MODEL      222
REMARK 921   NORMALIZED FREE ENERGY PREDICTED BY IDOCK:   -3.43 KCAL/MOL
REMARK 922        TOTAL FREE ENERGY PREDICTED BY IDOCK:   -7.88 KCAL/MOL
REMARK 923 INTER-LIGAND FREE ENERGY PREDICTED BY IDOCK:   -6.75 KCAL/MOL
REMARK 924 INTRA-LIGAND FREE ENERGY PREDICTED BY IDOCK:   -1.13 KCAL/MOL
REMARK 927      BINDING AFFINITY PREDICTED BY RF-SCORE:    0.00 PKD
ROOT
HETATM    1  C   UNL     1     -14.392   8.606  71.713  1.00  0.00    -0.476 C  
HETATM    2  C   UNL     1     -13.372   9.734  71.772  1.00  0.00    -0.506 C  
ENDROOT
BRANCH   2   3
HETATM    3  C   UNL     1     -11.947   9.191  71.677  1.00  0.00    -0.437 C  
BRANCH   3   4
HETATM    4  C   UNL     1     -11.919   7.690  71.365  1.00  0.00    -0.336 C  
HETATM    5  C   UNL     1     -10.615   7.230  70.677  1.00  0.00    -0.240 C  
HETATM    6  C   UNL     1      -9.326   7.586  71.451  1.00  0.00    -0.151 C  
HETATM    7  C   UNL     1     -10.687   5.723  70.348  1.00  0.00    -0.302 C  
HETATM    8  C   UNL     1      -9.153   6.853  72.774  1.00  0.00    -0.151 C  
BRANCH   7   9
HETATM    9  O   UNL     1      -9.448   5.322  69.734  1.00  0.00    -0.135 OA 
BRANCH   9  10
HETATM   10  C   UNL     1      -9.558   4.479  68.674  1.00  0.00    -0.157 C  
HETATM   11  O   UNL     1      -9.175   3.319  68.657  1.00  0.00    -0.143 OA 
BRANCH  10  12
HETATM   12  C   UNL     1     -10.395   5.090  67.580  1.00  0.00    -0.131 C  
BRANCH  12  13
HETATM   13  C   UNL     1      -9.578   5.746  66.471  1.00  0.00    -0.156 C  
HETATM   14  O   UNL     1      -8.483   3.411  65.855  1.00  0.00    -0.104 OA 
HETATM   15  S   UNL     1      -9.084   4.572  65.247  1.00  0.00    -0.154 S  
HETATM   16  O   UNL     1     -10.562   4.146  64.751  1.00  0.00    -0.251 OA 
HETATM   17  O   UNL     1      -8.501   5.246  64.109  1.00  0.00    -0.135 OA 
BRANCH  13  18
HETATM   18  C   UNL     1      -8.338   6.368  67.031  1.00  0.00    -0.112 C  
HETATM   19  O   UNL     1      -7.242   5.824  67.044  1.00  0.00    -0.072 OA 
BRANCH  18  20
HETATM   20  O   UNL     1      -8.633   7.528  67.684  1.00  0.00    -0.119 OA 
BRANCH  20  21
HETATM   21  C   UNL     1      -8.728   8.690  66.842  1.00  0.00    -0.124 C  
HETATM   22  C   UNL     1     -10.132   9.321  66.781  1.00  0.00    -0.331 C  
HETATM   23  C   UNL     1     -10.672   9.692  68.179  1.00  0.00    -0.266 C  
HETATM   24  C   UNL     1     -10.167  10.536  65.825  1.00  0.00    -0.310 C  
HETATM   25  C   UNL     1      -9.889  10.773  68.913  1.00  0.00    -0.209 C  
BRANCH  24  26
HETATM   26  C   UNL     1      -9.758  10.202  64.387  1.00  0.00    -0.345 C  
BRANCH  26  27
HETATM   27  C   UNL     1     -10.295  11.235  63.396  1.00  0.00    -0.449 C  
HETATM   28  C   UNL     1     -10.479  12.589  64.068  1.00  0.00    -0.449 C  
ENDBRANCH  26  27
ENDBRANCH  24  26
ENDBRANCH  20  21
ENDBRANCH  18  20
ENDBRANCH  13  18
ENDBRANCH  12  13
ENDBRANCH  10  12
ENDBRANCH   9  10
ENDBRANCH   7   9
ENDBRANCH   3   4
ENDBRANCH   2   3
TORSDOF 11
ENDMDL
MODEL      223
REMARK 921   NORMALIZED FREE ENERGY PREDICTED BY IDOCK:   -3.42 KCAL/MOL
REMARK 922        TOTAL FREE ENERGY PREDICTED BY IDOCK:   -7.87 KCAL/MOL
REMARK 923 INTER-LIGAND FREE ENERGY PREDICTED BY IDOCK:   -7.07 KCAL/MOL
REMARK 924 INTRA-LIGAND FREE ENERGY PREDICTED BY IDOCK:   -0.80 KCAL/MOL
REMARK 927      BINDING AFFINITY PREDICTED BY RF-SCORE:    0.00 PKD
ROOT
HETATM    1  C   UNL     1     -12.675  15.655  71.450  1.00  0.00    -0.535 C  
HETATM    2  C   UNL     1     -12.609  14.357  70.658  1.00  0.00    -0.424 C  
ENDROOT
BRANCH   2   3
HETATM    3  C   UNL     1     -12.177  14.617  69.215  1.00  0.00    -0.247 C  
BRANCH   3   4
HETATM    4  C   UNL     1     -11.699  13.339  68.514  1.00  0.00    -0.388 C  
HETATM    5  C   UNL     1     -11.995  13.323  66.999  1.00  0.00    -0.419 C  
HETATM    6  C   UNL     1     -11.432  14.537  66.226  1.00  0.00    -0.358 C  
HETATM    7  C   UNL     1     -11.534  11.987  66.378  1.00  0.00    -0.353 C  
HETATM    8  C   UNL     1      -9.914  14.602  66.157  1.00  0.00    -0.323 C  
BRANCH   7   9
HETATM    9  O   UNL     1     -11.798  12.015  64.964  1.00  0.00    -0.318 OA 
BRANCH   9  10
HETATM   10  C   UNL     1     -10.760  11.665  64.160  1.00  0.00    -0.362 C  
HETATM   11  O   UNL     1     -10.393  12.289  63.176  1.00  0.00    -0.355 OA 
BRANCH  10  12
HETATM   12  C   UNL     1      -9.983  10.515  64.746  1.00  0.00    -0.412 C  
BRANCH  12  13
HETATM   13  C   UNL     1      -8.542  10.863  65.108  1.00  0.00    -0.078 C  
HETATM   14  O   UNL     1      -7.737   8.455  64.347  1.00  0.00    -0.117 OA 
HETATM   15  S   UNL     1      -7.390   9.849  64.234  1.00  0.00    -0.134 S  
HETATM   16  O   UNL     1      -7.780  10.324  62.738  1.00  0.00    -0.140 OA 
HETATM   17  O   UNL     1      -6.043  10.335  64.428  1.00  0.00    -0.131 OA 
BRANCH  13  18
HETATM   18  C   UNL     1      -8.306  10.662  66.571  1.00  0.00    -0.143 C  
HETATM   19  O   UNL     1      -8.126  11.572  67.369  1.00  0.00    -0.133 OA 
BRANCH  18  20
HETATM   20  O   UNL     1      -8.137   9.340  66.855  1.00  0.00    -0.107 OA 
BRANCH  20  21
HETATM   21  C   UNL     1      -9.300   8.679  67.384  1.00  0.00    -0.144 C  
HETATM   22  C   UNL     1      -9.022   7.768  68.594  1.00  0.00    -0.133 C  
HETATM   23  C   UNL     1      -8.328   8.522  69.751  1.00  0.00    -0.124 C  
HETATM   24  C   UNL     1     -10.308   7.059  69.079  1.00  0.00    -0.208 C  
HETATM   25  C   UNL     1      -9.153   9.630  70.391  1.00  0.00    -0.245 C  
BRANCH  24  26
HETATM   26  C   UNL     1     -10.977   6.193  68.007  1.00  0.00    -0.399 C  
BRANCH  26  27
HETATM   27  C   UNL     1     -10.276   4.843  67.857  1.00  0.00    -0.106 C  
HETATM   28  C   UNL     1      -9.526   4.476  69.130  1.00  0.00    -0.233 C  
ENDBRANCH  26  27
ENDBRANCH  24  26
ENDBRANCH  20  21
ENDBRANCH  18  20
ENDBRANCH  13  18
ENDBRANCH  12  13
ENDBRANCH  10  12
ENDBRANCH   9  10
ENDBRANCH   7   9
ENDBRANCH   3   4
ENDBRANCH   2   3
TORSDOF 11
ENDMDL
MODEL      224
REMARK 921   NORMALIZED FREE ENERGY PREDICTED BY IDOCK:   -3.42 KCAL/MOL
REMARK 922        TOTAL FREE ENERGY PREDICTED BY IDOCK:   -7.87 KCAL/MOL
REMARK 923 INTER-LIGAND FREE ENERGY PREDICTED BY IDOCK:   -5.95 KCAL/MOL
REMARK 924 INTRA-LIGAND FREE ENERGY PREDICTED BY IDOCK:   -1.92 KCAL/MOL
REMARK 927      BINDING AFFINITY PREDICTED BY RF-SCORE:    0.00 PKD
ROOT
HETATM    1  C   UNL     1     -12.205  13.770  66.681  1.00  0.00    -0.454 C  
HETATM    2  C   UNL     1     -10.722  13.469  66.849  1.00  0.00    -0.274 C  
ENDROOT
BRANCH   2   3
HETATM    3  C   UNL     1     -10.300  12.288  65.976  1.00  0.00    -0.273 C  
BRANCH   3   4
HETATM    4  C   UNL     1      -9.683  11.150  66.799  1.00  0.00    -0.220 C  
HETATM    5  C   UNL     1      -9.908   9.753  66.180  1.00  0.00    -0.329 C  
HETATM    6  C   UNL     1      -9.415   9.616  64.721  1.00  0.00    -0.256 C  
HETATM    7  C   UNL     1      -9.307   8.662  67.091  1.00  0.00    -0.151 C  
HETATM    8  C   UNL     1      -7.905   9.700  64.547  1.00  0.00    -0.134 C  
BRANCH   7   9
HETATM    9  O   UNL     1      -9.508   7.377  66.473  1.00  0.00    -0.180 OA 
BRANCH   9  10
HETATM   10  C   UNL     1     -10.444   6.581  67.054  1.00  0.00    -0.295 C  
HETATM   11  O   UNL     1     -11.607   6.898  67.255  1.00  0.00     0.048 OA 
BRANCH  10  12
HETATM   12  C   UNL     1      -9.925   5.180  67.241  1.00  0.00    -0.218 C  
BRANCH  12  13
HETATM   13  C   UNL     1      -8.784   5.073  68.249  1.00  0.00    -0.102 C  
HETATM   14  O   UNL     1      -8.793   2.432  68.023  1.00  0.00    -0.097 OA 
HETATM   15  S   UNL     1      -7.895   3.559  68.063  1.00  0.00    -0.068 S  
HETATM   16  O   UNL     1      -7.363   3.806  66.557  1.00  0.00    -0.070 OA 
HETATM   17  O   UNL     1      -6.700   3.573  68.876  1.00  0.00    -0.043 OA 
BRANCH  13  18
HETATM   18  C   UNL     1      -9.314   5.122  69.646  1.00  0.00    -0.129 C  
HETATM   19  O   UNL     1     -10.384   4.640  69.993  1.00  0.00    -0.205 OA 
BRANCH  18  20
HETATM   20  O   UNL     1      -8.540   5.927  70.428  1.00  0.00    -0.130 OA 
BRANCH  20  21
HETATM   21  C   UNL     1      -8.951   7.304  70.475  1.00  0.00    -0.154 C  
HETATM   22  C   UNL     1      -9.930   7.640  71.616  1.00  0.00    -0.207 C  
HETATM   23  C   UNL     1      -9.370   7.256  73.004  1.00  0.00    -0.204 C  
HETATM   24  C   UNL     1     -10.361   9.124  71.576  1.00  0.00    -0.414 C  
HETATM   25  C   UNL     1      -8.127   8.022  73.438  1.00  0.00    -0.247 C  
BRANCH  24  26
HETATM   26  C   UNL     1     -11.038   9.536  70.265  1.00  0.00    -0.317 C  
BRANCH  26  27
HETATM   27  C   UNL     1     -12.226  10.465  70.513  1.00  0.00    -0.412 C  
HETATM   28  C   UNL     1     -11.917  11.880  70.041  1.00  0.00    -0.409 C  
ENDBRANCH  26  27
ENDBRANCH  24  26
ENDBRANCH  20  21
ENDBRANCH  18  20
ENDBRANCH  13  18
ENDBRANCH  12  13
ENDBRANCH  10  12
ENDBRANCH   9  10
ENDBRANCH   7   9
ENDBRANCH   3   4
ENDBRANCH   2   3
TORSDOF 11
ENDMDL
MODEL      225
REMARK 921   NORMALIZED FREE ENERGY PREDICTED BY IDOCK:   -3.42 KCAL/MOL
REMARK 922        TOTAL FREE ENERGY PREDICTED BY IDOCK:   -7.86 KCAL/MOL
REMARK 923 INTER-LIGAND FREE ENERGY PREDICTED BY IDOCK:   -6.76 KCAL/MOL
REMARK 924 INTRA-LIGAND FREE ENERGY PREDICTED BY IDOCK:   -1.10 KCAL/MOL
REMARK 927      BINDING AFFINITY PREDICTED BY RF-SCORE:    0.00 PKD
ROOT
HETATM    1  C   UNL     1      -9.329   3.736  64.761  1.00  0.00    -0.155 C  
HETATM    2  C   UNL     1      -9.028   3.464  66.228  1.00  0.00    -0.149 C  
ENDROOT
BRANCH   2   3
HETATM    3  C   UNL     1      -9.547   4.597  67.113  1.00  0.00    -0.197 C  
BRANCH   3   4
HETATM    4  C   UNL     1      -8.409   5.442  67.697  1.00  0.00    -0.099 C  
HETATM    5  C   UNL     1      -8.895   6.533  68.677  1.00  0.00    -0.121 C  
HETATM    6  C   UNL     1      -9.753   6.002  69.848  1.00  0.00    -0.200 C  
HETATM    7  C   UNL     1      -7.701   7.373  69.177  1.00  0.00    -0.111 C  
HETATM    8  C   UNL     1      -9.003   5.126  70.841  1.00  0.00    -0.162 C  
BRANCH   7   9
HETATM    9  O   UNL     1      -8.184   8.360  70.107  1.00  0.00    -0.111 OA 
BRANCH   9  10
HETATM   10  C   UNL     1      -7.865   9.650  69.820  1.00  0.00    -0.142 C  
HETATM   11  O   UNL     1      -7.190  10.380  70.530  1.00  0.00    -0.276 OA 
BRANCH  10  12
HETATM   12  C   UNL     1      -8.280  10.013  68.419  1.00  0.00    -0.106 C  
BRANCH  12  13
HETATM   13  C   UNL     1      -9.446  10.995  68.355  1.00  0.00    -0.182 C  
HETATM   14  O   UNL     1     -10.861   9.268  66.926  1.00  0.00    -0.144 OA 
HETATM   15  S   UNL     1     -10.975  10.168  68.047  1.00  0.00    -0.240 S  
HETATM   16  O   UNL     1     -11.005   9.266  69.388  1.00  0.00    -0.212 OA 
HETATM   17  O   UNL     1     -12.084  11.082  68.201  1.00  0.00    -0.610 OA 
BRANCH  13  18
HETATM   18  C   UNL     1      -9.236  11.987  67.255  1.00  0.00    -0.182 C  
HETATM   19  O   UNL     1      -9.153  11.692  66.070  1.00  0.00    -0.214 OA 
BRANCH  18  20
HETATM   20  O   UNL     1      -8.966  13.222  67.764  1.00  0.00    -0.176 OA 
BRANCH  20  21
HETATM   21  C   UNL     1     -10.019  13.795  68.558  1.00  0.00    -0.217 C  
HETATM   22  C   UNL     1     -10.599  15.107  67.999  1.00  0.00    -0.258 C  
HETATM   23  C   UNL     1     -11.116  14.952  66.552  1.00  0.00    -0.341 C  
HETATM   24  C   UNL     1     -11.693  15.685  68.927  1.00  0.00    -0.396 C  
HETATM   25  C   UNL     1     -12.296  14.005  66.380  1.00  0.00    -0.468 C  
BRANCH  24  26
HETATM   26  C   UNL     1     -11.205  15.977  70.349  1.00  0.00    -0.401 C  
BRANCH  26  27
HETATM   27  C   UNL     1     -11.810  15.005  71.362  1.00  0.00    -0.413 C  
HETATM   28  C   UNL     1     -13.323  14.926  71.203  1.00  0.00    -0.480 C  
ENDBRANCH  26  27
ENDBRANCH  24  26
ENDBRANCH  20  21
ENDBRANCH  18  20
ENDBRANCH  13  18
ENDBRANCH  12  13
ENDBRANCH  10  12
ENDBRANCH   9  10
ENDBRANCH   7   9
ENDBRANCH   3   4
ENDBRANCH   2   3
TORSDOF 11
ENDMDL
MODEL      226
REMARK 921   NORMALIZED FREE ENERGY PREDICTED BY IDOCK:   -3.41 KCAL/MOL
REMARK 922        TOTAL FREE ENERGY PREDICTED BY IDOCK:   -7.86 KCAL/MOL
REMARK 923 INTER-LIGAND FREE ENERGY PREDICTED BY IDOCK:   -5.84 KCAL/MOL
REMARK 924 INTRA-LIGAND FREE ENERGY PREDICTED BY IDOCK:   -2.02 KCAL/MOL
REMARK 927      BINDING AFFINITY PREDICTED BY RF-SCORE:    0.00 PKD
ROOT
HETATM    1  C   UNL     1     -12.019  13.829  68.751  1.00  0.00    -0.400 C  
HETATM    2  C   UNL     1     -11.877  12.465  68.090  1.00  0.00    -0.372 C  
ENDROOT
BRANCH   2   3
HETATM    3  C   UNL     1     -10.617  11.748  68.575  1.00  0.00    -0.242 C  
BRANCH   3   4
HETATM    4  C   UNL     1     -10.852  10.249  68.794  1.00  0.00    -0.265 C  
HETATM    5  C   UNL     1     -10.819   9.833  70.281  1.00  0.00    -0.356 C  
HETATM    6  C   UNL     1     -11.804  10.612  71.183  1.00  0.00    -0.339 C  
HETATM    7  C   UNL     1     -11.008   8.307  70.414  1.00  0.00    -0.239 C  
HETATM    8  C   UNL     1     -13.275  10.340  70.905  1.00  0.00    -0.351 C  
BRANCH   7   9
HETATM    9  O   UNL     1     -11.001   7.957  71.811  1.00  0.00    -0.231 OA 
BRANCH   9  10
HETATM   10  C   UNL     1     -11.597   6.778  72.128  1.00  0.00    -0.288 C  
HETATM   11  O   UNL     1     -12.772   6.509  71.926  1.00  0.00    -0.325 OA 
BRANCH  10  12
HETATM   12  C   UNL     1     -10.583   5.762  72.583  1.00  0.00    -0.261 C  
BRANCH  12  13
HETATM   13  C   UNL     1     -10.386   4.606  71.606  1.00  0.00    -0.119 C  
HETATM   14  O   UNL     1      -8.839   3.352  73.356  1.00  0.00    -0.084 OA 
HETATM   15  S   UNL     1      -9.930   3.119  72.443  1.00  0.00    -0.160 S  
HETATM   16  O   UNL     1     -11.272   2.953  73.329  1.00  0.00    -0.164 OA 
HETATM   17  O   UNL     1      -9.957   1.998  71.531  1.00  0.00    -0.152 OA 
BRANCH  13  18
HETATM   18  C   UNL     1      -9.302   4.927  70.627  1.00  0.00    -0.162 C  
HETATM   19  O   UNL     1      -8.375   5.693  70.854  1.00  0.00    -0.119 OA 
BRANCH  18  20
HETATM   20  O   UNL     1      -9.588   4.403  69.401  1.00  0.00    -0.168 OA 
BRANCH  20  21
HETATM   21  C   UNL     1      -9.777   5.372  68.356  1.00  0.00    -0.136 C  
HETATM   22  C   UNL     1      -8.594   5.496  67.378  1.00  0.00    -0.108 C  
HETATM   23  C   UNL     1      -8.228   4.145  66.724  1.00  0.00    -0.101 C  
HETATM   24  C   UNL     1      -8.851   6.585  66.311  1.00  0.00    -0.154 C  
HETATM   25  C   UNL     1      -9.300   3.547  65.823  1.00  0.00    -0.157 C  
BRANCH  24  26
HETATM   26  C   UNL     1      -9.099   7.977  66.897  1.00  0.00    -0.182 C  
BRANCH  26  27
HETATM   27  C   UNL     1      -7.791   8.663  67.291  1.00  0.00    -0.097 C  
HETATM   28  C   UNL     1      -7.776  10.113  66.825  1.00  0.00    -0.105 C  
ENDBRANCH  26  27
ENDBRANCH  24  26
ENDBRANCH  20  21
ENDBRANCH  18  20
ENDBRANCH  13  18
ENDBRANCH  12  13
ENDBRANCH  10  12
ENDBRANCH   9  10
ENDBRANCH   7   9
ENDBRANCH   3   4
ENDBRANCH   2   3
TORSDOF 11
ENDMDL
MODEL      227
REMARK 921   NORMALIZED FREE ENERGY PREDICTED BY IDOCK:   -3.39 KCAL/MOL
REMARK 922        TOTAL FREE ENERGY PREDICTED BY IDOCK:   -7.82 KCAL/MOL
REMARK 923 INTER-LIGAND FREE ENERGY PREDICTED BY IDOCK:   -6.13 KCAL/MOL
REMARK 924 INTRA-LIGAND FREE ENERGY PREDICTED BY IDOCK:   -1.69 KCAL/MOL
REMARK 927      BINDING AFFINITY PREDICTED BY RF-SCORE:    0.00 PKD
ROOT
HETATM    1  C   UNL     1     -11.544  15.508  69.905  1.00  0.00    -0.348 C  
HETATM    2  C   UNL     1     -12.640  14.466  70.076  1.00  0.00    -0.283 C  
ENDROOT
BRANCH   2   3
HETATM    3  C   UNL     1     -12.059  13.127  70.528  1.00  0.00    -0.385 C  
BRANCH   3   4
HETATM    4  C   UNL     1     -11.992  12.109  69.383  1.00  0.00    -0.329 C  
HETATM    5  C   UNL     1     -11.052  10.919  69.674  1.00  0.00    -0.328 C  
HETATM    6  C   UNL     1     -11.373  10.157  70.981  1.00  0.00    -0.385 C  
HETATM    7  C   UNL     1     -10.998   9.970  68.458  1.00  0.00    -0.209 C  
HETATM    8  C   UNL     1     -12.694   9.402  70.971  1.00  0.00    -0.270 C  
BRANCH   7   9
HETATM    9  O   UNL     1     -10.137   8.860  68.772  1.00  0.00    -0.188 OA 
BRANCH   9  10
HETATM   10  C   UNL     1     -10.184   7.811  67.908  1.00  0.00    -0.206 C  
HETATM   11  O   UNL     1     -11.130   7.543  67.182  1.00  0.00    -0.216 OA 
BRANCH  10  12
HETATM   12  C   UNL     1      -8.845   7.130  67.807  1.00  0.00    -0.124 C  
BRANCH  12  13
HETATM   13  C   UNL     1      -8.560   6.157  68.948  1.00  0.00    -0.121 C  
HETATM   14  O   UNL     1      -6.699   4.952  67.494  1.00  0.00    -0.052 OA 
HETATM   15  S   UNL     1      -6.940   5.464  68.820  1.00  0.00    -0.061 S  
HETATM   16  O   UNL     1      -6.106   6.842  68.964  1.00  0.00    -0.024 OA 
HETATM   17  O   UNL     1      -6.615   4.718  70.015  1.00  0.00    -0.034 OA 
BRANCH  13  18
HETATM   18  C   UNL     1      -9.540   5.028  68.931  1.00  0.00    -0.151 C  
HETATM   19  O   UNL     1      -9.721   4.289  67.973  1.00  0.00    -0.157 OA 
BRANCH  18  20
HETATM   20  O   UNL     1     -10.324   5.053  70.046  1.00  0.00    -0.275 OA 
BRANCH  20  21
HETATM   21  C   UNL     1      -9.777   5.785  71.157  1.00  0.00    -0.169 C  
HETATM   22  C   UNL     1     -10.826   6.314  72.152  1.00  0.00    -0.281 C  
HETATM   23  C   UNL     1     -11.725   5.189  72.712  1.00  0.00    -0.181 C  
HETATM   24  C   UNL     1     -10.168   7.126  73.292  1.00  0.00    -0.342 C  
HETATM   25  C   UNL     1     -11.009   4.144  73.557  1.00  0.00    -0.360 C  
BRANCH  24  26
HETATM   26  C   UNL     1      -9.361   8.332  72.804  1.00  0.00    -0.338 C  
BRANCH  26  27
HETATM   27  C   UNL     1      -7.866   8.157  73.077  1.00  0.00    -0.207 C  
HETATM   28  C   UNL     1      -7.043   8.538  71.854  1.00  0.00    -0.106 C  
ENDBRANCH  26  27
ENDBRANCH  24  26
ENDBRANCH  20  21
ENDBRANCH  18  20
ENDBRANCH  13  18
ENDBRANCH  12  13
ENDBRANCH  10  12
ENDBRANCH   9  10
ENDBRANCH   7   9
ENDBRANCH   3   4
ENDBRANCH   2   3
TORSDOF 11
ENDMDL
MODEL      228
REMARK 921   NORMALIZED FREE ENERGY PREDICTED BY IDOCK:   -3.39 KCAL/MOL
REMARK 922        TOTAL FREE ENERGY PREDICTED BY IDOCK:   -7.82 KCAL/MOL
REMARK 923 INTER-LIGAND FREE ENERGY PREDICTED BY IDOCK:   -6.28 KCAL/MOL
REMARK 924 INTRA-LIGAND FREE ENERGY PREDICTED BY IDOCK:   -1.53 KCAL/MOL
REMARK 927      BINDING AFFINITY PREDICTED BY RF-SCORE:    0.00 PKD
ROOT
HETATM    1  C   UNL     1     -11.588  15.567  71.515  1.00  0.00    -0.487 C  
HETATM    2  C   UNL     1     -11.187  16.341  70.266  1.00  0.00    -0.343 C  
ENDROOT
BRANCH   2   3
HETATM    3  C   UNL     1     -11.602  15.592  69.000  1.00  0.00    -0.377 C  
BRANCH   3   4
HETATM    4  C   UNL     1     -10.670  14.414  68.692  1.00  0.00    -0.258 C  
HETATM    5  C   UNL     1     -11.390  13.220  68.027  1.00  0.00    -0.325 C  
HETATM    6  C   UNL     1     -12.158  13.578  66.734  1.00  0.00    -0.425 C  
HETATM    7  C   UNL     1     -10.399  12.058  67.799  1.00  0.00    -0.197 C  
HETATM    8  C   UNL     1     -11.280  13.993  65.563  1.00  0.00    -0.311 C  
BRANCH   7   9
HETATM    9  O   UNL     1     -11.093  10.975  67.153  1.00  0.00    -0.285 OA 
BRANCH   9  10
HETATM   10  C   UNL     1     -10.316   9.941  66.733  1.00  0.00    -0.217 C  
HETATM   11  O   UNL     1     -10.010   9.722  65.571  1.00  0.00    -0.307 OA 
BRANCH  10  12
HETATM   12  C   UNL     1      -9.711   9.207  67.900  1.00  0.00    -0.182 C  
BRANCH  12  13
HETATM   13  C   UNL     1     -10.686   8.281  68.621  1.00  0.00    -0.027 C  
HETATM   14  O   UNL     1      -9.165   8.320  70.792  1.00  0.00    -0.146 OA 
HETATM   15  S   UNL     1     -10.541   8.424  70.375  1.00  0.00    -0.227 S  
HETATM   16  O   UNL     1     -10.966   9.979  70.498  1.00  0.00    -0.290 OA 
HETATM   17  O   UNL     1     -11.610   7.704  71.030  1.00  0.00    -0.277 OA 
BRANCH  13  18
HETATM   18  C   UNL     1     -10.419   6.855  68.257  1.00  0.00    -0.206 C  
HETATM   19  O   UNL     1     -11.254   5.962  68.319  1.00  0.00    -0.189 OA 
BRANCH  18  20
HETATM   20  O   UNL     1      -9.090   6.655  68.031  1.00  0.00    -0.118 OA 
BRANCH  20  21
HETATM   21  C   UNL     1      -8.781   5.554  67.159  1.00  0.00    -0.107 C  
HETATM   22  C   UNL     1      -8.818   5.899  65.658  1.00  0.00    -0.126 C  
HETATM   23  C   UNL     1      -7.881   7.075  65.302  1.00  0.00    -0.121 C  
HETATM   24  C   UNL     1      -8.520   4.660  64.783  1.00  0.00    -0.137 C  
HETATM   25  C   UNL     1      -6.396   6.810  65.514  1.00  0.00    -0.042 C  
BRANCH  24  26
HETATM   26  C   UNL     1      -9.496   3.500  65.004  1.00  0.00    -0.159 C  
BRANCH  26  27
HETATM   27  C   UNL     1     -10.667   3.556  64.022  1.00  0.00    -0.220 C  
HETATM   28  C   UNL     1     -10.178   3.852  62.610  1.00  0.00    -0.180 C  
ENDBRANCH  26  27
ENDBRANCH  24  26
ENDBRANCH  20  21
ENDBRANCH  18  20
ENDBRANCH  13  18
ENDBRANCH  12  13
ENDBRANCH  10  12
ENDBRANCH   9  10
ENDBRANCH   7   9
ENDBRANCH   3   4
ENDBRANCH   2   3
TORSDOF 11
ENDMDL
MODEL      229
REMARK 921   NORMALIZED FREE ENERGY PREDICTED BY IDOCK:   -3.38 KCAL/MOL
REMARK 922        TOTAL FREE ENERGY PREDICTED BY IDOCK:   -7.80 KCAL/MOL
REMARK 923 INTER-LIGAND FREE ENERGY PREDICTED BY IDOCK:   -7.04 KCAL/MOL
REMARK 924 INTRA-LIGAND FREE ENERGY PREDICTED BY IDOCK:   -0.76 KCAL/MOL
REMARK 927      BINDING AFFINITY PREDICTED BY RF-SCORE:    0.00 PKD
ROOT
HETATM    1  C   UNL     1      -6.840   4.448  64.398  1.00  0.00    -0.045 C  
HETATM    2  C   UNL     1      -7.858   3.428  64.889  1.00  0.00    -0.082 C  
ENDROOT
BRANCH   2   3
HETATM    3  C   UNL     1      -8.507   3.885  66.195  1.00  0.00    -0.110 C  
BRANCH   3   4
HETATM    4  C   UNL     1      -8.056   5.293  66.604  1.00  0.00    -0.105 C  
HETATM    5  C   UNL     1      -9.085   6.391  66.258  1.00  0.00    -0.167 C  
HETATM    6  C   UNL     1     -10.497   6.148  66.840  1.00  0.00    -0.340 C  
HETATM    7  C   UNL     1      -8.537   7.780  66.651  1.00  0.00    -0.136 C  
HETATM    8  C   UNL     1     -10.584   6.227  68.357  1.00  0.00    -0.316 C  
BRANCH   7   9
HETATM    9  O   UNL     1      -9.530   8.776  66.342  1.00  0.00    -0.189 OA 
BRANCH   9  10
HETATM   10  C   UNL     1      -9.219  10.051  66.697  1.00  0.00    -0.149 C  
HETATM   11  O   UNL     1      -8.470  10.362  67.611  1.00  0.00    -0.115 OA 
BRANCH  10  12
HETATM   12  C   UNL     1      -9.756  11.039  65.696  1.00  0.00    -0.276 C  
BRANCH  12  13
HETATM   13  C   UNL     1     -11.247  11.326  65.850  1.00  0.00    -0.027 C  
HETATM   14  O   UNL     1     -10.945  13.685  64.678  1.00  0.00    -0.357 OA 
HETATM   15  S   UNL     1     -11.802  12.526  64.678  1.00  0.00    -0.397 S  
HETATM   16  O   UNL     1     -11.473  11.683  63.338  1.00  0.00    -0.393 OA 
HETATM   17  O   UNL     1     -13.244  12.623  64.700  1.00  0.00    -0.828 OA 
BRANCH  13  18
HETATM   18  C   UNL     1     -11.540  11.856  67.217  1.00  0.00    -0.293 C  
HETATM   19  O   UNL     1     -12.133  11.229  68.085  1.00  0.00    -0.635 OA 
BRANCH  18  20
HETATM   20  O   UNL     1     -11.227  13.180  67.299  1.00  0.00    -0.267 OA 
BRANCH  20  21
HETATM   21  C   UNL     1     -10.196  13.503  68.249  1.00  0.00    -0.250 C  
HETATM   22  C   UNL     1      -9.753  14.978  68.234  1.00  0.00    -0.215 C  
HETATM   23  C   UNL     1     -10.933  15.949  68.455  1.00  0.00    -0.331 C  
HETATM   24  C   UNL     1      -8.614  15.238  69.247  1.00  0.00    -0.236 C  
HETATM   25  C   UNL     1     -11.609  15.851  69.816  1.00  0.00    -0.340 C  
BRANCH  24  26
HETATM   26  C   UNL     1      -7.364  14.389  69.003  1.00  0.00    -0.127 C  
BRANCH  26  27
HETATM   27  C   UNL     1      -6.378  14.490  70.168  1.00  0.00    -0.168 C  
HETATM   28  C   UNL     1      -5.832  13.117  70.537  1.00  0.00    -0.150 C  
ENDBRANCH  26  27
ENDBRANCH  24  26
ENDBRANCH  20  21
ENDBRANCH  18  20
ENDBRANCH  13  18
ENDBRANCH  12  13
ENDBRANCH  10  12
ENDBRANCH   9  10
ENDBRANCH   7   9
ENDBRANCH   3   4
ENDBRANCH   2   3
TORSDOF 11
ENDMDL
MODEL      230
REMARK 921   NORMALIZED FREE ENERGY PREDICTED BY IDOCK:   -3.37 KCAL/MOL
REMARK 922        TOTAL FREE ENERGY PREDICTED BY IDOCK:   -7.78 KCAL/MOL
REMARK 923 INTER-LIGAND FREE ENERGY PREDICTED BY IDOCK:   -6.59 KCAL/MOL
REMARK 924 INTRA-LIGAND FREE ENERGY PREDICTED BY IDOCK:   -1.19 KCAL/MOL
REMARK 927      BINDING AFFINITY PREDICTED BY RF-SCORE:    0.00 PKD
ROOT
HETATM    1  C   UNL     1      -6.098  20.174  71.402  1.00  0.00    -0.254 C  
HETATM    2  C   UNL     1      -5.235  18.936  71.202  1.00  0.00    -0.293 C  
ENDROOT
BRANCH   2   3
HETATM    3  C   UNL     1      -5.142  18.565  69.722  1.00  0.00    -0.188 C  
BRANCH   3   4
HETATM    4  C   UNL     1      -5.344  17.063  69.487  1.00  0.00    -0.159 C  
HETATM    5  C   UNL     1      -6.773  16.701  69.026  1.00  0.00    -0.202 C  
HETATM    6  C   UNL     1      -7.246  17.456  67.763  1.00  0.00    -0.177 C  
HETATM    7  C   UNL     1      -6.911  15.172  68.864  1.00  0.00    -0.124 C  
HETATM    8  C   UNL     1      -6.499  17.094  66.487  1.00  0.00    -0.268 C  
BRANCH   7   9
HETATM    9  O   UNL     1      -8.243  14.872  68.408  1.00  0.00    -0.138 OA 
BRANCH   9  10
HETATM   10  C   UNL     1      -8.340  13.896  67.466  1.00  0.00    -0.196 C  
HETATM   11  O   UNL     1      -7.514  13.013  67.283  1.00  0.00    -0.146 OA 
BRANCH  10  12
HETATM   12  C   UNL     1      -9.690  13.915  66.801  1.00  0.00    -0.282 C  
BRANCH  12  13
HETATM   13  C   UNL     1     -10.174  12.542  66.344  1.00  0.00    -0.244 C  
HETATM   14  O   UNL     1     -12.270  13.643  65.152  1.00  0.00    -0.386 OA 
HETATM   15  S   UNL     1     -11.236  12.662  64.938  1.00  0.00    -0.310 S  
HETATM   16  O   UNL     1     -10.163  13.307  63.915  1.00  0.00    -0.322 OA 
HETATM   17  O   UNL     1     -11.507  11.349  64.398  1.00  0.00    -0.225 OA 
BRANCH  13  18
HETATM   18  C   UNL     1     -10.940  11.866  67.437  1.00  0.00    -0.263 C  
HETATM   19  O   UNL     1     -12.145  11.989  67.608  1.00  0.00    -0.547 OA 
BRANCH  18  20
HETATM   20  O   UNL     1     -10.093  11.255  68.313  1.00  0.00    -0.176 OA 
BRANCH  20  21
HETATM   21  C   UNL     1     -10.153   9.818  68.312  1.00  0.00    -0.163 C  
HETATM   22  C   UNL     1      -8.877   9.126  67.798  1.00  0.00    -0.125 C  
HETATM   23  C   UNL     1      -7.618   9.555  68.583  1.00  0.00    -0.080 C  
HETATM   24  C   UNL     1      -9.031   7.587  67.784  1.00  0.00    -0.131 C  
HETATM   25  C   UNL     1      -7.603   9.161  70.054  1.00  0.00    -0.080 C  
BRANCH  24  26
HETATM   26  C   UNL     1     -10.193   7.091  66.918  1.00  0.00    -0.318 C  
BRANCH  26  27
HETATM   27  C   UNL     1     -10.995   5.998  67.625  1.00  0.00    -0.334 C  
HETATM   28  C   UNL     1     -11.097   6.279  69.118  1.00  0.00    -0.457 C  
ENDBRANCH  26  27
ENDBRANCH  24  26
ENDBRANCH  20  21
ENDBRANCH  18  20
ENDBRANCH  13  18
ENDBRANCH  12  13
ENDBRANCH  10  12
ENDBRANCH   9  10
ENDBRANCH   7   9
ENDBRANCH   3   4
ENDBRANCH   2   3
TORSDOF 11
ENDMDL
MODEL      231
REMARK 921   NORMALIZED FREE ENERGY PREDICTED BY IDOCK:   -3.37 KCAL/MOL
REMARK 922        TOTAL FREE ENERGY PREDICTED BY IDOCK:   -7.78 KCAL/MOL
REMARK 923 INTER-LIGAND FREE ENERGY PREDICTED BY IDOCK:   -7.03 KCAL/MOL
REMARK 924 INTRA-LIGAND FREE ENERGY PREDICTED BY IDOCK:   -0.75 KCAL/MOL
REMARK 927      BINDING AFFINITY PREDICTED BY RF-SCORE:    0.00 PKD
ROOT
HETATM    1  C   UNL     1      -9.982   5.103  67.518  1.00  0.00    -0.211 C  
HETATM    2  C   UNL     1      -8.838   5.048  68.521  1.00  0.00    -0.112 C  
ENDROOT
BRANCH   2   3
HETATM    3  C   UNL     1      -8.774   6.331  69.350  1.00  0.00    -0.128 C  
BRANCH   3   4
HETATM    4  C   UNL     1      -9.498   7.498  68.667  1.00  0.00    -0.146 C  
HETATM    5  C   UNL     1      -9.977   8.585  69.655  1.00  0.00    -0.192 C  
HETATM    6  C   UNL     1      -8.862   9.167  70.553  1.00  0.00    -0.263 C  
HETATM    7  C   UNL     1     -10.740   9.694  68.900  1.00  0.00    -0.206 C  
HETATM    8  C   UNL     1      -7.809   9.981  69.816  1.00  0.00    -0.185 C  
BRANCH   7   9
HETATM    9  O   UNL     1     -11.148  10.702  69.843  1.00  0.00    -0.270 OA 
BRANCH   9  10
HETATM   10  C   UNL     1     -11.356  11.943  69.330  1.00  0.00    -0.277 C  
HETATM   11  O   UNL     1     -12.130  12.771  69.788  1.00  0.00    -0.296 OA 
BRANCH  10  12
HETATM   12  C   UNL     1     -10.367  12.252  68.237  1.00  0.00    -0.227 C  
BRANCH  12  13
HETATM   13  C   UNL     1     -10.644  13.563  67.506  1.00  0.00    -0.244 C  
HETATM   14  O   UNL     1     -10.011  12.438  65.190  1.00  0.00    -0.259 OA 
HETATM   15  S   UNL     1     -11.003  13.290  65.798  1.00  0.00    -0.272 S  
HETATM   16  O   UNL     1     -12.340  12.404  66.000  1.00  0.00    -0.627 OA 
HETATM   17  O   UNL     1     -11.467  14.511  65.179  1.00  0.00    -0.341 OA 
BRANCH  13  18
HETATM   18  C   UNL     1      -9.454  14.467  67.582  1.00  0.00    -0.214 C  
HETATM   19  O   UNL     1      -8.649  14.467  68.503  1.00  0.00    -0.168 OA 
BRANCH  18  20
HETATM   20  O   UNL     1      -9.495  15.402  66.591  1.00  0.00    -0.228 OA 
BRANCH  20  21
HETATM   21  C   UNL     1      -8.643  16.542  66.797  1.00  0.00    -0.230 C  
HETATM   22  C   UNL     1      -9.266  17.888  66.381  1.00  0.00    -0.258 C  
HETATM   23  C   UNL     1     -10.611  18.157  67.090  1.00  0.00    -0.362 C  
HETATM   24  C   UNL     1      -8.278  19.059  66.590  1.00  0.00    -0.301 C  
HETATM   25  C   UNL     1     -10.529  18.318  68.602  1.00  0.00    -0.185 C  
BRANCH  24  26
HETATM   26  C   UNL     1      -6.968  18.908  65.810  1.00  0.00    -0.296 C  
BRANCH  26  27
HETATM   27  C   UNL     1      -6.597  20.198  65.078  1.00  0.00    -0.325 C  
HETATM   28  C   UNL     1      -5.157  20.597  65.376  1.00  0.00    -0.211 C  
ENDBRANCH  26  27
ENDBRANCH  24  26
ENDBRANCH  20  21
ENDBRANCH  18  20
ENDBRANCH  13  18
ENDBRANCH  12  13
ENDBRANCH  10  12
ENDBRANCH   9  10
ENDBRANCH   7   9
ENDBRANCH   3   4
ENDBRANCH   2   3
TORSDOF 11
ENDMDL
MODEL      232
REMARK 921   NORMALIZED FREE ENERGY PREDICTED BY IDOCK:   -3.35 KCAL/MOL
REMARK 922        TOTAL FREE ENERGY PREDICTED BY IDOCK:   -7.75 KCAL/MOL
REMARK 923 INTER-LIGAND FREE ENERGY PREDICTED BY IDOCK:   -6.63 KCAL/MOL
REMARK 924 INTRA-LIGAND FREE ENERGY PREDICTED BY IDOCK:   -1.12 KCAL/MOL
REMARK 927      BINDING AFFINITY PREDICTED BY RF-SCORE:    0.00 PKD
ROOT
HETATM    1  C   UNL     1      -9.256   3.480  70.040  1.00  0.00    -0.226 C  
HETATM    2  C   UNL     1      -9.878   3.454  71.429  1.00  0.00    -0.204 C  
ENDROOT
BRANCH   2   3
HETATM    3  C   UNL     1     -10.189   4.868  71.917  1.00  0.00    -0.267 C  
BRANCH   3   4
HETATM    4  C   UNL     1     -10.150   5.896  70.779  1.00  0.00    -0.253 C  
HETATM    5  C   UNL     1      -9.522   7.245  71.192  1.00  0.00    -0.156 C  
HETATM    6  C   UNL     1      -8.100   7.130  71.788  1.00  0.00    -0.101 C  
HETATM    7  C   UNL     1      -9.568   8.239  70.012  1.00  0.00    -0.168 C  
HETATM    8  C   UNL     1      -7.031   6.674  70.805  1.00  0.00    -0.067 C  
BRANCH   7   9
HETATM    9  O   UNL     1      -8.951   9.474  70.419  1.00  0.00    -0.237 OA 
BRANCH   9  10
HETATM   10  C   UNL     1      -8.360  10.195  69.430  1.00  0.00    -0.168 C  
HETATM   11  O   UNL     1      -7.156  10.365  69.310  1.00  0.00    -0.069 OA 
BRANCH  10  12
HETATM   12  C   UNL     1      -9.361  10.598  68.380  1.00  0.00    -0.163 C  
BRANCH  12  13
HETATM   13  C   UNL     1      -9.842  12.041  68.505  1.00  0.00    -0.172 C  
HETATM   14  O   UNL     1     -12.346  11.274  68.097  1.00  0.00    -0.500 OA 
HETATM   15  S   UNL     1     -11.549  12.120  68.949  1.00  0.00    -0.344 S  
HETATM   16  O   UNL     1     -11.431  11.385  70.384  1.00  0.00    -0.247 OA 
HETATM   17  O   UNL     1     -11.924  13.479  69.269  1.00  0.00    -0.315 OA 
BRANCH  13  18
HETATM   18  C   UNL     1      -9.676  12.763  67.206  1.00  0.00    -0.206 C  
HETATM   19  O   UNL     1      -8.913  12.410  66.316  1.00  0.00    -0.158 OA 
BRANCH  18  20
HETATM   20  O   UNL     1     -10.342  13.952  67.226  1.00  0.00    -0.254 OA 
BRANCH  20  21
HETATM   21  C   UNL     1      -9.540  15.103  66.913  1.00  0.00    -0.239 C  
HETATM   22  C   UNL     1      -9.500  16.173  68.019  1.00  0.00    -0.211 C  
HETATM   23  C   UNL     1      -9.019  15.604  69.372  1.00  0.00    -0.265 C  
HETATM   24  C   UNL     1      -8.656  17.398  67.595  1.00  0.00    -0.217 C  
HETATM   25  C   UNL     1      -7.583  15.098  69.391  1.00  0.00    -0.210 C  
BRANCH  24  26
HETATM   26  C   UNL     1      -9.161  18.084  66.321  1.00  0.00    -0.197 C  
BRANCH  26  27
HETATM   27  C   UNL     1     -10.531  18.728  66.534  1.00  0.00    -0.484 C  
HETATM   28  C   UNL     1     -10.407  20.012  67.345  1.00  0.00    -0.533 C  
ENDBRANCH  26  27
ENDBRANCH  24  26
ENDBRANCH  20  21
ENDBRANCH  18  20
ENDBRANCH  13  18
ENDBRANCH  12  13
ENDBRANCH  10  12
ENDBRANCH   9  10
ENDBRANCH   7   9
ENDBRANCH   3   4
ENDBRANCH   2   3
TORSDOF 11
ENDMDL
MODEL      233
REMARK 921   NORMALIZED FREE ENERGY PREDICTED BY IDOCK:   -3.33 KCAL/MOL
REMARK 922        TOTAL FREE ENERGY PREDICTED BY IDOCK:   -7.72 KCAL/MOL
REMARK 923 INTER-LIGAND FREE ENERGY PREDICTED BY IDOCK:   -6.74 KCAL/MOL
REMARK 924 INTRA-LIGAND FREE ENERGY PREDICTED BY IDOCK:   -0.99 KCAL/MOL
REMARK 927      BINDING AFFINITY PREDICTED BY RF-SCORE:    0.00 PKD
ROOT
HETATM    1  C   UNL     1      -6.179   8.225  63.247  1.00  0.00    -0.077 C  
HETATM    2  C   UNL     1      -5.378   8.951  64.320  1.00  0.00    -0.055 C  
ENDROOT
BRANCH   2   3
HETATM    3  C   UNL     1      -6.046  10.272  64.703  1.00  0.00    -0.125 C  
BRANCH   3   4
HETATM    4  C   UNL     1      -7.490  10.073  65.181  1.00  0.00    -0.139 C  
HETATM    5  C   UNL     1      -7.643  10.144  66.716  1.00  0.00    -0.105 C  
HETATM    6  C   UNL     1      -7.097  11.444  67.352  1.00  0.00    -0.114 C  
HETATM    7  C   UNL     1      -9.110   9.882  67.120  1.00  0.00    -0.138 C  
HETATM    8  C   UNL     1      -7.870  12.704  66.990  1.00  0.00    -0.043 C  
BRANCH   7   9
HETATM    9  O   UNL     1      -9.223   9.983  68.551  1.00  0.00    -0.135 OA 
BRANCH   9  10
HETATM   10  C   UNL     1     -10.011   9.052  69.150  1.00  0.00    -0.185 C  
HETATM   11  O   UNL     1     -10.523   8.097  68.583  1.00  0.00    -0.207 OA 
BRANCH  10  12
HETATM   12  C   UNL     1     -10.017   9.225  70.646  1.00  0.00    -0.336 C  
BRANCH  12  13
HETATM   13  C   UNL     1     -11.285   9.879  71.187  1.00  0.00    -0.334 C  
HETATM   14  O   UNL     1     -12.656   7.652  70.750  1.00  0.00    -0.115 OA 
HETATM   15  S   UNL     1     -12.449   8.674  71.746  1.00  0.00    -0.368 S  
HETATM   16  O   UNL     1     -11.543   8.028  72.918  1.00  0.00    -0.397 OA 
HETATM   17  O   UNL     1     -13.541   9.314  72.444  1.00  0.00    -0.458 OA 
BRANCH  13  18
HETATM   18  C   UNL     1     -11.949  10.694  70.123  1.00  0.00    -0.334 C  
HETATM   19  O   UNL     1     -12.683  10.231  69.260  1.00  0.00     0.112 OA 
BRANCH  18  20
HETATM   20  O   UNL     1     -11.482  11.974  70.134  1.00  0.00    -0.192 OA 
BRANCH  20  21
HETATM   21  C   UNL     1     -11.230  12.540  68.835  1.00  0.00    -0.281 C  
HETATM   22  C   UNL     1     -12.033  13.818  68.529  1.00  0.00    -0.402 C  
HETATM   23  C   UNL     1     -11.810  14.921  69.587  1.00  0.00    -0.356 C  
HETATM   24  C   UNL     1     -11.745  14.341  67.103  1.00  0.00    -0.430 C  
HETATM   25  C   UNL     1     -10.391  15.468  69.666  1.00  0.00    -0.286 C  
BRANCH  24  26
HETATM   26  C   UNL     1     -12.065  13.331  65.998  1.00  0.00    -0.491 C  
BRANCH  26  27
HETATM   27  C   UNL     1     -11.177  13.539  64.770  1.00  0.00    -0.363 C  
HETATM   28  C   UNL     1     -10.573  12.220  64.308  1.00  0.00    -0.387 C  
ENDBRANCH  26  27
ENDBRANCH  24  26
ENDBRANCH  20  21
ENDBRANCH  18  20
ENDBRANCH  13  18
ENDBRANCH  12  13
ENDBRANCH  10  12
ENDBRANCH   9  10
ENDBRANCH   7   9
ENDBRANCH   3   4
ENDBRANCH   2   3
TORSDOF 11
ENDMDL
MODEL      234
REMARK 921   NORMALIZED FREE ENERGY PREDICTED BY IDOCK:   -3.32 KCAL/MOL
REMARK 922        TOTAL FREE ENERGY PREDICTED BY IDOCK:   -7.71 KCAL/MOL
REMARK 923 INTER-LIGAND FREE ENERGY PREDICTED BY IDOCK:   -5.95 KCAL/MOL
REMARK 924 INTRA-LIGAND FREE ENERGY PREDICTED BY IDOCK:   -1.76 KCAL/MOL
REMARK 927      BINDING AFFINITY PREDICTED BY RF-SCORE:    0.00 PKD
ROOT
HETATM    1  C   UNL     1      -7.290   4.121  63.334  1.00  0.00    -0.050 C  
HETATM    2  C   UNL     1      -8.085   2.830  63.195  1.00  0.00    -0.070 C  
ENDROOT
BRANCH   2   3
HETATM    3  C   UNL     1      -9.467   2.965  63.833  1.00  0.00    -0.122 C  
BRANCH   3   4
HETATM    4  C   UNL     1      -9.674   4.340  64.479  1.00  0.00    -0.137 C  
HETATM    5  C   UNL     1     -10.106   4.264  65.960  1.00  0.00    -0.217 C  
HETATM    6  C   UNL     1      -9.151   3.446  66.860  1.00  0.00    -0.188 C  
HETATM    7  C   UNL     1     -10.346   5.682  66.521  1.00  0.00    -0.232 C  
HETATM    8  C   UNL     1      -7.775   4.064  67.058  1.00  0.00    -0.085 C  
BRANCH   7   9
HETATM    9  O   UNL     1     -10.718   5.576  67.908  1.00  0.00    -0.190 OA 
BRANCH   9  10
HETATM   10  C   UNL     1     -10.255   6.562  68.721  1.00  0.00    -0.171 C  
HETATM   11  O   UNL     1      -9.108   6.984  68.728  1.00  0.00    -0.135 OA 
BRANCH  10  12
HETATM   12  C   UNL     1     -11.380   7.213  69.481  1.00  0.00    -0.056 C  
BRANCH  12  13
HETATM   13  C   UNL     1     -10.934   7.929  70.752  1.00  0.00    -0.252 C  
HETATM   14  O   UNL     1     -12.831   6.708  72.143  1.00  0.00    -0.215 OA 
HETATM   15  S   UNL     1     -11.433   7.052  72.202  1.00  0.00    -0.282 S  
HETATM   16  O   UNL     1     -10.592   5.698  71.932  1.00  0.00    -0.218 OA 
HETATM   17  O   UNL     1     -10.821   7.630  73.377  1.00  0.00    -0.380 OA 
BRANCH  13  18
HETATM   18  C   UNL     1     -11.533   9.298  70.820  1.00  0.00    -0.292 C  
HETATM   19  O   UNL     1     -12.732   9.518  70.926  1.00  0.00    -0.262 OA 
BRANCH  18  20
HETATM   20  O   UNL     1     -10.592  10.250  70.563  1.00  0.00    -0.251 OA 
BRANCH  20  21
HETATM   21  C   UNL     1     -10.141  10.305  69.199  1.00  0.00    -0.218 C  
HETATM   22  C   UNL     1     -11.169  10.881  68.208  1.00  0.00    -0.347 C  
HETATM   23  C   UNL     1     -11.650  12.292  68.614  1.00  0.00    -0.372 C  
HETATM   24  C   UNL     1     -10.631  10.867  66.759  1.00  0.00    -0.313 C  
HETATM   25  C   UNL     1     -10.578  13.373  68.598  1.00  0.00    -0.257 C  
BRANCH  24  26
HETATM   26  C   UNL     1     -10.252   9.471  66.254  1.00  0.00    -0.290 C  
BRANCH  26  27
HETATM   27  C   UNL     1      -9.031   9.517  65.336  1.00  0.00    -0.244 C  
HETATM   28  C   UNL     1      -7.903   8.656  65.888  1.00  0.00    -0.102 C  
ENDBRANCH  26  27
ENDBRANCH  24  26
ENDBRANCH  20  21
ENDBRANCH  18  20
ENDBRANCH  13  18
ENDBRANCH  12  13
ENDBRANCH  10  12
ENDBRANCH   9  10
ENDBRANCH   7   9
ENDBRANCH   3   4
ENDBRANCH   2   3
TORSDOF 11
ENDMDL
MODEL      235
REMARK 921   NORMALIZED FREE ENERGY PREDICTED BY IDOCK:   -3.30 KCAL/MOL
REMARK 922        TOTAL FREE ENERGY PREDICTED BY IDOCK:   -7.66 KCAL/MOL
REMARK 923 INTER-LIGAND FREE ENERGY PREDICTED BY IDOCK:   -6.54 KCAL/MOL
REMARK 924 INTRA-LIGAND FREE ENERGY PREDICTED BY IDOCK:   -1.13 KCAL/MOL
REMARK 927      BINDING AFFINITY PREDICTED BY RF-SCORE:    0.00 PKD
ROOT
HETATM    1  C   UNL     1      -5.784  20.202  71.512  1.00  0.00    -0.397 C  
HETATM    2  C   UNL     1      -5.413  19.694  70.126  1.00  0.00    -0.261 C  
ENDROOT
BRANCH   2   3
HETATM    3  C   UNL     1      -6.102  20.516  69.038  1.00  0.00    -0.367 C  
BRANCH   3   4
HETATM    4  C   UNL     1      -6.462  19.669  67.811  1.00  0.00    -0.244 C  
HETATM    5  C   UNL     1      -7.740  18.824  68.003  1.00  0.00    -0.286 C  
HETATM    6  C   UNL     1      -8.989  19.640  68.410  1.00  0.00    -0.372 C  
HETATM    7  C   UNL     1      -8.004  17.961  66.750  1.00  0.00    -0.233 C  
HETATM    8  C   UNL     1      -9.506  20.590  67.340  1.00  0.00    -0.551 C  
BRANCH   7   9
HETATM    9  O   UNL     1      -9.215  17.209  66.950  1.00  0.00    -0.228 OA 
BRANCH   9  10
HETATM   10  C   UNL     1      -9.052  15.925  67.365  1.00  0.00    -0.196 C  
HETATM   11  O   UNL     1      -8.073  15.499  67.959  1.00  0.00    -0.132 OA 
BRANCH  10  12
HETATM   12  C   UNL     1     -10.317  15.129  67.178  1.00  0.00    -0.263 C  
BRANCH  12  13
HETATM   13  C   UNL     1     -10.130  13.852  66.365  1.00  0.00    -0.295 C  
HETATM   14  O   UNL     1     -12.625  13.121  66.881  1.00  0.00    -0.198 OA 
HETATM   15  S   UNL     1     -11.675  13.209  65.801  1.00  0.00    -0.396 S  
HETATM   16  O   UNL     1     -12.106  14.466  64.880  1.00  0.00    -0.401 OA 
HETATM   17  O   UNL     1     -11.460  12.131  64.862  1.00  0.00    -0.325 OA 
BRANCH  13  18
HETATM   18  C   UNL     1      -9.472  12.795  67.193  1.00  0.00    -0.223 C  
HETATM   19  O   UNL     1      -9.845  12.468  68.312  1.00  0.00    -0.222 OA 
BRANCH  18  20
HETATM   20  O   UNL     1      -8.307  12.385  66.617  1.00  0.00    -0.113 OA 
BRANCH  20  21
HETATM   21  C   UNL     1      -7.791  11.136  67.110  1.00  0.00    -0.139 C  
HETATM   22  C   UNL     1      -8.199   9.905  66.281  1.00  0.00    -0.114 C  
HETATM   23  C   UNL     1      -7.800  10.037  64.795  1.00  0.00    -0.145 C  
HETATM   24  C   UNL     1      -7.646   8.598  66.897  1.00  0.00    -0.084 C  
HETATM   25  C   UNL     1      -6.302  10.097  64.527  1.00  0.00    -0.129 C  
BRANCH  24  26
HETATM   26  C   UNL     1      -8.110   8.348  68.335  1.00  0.00    -0.123 C  
BRANCH  26  27
HETATM   27  C   UNL     1      -6.928   8.256  69.300  1.00  0.00    -0.058 C  
HETATM   28  C   UNL     1      -5.612   8.486  68.569  1.00  0.00    -0.037 C  
ENDBRANCH  26  27
ENDBRANCH  24  26
ENDBRANCH  20  21
ENDBRANCH  18  20
ENDBRANCH  13  18
ENDBRANCH  12  13
ENDBRANCH  10  12
ENDBRANCH   9  10
ENDBRANCH   7   9
ENDBRANCH   3   4
ENDBRANCH   2   3
TORSDOF 11
ENDMDL
MODEL      236
REMARK 921   NORMALIZED FREE ENERGY PREDICTED BY IDOCK:   -3.28 KCAL/MOL
REMARK 922        TOTAL FREE ENERGY PREDICTED BY IDOCK:   -7.64 KCAL/MOL
REMARK 923 INTER-LIGAND FREE ENERGY PREDICTED BY IDOCK:   -6.25 KCAL/MOL
REMARK 924 INTRA-LIGAND FREE ENERGY PREDICTED BY IDOCK:   -1.40 KCAL/MOL
REMARK 927      BINDING AFFINITY PREDICTED BY RF-SCORE:    0.00 PKD
ROOT
HETATM    1  C   UNL     1     -11.787   6.270  71.974  1.00  0.00    -0.370 C  
HETATM    2  C   UNL     1     -10.638   5.408  71.472  1.00  0.00    -0.285 C  
ENDROOT
BRANCH   2   3
HETATM    3  C   UNL     1      -9.382   6.248  71.242  1.00  0.00    -0.164 C  
BRANCH   3   4
HETATM    4  C   UNL     1      -9.389   6.938  69.873  1.00  0.00    -0.150 C  
HETATM    5  C   UNL     1      -9.510   8.475  69.961  1.00  0.00    -0.165 C  
HETATM    6  C   UNL     1      -8.429   9.150  70.837  1.00  0.00    -0.251 C  
HETATM    7  C   UNL     1      -9.565   9.090  68.546  1.00  0.00    -0.153 C  
HETATM    8  C   UNL     1      -7.015   9.067  70.282  1.00  0.00    -0.052 C  
BRANCH   7   9
HETATM    9  O   UNL     1      -9.648  10.522  68.664  1.00  0.00    -0.156 OA 
BRANCH   9  10
HETATM   10  C   UNL     1     -10.900  11.048  68.606  1.00  0.00    -0.215 C  
HETATM   11  O   UNL     1     -11.482  11.577  69.542  1.00  0.00    -0.268 OA 
BRANCH  10  12
HETATM   12  C   UNL     1     -11.411  11.081  67.190  1.00  0.00    -0.214 C  
BRANCH  12  13
HETATM   13  C   UNL     1     -10.718  12.116  66.308  1.00  0.00    -0.261 C  
HETATM   14  O   UNL     1     -13.003  12.626  65.062  1.00  0.00    -0.812 OA 
HETATM   15  S   UNL     1     -11.868  13.288  65.657  1.00  0.00    -0.405 S  
HETATM   16  O   UNL     1     -12.358  13.911  67.066  1.00  0.00    -0.391 OA 
HETATM   17  O   UNL     1     -11.169  14.372  65.006  1.00  0.00    -0.338 OA 
BRANCH  13  18
HETATM   18  C   UNL     1     -10.044  11.450  65.151  1.00  0.00    -0.271 C  
HETATM   19  O   UNL     1     -10.627  11.054  64.150  1.00  0.00    -0.371 OA 
BRANCH  18  20
HETATM   20  O   UNL     1      -8.740  11.182  65.442  1.00  0.00    -0.158 OA 
BRANCH  20  21
HETATM   21  C   UNL     1      -8.353   9.805  65.284  1.00  0.00    -0.142 C  
HETATM   22  C   UNL     1      -6.995   9.600  64.586  1.00  0.00    -0.112 C  
HETATM   23  C   UNL     1      -5.847  10.344  65.304  1.00  0.00    -0.134 C  
HETATM   24  C   UNL     1      -6.668   8.098  64.412  1.00  0.00    -0.065 C  
HETATM   25  C   UNL     1      -5.538   9.858  66.713  1.00  0.00    -0.046 C  
BRANCH  24  26
HETATM   26  C   UNL     1      -7.714   7.329  63.600  1.00  0.00    -0.120 C  
BRANCH  26  27
HETATM   27  C   UNL     1      -7.285   5.882  63.357  1.00  0.00    -0.054 C  
HETATM   28  C   UNL     1      -8.488   4.948  63.381  1.00  0.00    -0.124 C  
ENDBRANCH  26  27
ENDBRANCH  24  26
ENDBRANCH  20  21
ENDBRANCH  18  20
ENDBRANCH  13  18
ENDBRANCH  12  13
ENDBRANCH  10  12
ENDBRANCH   9  10
ENDBRANCH   7   9
ENDBRANCH   3   4
ENDBRANCH   2   3
TORSDOF 11
ENDMDL
MODEL      237
REMARK 921   NORMALIZED FREE ENERGY PREDICTED BY IDOCK:   -3.27 KCAL/MOL
REMARK 922        TOTAL FREE ENERGY PREDICTED BY IDOCK:   -7.62 KCAL/MOL
REMARK 923 INTER-LIGAND FREE ENERGY PREDICTED BY IDOCK:   -7.43 KCAL/MOL
REMARK 924 INTRA-LIGAND FREE ENERGY PREDICTED BY IDOCK:   -0.20 KCAL/MOL
REMARK 927      BINDING AFFINITY PREDICTED BY RF-SCORE:    0.00 PKD
ROOT
HETATM    1  C   UNL     1      -8.810   4.790  65.723  1.00  0.00    -0.131 C  
HETATM    2  C   UNL     1      -9.254   3.356  65.974  1.00  0.00    -0.164 C  
ENDROOT
BRANCH   2   3
HETATM    3  C   UNL     1      -9.076   2.976  67.444  1.00  0.00    -0.208 C  
BRANCH   3   4
HETATM    4  C   UNL     1      -8.926   4.207  68.346  1.00  0.00    -0.157 C  
HETATM    5  C   UNL     1      -9.842   4.171  69.589  1.00  0.00    -0.208 C  
HETATM    6  C   UNL     1      -9.680   2.908  70.465  1.00  0.00    -0.084 C  
HETATM    7  C   UNL     1      -9.674   5.465  70.415  1.00  0.00    -0.192 C  
HETATM    8  C   UNL     1      -8.337   2.789  71.171  1.00  0.00    -0.086 C  
BRANCH   7   9
HETATM    9  O   UNL     1     -10.518   5.387  71.578  1.00  0.00    -0.217 OA 
BRANCH   9  10
HETATM   10  C   UNL     1     -11.410   6.401  71.731  1.00  0.00    -0.289 C  
HETATM   11  O   UNL     1     -12.603   6.257  71.953  1.00  0.00    -0.251 OA 
BRANCH  10  12
HETATM   12  C   UNL     1     -10.713   7.734  71.791  1.00  0.00    -0.265 C  
BRANCH  12  13
HETATM   13  C   UNL     1     -11.148   8.708  70.700  1.00  0.00    -0.249 C  
HETATM   14  O   UNL     1      -8.770   9.880  70.757  1.00  0.00    -0.072 OA 
HETATM   15  S   UNL     1      -9.760   9.378  69.837  1.00  0.00    -0.228 S  
HETATM   16  O   UNL     1      -9.195   7.990  69.231  1.00  0.00    -0.151 OA 
HETATM   17  O   UNL     1     -10.198  10.125  68.680  1.00  0.00    -0.162 OA 
BRANCH  13  18
HETATM   18  C   UNL     1     -11.910   9.851  71.291  1.00  0.00    -0.395 C  
HETATM   19  O   UNL     1     -12.802   9.726  72.120  1.00  0.00    -0.391 OA 
BRANCH  18  20
HETATM   20  O   UNL     1     -11.607  11.016  70.652  1.00  0.00    -0.312 OA 
BRANCH  20  21
HETATM   21  C   UNL     1     -12.608  12.043  70.754  1.00  0.00    -0.222 C  
HETATM   22  C   UNL     1     -12.075  13.476  70.565  1.00  0.00    -0.409 C  
HETATM   23  C   UNL     1     -11.335  13.655  69.221  1.00  0.00    -0.323 C  
HETATM   24  C   UNL     1     -13.198  14.526  70.732  1.00  0.00    -0.313 C  
HETATM   25  C   UNL     1     -12.197  13.488  67.977  1.00  0.00    -0.158 C  
BRANCH  24  26
HETATM   26  C   UNL     1     -13.889  14.478  72.097  1.00  0.00    -0.574 C  
BRANCH  26  27
HETATM   27  C   UNL     1     -12.896  14.701  73.239  1.00  0.00    -0.580 C  
HETATM   28  C   UNL     1     -12.321  16.110  73.191  1.00  0.00    -0.641 C  
ENDBRANCH  26  27
ENDBRANCH  24  26
ENDBRANCH  20  21
ENDBRANCH  18  20
ENDBRANCH  13  18
ENDBRANCH  12  13
ENDBRANCH  10  12
ENDBRANCH   9  10
ENDBRANCH   7   9
ENDBRANCH   3   4
ENDBRANCH   2   3
TORSDOF 11
ENDMDL
MODEL      238
REMARK 921   NORMALIZED FREE ENERGY PREDICTED BY IDOCK:   -3.26 KCAL/MOL
REMARK 922        TOTAL FREE ENERGY PREDICTED BY IDOCK:   -7.61 KCAL/MOL
REMARK 923 INTER-LIGAND FREE ENERGY PREDICTED BY IDOCK:   -6.59 KCAL/MOL
REMARK 924 INTRA-LIGAND FREE ENERGY PREDICTED BY IDOCK:   -1.02 KCAL/MOL
REMARK 927      BINDING AFFINITY PREDICTED BY RF-SCORE:    0.00 PKD
ROOT
HETATM    1  C   UNL     1     -12.251  15.598  70.190  1.00  0.00    -0.387 C  
HETATM    2  C   UNL     1     -10.949  16.046  69.540  1.00  0.00    -0.326 C  
ENDROOT
BRANCH   2   3
HETATM    3  C   UNL     1     -10.758  15.379  68.178  1.00  0.00    -0.271 C  
BRANCH   3   4
HETATM    4  C   UNL     1      -9.965  14.071  68.280  1.00  0.00    -0.236 C  
HETATM    5  C   UNL     1     -10.851  12.834  68.544  1.00  0.00    -0.279 C  
HETATM    6  C   UNL     1     -11.986  12.631  67.514  1.00  0.00    -0.314 C  
HETATM    7  C   UNL     1      -9.977  11.570  68.686  1.00  0.00    -0.199 C  
HETATM    8  C   UNL     1     -11.518  12.278  66.110  1.00  0.00    -0.429 C  
BRANCH   7   9
HETATM    9  O   UNL     1     -10.833  10.434  68.903  1.00  0.00    -0.209 OA 
BRANCH   9  10
HETATM   10  C   UNL     1     -10.442   9.275  68.310  1.00  0.00    -0.215 C  
HETATM   11  O   UNL     1     -10.689   8.960  67.155  1.00  0.00    -0.265 OA 
BRANCH  10  12
HETATM   12  C   UNL     1      -9.490   8.509  69.190  1.00  0.00    -0.154 C  
BRANCH  12  13
HETATM   13  C   UNL     1      -9.938   8.410  70.646  1.00  0.00    -0.185 C  
HETATM   14  O   UNL     1      -7.774   7.003  71.248  1.00  0.00    -0.089 OA 
HETATM   15  S   UNL     1      -8.575   8.102  71.725  1.00  0.00    -0.161 S  
HETATM   16  O   UNL     1      -7.754   9.462  71.426  1.00  0.00    -0.334 OA 
HETATM   17  O   UNL     1      -8.987   8.224  73.105  1.00  0.00    -0.248 OA 
BRANCH  13  18
HETATM   18  C   UNL     1     -10.916   7.291  70.817  1.00  0.00    -0.251 C  
HETATM   19  O   UNL     1     -12.107   7.449  71.051  1.00  0.00    -0.312 OA 
BRANCH  18  20
HETATM   20  O   UNL     1     -10.273   6.091  70.863  1.00  0.00    -0.193 OA 
BRANCH  20  21
HETATM   21  C   UNL     1     -10.461   5.257  69.706  1.00  0.00    -0.269 C  
HETATM   22  C   UNL     1      -9.206   4.480  69.267  1.00  0.00    -0.195 C  
HETATM   23  C   UNL     1      -8.629   3.606  70.403  1.00  0.00    -0.109 C  
HETATM   24  C   UNL     1      -9.473   3.642  67.995  1.00  0.00    -0.218 C  
HETATM   25  C   UNL     1      -9.532   2.475  70.877  1.00  0.00    -0.217 C  
BRANCH  24  26
HETATM   26  C   UNL     1      -9.932   4.473  66.794  1.00  0.00    -0.240 C  
BRANCH  26  27
HETATM   27  C   UNL     1      -9.193   4.071  65.516  1.00  0.00    -0.150 C  
HETATM   28  C   UNL     1      -8.624   5.295  64.811  1.00  0.00    -0.136 C  
ENDBRANCH  26  27
ENDBRANCH  24  26
ENDBRANCH  20  21
ENDBRANCH  18  20
ENDBRANCH  13  18
ENDBRANCH  12  13
ENDBRANCH  10  12
ENDBRANCH   9  10
ENDBRANCH   7   9
ENDBRANCH   3   4
ENDBRANCH   2   3
TORSDOF 11
ENDMDL
MODEL      239
REMARK 921   NORMALIZED FREE ENERGY PREDICTED BY IDOCK:   -3.26 KCAL/MOL
REMARK 922        TOTAL FREE ENERGY PREDICTED BY IDOCK:   -7.60 KCAL/MOL
REMARK 923 INTER-LIGAND FREE ENERGY PREDICTED BY IDOCK:   -6.61 KCAL/MOL
REMARK 924 INTRA-LIGAND FREE ENERGY PREDICTED BY IDOCK:   -0.99 KCAL/MOL
REMARK 927      BINDING AFFINITY PREDICTED BY RF-SCORE:    0.00 PKD
ROOT
HETATM    1  C   UNL     1     -10.603   5.336  70.294  1.00  0.00    -0.288 C  
HETATM    2  C   UNL     1     -10.522   5.307  71.814  1.00  0.00    -0.278 C  
ENDROOT
BRANCH   2   3
HETATM    3  C   UNL     1     -11.677   6.089  72.440  1.00  0.00    -0.322 C  
BRANCH   3   4
HETATM    4  C   UNL     1     -11.404   7.597  72.475  1.00  0.00    -0.409 C  
HETATM    5  C   UNL     1     -12.091   8.372  71.329  1.00  0.00    -0.315 C  
HETATM    6  C   UNL     1     -13.620   8.160  71.243  1.00  0.00    -0.178 C  
HETATM    7  C   UNL     1     -11.725   9.870  71.401  1.00  0.00    -0.371 C  
HETATM    8  C   UNL     1     -14.410   8.735  72.409  1.00  0.00    -0.419 C  
BRANCH   7   9
HETATM    9  O   UNL     1     -12.402  10.566  70.339  1.00  0.00    -0.301 OA 
BRANCH   9  10
HETATM   10  C   UNL     1     -11.763  11.660  69.846  1.00  0.00    -0.337 C  
HETATM   11  O   UNL     1     -12.058  12.818  70.101  1.00  0.00    -0.342 OA 
BRANCH  10  12
HETATM   12  C   UNL     1     -10.514  11.269  69.101  1.00  0.00    -0.191 C  
BRANCH  12  13
HETATM   13  C   UNL     1     -10.777  10.708  67.706  1.00  0.00    -0.257 C  
HETATM   14  O   UNL     1      -8.527   9.312  67.810  1.00  0.00    -0.116 OA 
HETATM   15  S   UNL     1      -9.915   9.189  67.444  1.00  0.00    -0.223 S  
HETATM   16  O   UNL     1     -10.645   8.327  68.601  1.00  0.00    -0.192 OA 
HETATM   17  O   UNL     1     -10.344   8.573  66.209  1.00  0.00    -0.185 OA 
BRANCH  13  18
HETATM   18  C   UNL     1     -10.324  11.675  66.659  1.00  0.00    -0.222 C  
HETATM   19  O   UNL     1     -11.044  12.116  65.773  1.00  0.00    -0.296 OA 
BRANCH  18  20
HETATM   20  O   UNL     1      -8.974  11.850  66.715  1.00  0.00    -0.186 OA 
BRANCH  20  21
HETATM   21  C   UNL     1      -8.527  13.202  66.513  1.00  0.00     0.265 C  
HETATM   22  C   UNL     1      -8.132  13.944  67.803  1.00  0.00    -0.174 C  
HETATM   23  C   UNL     1      -7.047  13.193  68.605  1.00  0.00    -0.103 C  
HETATM   24  C   UNL     1      -7.706  15.402  67.512  1.00  0.00    -0.205 C  
HETATM   25  C   UNL     1      -5.699  13.061  67.909  1.00  0.00    -0.126 C  
BRANCH  24  26
HETATM   26  C   UNL     1      -8.792  16.236  66.825  1.00  0.00    -0.263 C  
BRANCH  26  27
HETATM   27  C   UNL     1      -9.185  17.450  67.668  1.00  0.00    -0.234 C  
HETATM   28  C   UNL     1     -10.639  17.834  67.423  1.00  0.00    -0.341 C  
ENDBRANCH  26  27
ENDBRANCH  24  26
ENDBRANCH  20  21
ENDBRANCH  18  20
ENDBRANCH  13  18
ENDBRANCH  12  13
ENDBRANCH  10  12
ENDBRANCH   9  10
ENDBRANCH   7   9
ENDBRANCH   3   4
ENDBRANCH   2   3
TORSDOF 11
ENDMDL
MODEL      240
REMARK 921   NORMALIZED FREE ENERGY PREDICTED BY IDOCK:   -3.25 KCAL/MOL
REMARK 922        TOTAL FREE ENERGY PREDICTED BY IDOCK:   -7.59 KCAL/MOL
REMARK 923 INTER-LIGAND FREE ENERGY PREDICTED BY IDOCK:   -6.67 KCAL/MOL
REMARK 924 INTRA-LIGAND FREE ENERGY PREDICTED BY IDOCK:   -0.92 KCAL/MOL
REMARK 927      BINDING AFFINITY PREDICTED BY RF-SCORE:    0.00 PKD
ROOT
HETATM    1  C   UNL     1      -8.771   4.708  72.831  1.00  0.00    -0.116 C  
HETATM    2  C   UNL     1      -7.721   3.788  72.223  1.00  0.00    -0.067 C  
ENDROOT
BRANCH   2   3
HETATM    3  C   UNL     1      -8.137   3.331  70.825  1.00  0.00    -0.063 C  
BRANCH   3   4
HETATM    4  C   UNL     1      -9.357   4.100  70.303  1.00  0.00    -0.232 C  
HETATM    5  C   UNL     1      -9.039   5.006  69.093  1.00  0.00    -0.137 C  
HETATM    6  C   UNL     1      -8.385   4.271  67.900  1.00  0.00    -0.096 C  
HETATM    7  C   UNL     1     -10.301   5.784  68.662  1.00  0.00    -0.221 C  
HETATM    8  C   UNL     1      -9.287   3.265  67.198  1.00  0.00    -0.212 C  
BRANCH   7   9
HETATM    9  O   UNL     1      -9.979   6.595  67.517  1.00  0.00    -0.123 OA 
BRANCH   9  10
HETATM   10  C   UNL     1     -10.384   7.891  67.577  1.00  0.00    -0.259 C  
HETATM   11  O   UNL     1     -10.474   8.643  66.617  1.00  0.00    -0.277 OA 
BRANCH  10  12
HETATM   12  C   UNL     1     -10.903   8.235  68.948  1.00  0.00     0.002 C  
BRANCH  12  13
HETATM   13  C   UNL     1      -9.816   8.666  69.930  1.00  0.00    -0.183 C  
HETATM   14  O   UNL     1     -11.656   9.366  71.705  1.00  0.00    -0.362 OA 
HETATM   15  S   UNL     1     -10.406   8.658  71.594  1.00  0.00    -0.324 S  
HETATM   16  O   UNL     1     -10.736   7.078  71.697  1.00  0.00    -0.219 OA 
HETATM   17  O   UNL     1      -9.312   8.859  72.517  1.00  0.00    -0.308 OA 
BRANCH  13  18
HETATM   18  C   UNL     1      -9.349  10.052  69.619  1.00  0.00    -0.220 C  
HETATM   19  O   UNL     1      -8.174  10.393  69.597  1.00  0.00    -0.155 OA 
BRANCH  18  20
HETATM   20  O   UNL     1     -10.404  10.912  69.548  1.00  0.00    -0.198 OA 
BRANCH  20  21
HETATM   21  C   UNL     1     -10.451  11.720  68.360  1.00  0.00    -0.215 C  
HETATM   22  C   UNL     1     -11.754  12.521  68.182  1.00  0.00    -0.400 C  
HETATM   23  C   UNL     1     -12.057  13.429  69.394  1.00  0.00    -0.321 C  
HETATM   24  C   UNL     1     -11.749  13.329  66.863  1.00  0.00    -0.437 C  
HETATM   25  C   UNL     1     -11.049  14.545  69.638  1.00  0.00    -0.264 C  
BRANCH  24  26
HETATM   26  C   UNL     1     -11.576  12.464  65.611  1.00  0.00    -0.441 C  
BRANCH  26  27
HETATM   27  C   UNL     1     -10.329  12.862  64.821  1.00  0.00    -0.345 C  
HETATM   28  C   UNL     1     -10.288  12.148  63.476  1.00  0.00    -0.473 C  
ENDBRANCH  26  27
ENDBRANCH  24  26
ENDBRANCH  20  21
ENDBRANCH  18  20
ENDBRANCH  13  18
ENDBRANCH  12  13
ENDBRANCH  10  12
ENDBRANCH   9  10
ENDBRANCH   7   9
ENDBRANCH   3   4
ENDBRANCH   2   3
TORSDOF 11
ENDMDL
MODEL      241
REMARK 921   NORMALIZED FREE ENERGY PREDICTED BY IDOCK:   -3.24 KCAL/MOL
REMARK 922        TOTAL FREE ENERGY PREDICTED BY IDOCK:   -7.58 KCAL/MOL
REMARK 923 INTER-LIGAND FREE ENERGY PREDICTED BY IDOCK:   -6.66 KCAL/MOL
REMARK 924 INTRA-LIGAND FREE ENERGY PREDICTED BY IDOCK:   -0.92 KCAL/MOL
REMARK 927      BINDING AFFINITY PREDICTED BY RF-SCORE:    0.00 PKD
ROOT
HETATM    1  C   UNL     1     -10.365  19.942  68.258  1.00  0.00    -0.526 C  
HETATM    2  C   UNL     1      -9.344  20.097  67.139  1.00  0.00    -0.521 C  
ENDROOT
BRANCH   2   3
HETATM    3  C   UNL     1      -8.262  19.021  67.231  1.00  0.00    -0.294 C  
BRANCH   3   4
HETATM    4  C   UNL     1      -8.503  18.056  68.398  1.00  0.00    -0.306 C  
HETATM    5  C   UNL     1      -8.830  16.616  67.946  1.00  0.00    -0.205 C  
HETATM    6  C   UNL     1      -7.774  15.987  67.009  1.00  0.00    -0.264 C  
HETATM    7  C   UNL     1      -9.111  15.721  69.172  1.00  0.00    -0.262 C  
HETATM    8  C   UNL     1      -6.424  15.718  67.658  1.00  0.00    -0.190 C  
BRANCH   7   9
HETATM    9  O   UNL     1      -9.384  14.383  68.718  1.00  0.00    -0.200 OA 
BRANCH   9  10
HETATM   10  C   UNL     1     -10.664  13.955  68.874  1.00  0.00    -0.236 C  
HETATM   11  O   UNL     1     -11.431  14.338  69.745  1.00  0.00    -0.259 OA 
BRANCH  10  12
HETATM   12  C   UNL     1     -11.093  13.093  67.716  1.00  0.00    -0.287 C  
BRANCH  12  13
HETATM   13  C   UNL     1     -10.559  13.561  66.365  1.00  0.00    -0.283 C  
HETATM   14  O   UNL     1     -13.031  13.913  65.475  1.00  0.00    -0.673 OA 
HETATM   15  S   UNL     1     -11.741  14.556  65.509  1.00  0.00    -0.321 S  
HETATM   16  O   UNL     1     -11.829  15.758  66.586  1.00  0.00     0.368 OA 
HETATM   17  O   UNL     1     -11.140  15.159  64.341  1.00  0.00    -0.267 OA 
BRANCH  13  18
HETATM   18  C   UNL     1     -10.234  12.389  65.495  1.00  0.00    -0.274 C  
HETATM   19  O   UNL     1      -9.953  12.472  64.307  1.00  0.00    -0.277 OA 
BRANCH  18  20
HETATM   20  O   UNL     1     -10.474  11.219  66.153  1.00  0.00    -0.241 OA 
BRANCH  20  21
HETATM   21  C   UNL     1      -9.319  10.618  66.763  1.00  0.00    -0.157 C  
HETATM   22  C   UNL     1      -8.966   9.220  66.221  1.00  0.00    -0.193 C  
HETATM   23  C   UNL     1      -8.759   9.217  64.690  1.00  0.00    -0.223 C  
HETATM   24  C   UNL     1      -7.743   8.620  66.953  1.00  0.00    -0.091 C  
HETATM   25  C   UNL     1      -7.579  10.040  64.192  1.00  0.00    -0.140 C  
BRANCH  24  26
HETATM   26  C   UNL     1      -7.936   8.482  68.466  1.00  0.00    -0.117 C  
BRANCH  26  27
HETATM   27  C   UNL     1      -7.662   7.055  68.940  1.00  0.00    -0.110 C  
HETATM   28  C   UNL     1      -7.933   6.917  70.433  1.00  0.00    -0.114 C  
ENDBRANCH  26  27
ENDBRANCH  24  26
ENDBRANCH  20  21
ENDBRANCH  18  20
ENDBRANCH  13  18
ENDBRANCH  12  13
ENDBRANCH  10  12
ENDBRANCH   9  10
ENDBRANCH   7   9
ENDBRANCH   3   4
ENDBRANCH   2   3
TORSDOF 11
ENDMDL
MODEL      242
REMARK 921   NORMALIZED FREE ENERGY PREDICTED BY IDOCK:   -3.24 KCAL/MOL
REMARK 922        TOTAL FREE ENERGY PREDICTED BY IDOCK:   -7.56 KCAL/MOL
REMARK 923 INTER-LIGAND FREE ENERGY PREDICTED BY IDOCK:   -6.63 KCAL/MOL
REMARK 924 INTRA-LIGAND FREE ENERGY PREDICTED BY IDOCK:   -0.94 KCAL/MOL
REMARK 927      BINDING AFFINITY PREDICTED BY RF-SCORE:    0.00 PKD
ROOT
HETATM    1  C   UNL     1     -10.249  12.080  63.318  1.00  0.00    -0.398 C  
HETATM    2  C   UNL     1     -11.554  12.083  64.102  1.00  0.00    -0.460 C  
ENDROOT
BRANCH   2   3
HETATM    3  C   UNL     1     -11.835  13.463  64.695  1.00  0.00    -0.430 C  
BRANCH   3   4
HETATM    4  C   UNL     1     -12.368  13.379  66.131  1.00  0.00    -0.440 C  
HETATM    5  C   UNL     1     -11.441  12.593  67.084  1.00  0.00    -0.406 C  
HETATM    6  C   UNL     1      -9.988  13.118  67.138  1.00  0.00    -0.236 C  
HETATM    7  C   UNL     1     -12.070  12.507  68.491  1.00  0.00    -0.080 C  
HETATM    8  C   UNL     1      -9.832  14.499  67.759  1.00  0.00    -0.220 C  
BRANCH   7   9
HETATM    9  O   UNL     1     -11.171  11.794  69.360  1.00  0.00    -0.253 OA 
BRANCH   9  10
HETATM   10  C   UNL     1     -11.692  11.388  70.548  1.00  0.00    -0.198 C  
HETATM   11  O   UNL     1     -12.640  11.914  71.114  1.00  0.00    -0.372 OA 
BRANCH  10  12
HETATM   12  C   UNL     1     -11.086  10.083  70.990  1.00  0.00    -0.341 C  
BRANCH  12  13
HETATM   13  C   UNL     1     -11.876   8.854  70.549  1.00  0.00    -0.047 C  
HETATM   14  O   UNL     1     -11.503   7.726  72.919  1.00  0.00    -0.378 OA 
HETATM   15  S   UNL     1     -12.525   7.969  71.932  1.00  0.00    -0.335 S  
HETATM   16  O   UNL     1     -13.481   9.140  72.505  1.00  0.00    -0.464 OA 
HETATM   17  O   UNL     1     -13.439   6.941  71.488  1.00  0.00    -0.316 OA 
BRANCH  13  18
HETATM   18  C   UNL     1     -10.999   7.917  69.779  1.00  0.00    -0.148 C  
HETATM   19  O   UNL     1     -11.053   6.698  69.867  1.00  0.00    -0.289 OA 
BRANCH  18  20
HETATM   20  O   UNL     1     -10.023   8.602  69.120  1.00  0.00    -0.182 OA 
BRANCH  20  21
HETATM   21  C   UNL     1      -8.686   8.356  69.589  1.00  0.00    -0.133 C  
HETATM   22  C   UNL     1      -7.591   8.534  68.520  1.00  0.00    -0.095 C  
HETATM   23  C   UNL     1      -7.624   9.936  67.873  1.00  0.00    -0.090 C  
HETATM   24  C   UNL     1      -6.189   8.210  69.085  1.00  0.00    -0.039 C  
HETATM   25  C   UNL     1      -7.319  11.094  68.813  1.00  0.00    -0.114 C  
BRANCH  24  26
HETATM   26  C   UNL     1      -6.057   6.786  69.632  1.00  0.00    -0.033 C  
BRANCH  26  27
HETATM   27  C   UNL     1      -6.019   6.771  71.161  1.00  0.00    -0.036 C  
HETATM   28  C   UNL     1      -7.361   6.332  71.733  1.00  0.00    -0.093 C  
ENDBRANCH  26  27
ENDBRANCH  24  26
ENDBRANCH  20  21
ENDBRANCH  18  20
ENDBRANCH  13  18
ENDBRANCH  12  13
ENDBRANCH  10  12
ENDBRANCH   9  10
ENDBRANCH   7   9
ENDBRANCH   3   4
ENDBRANCH   2   3
TORSDOF 11
ENDMDL
MODEL      243
REMARK 921   NORMALIZED FREE ENERGY PREDICTED BY IDOCK:   -3.23 KCAL/MOL
REMARK 922        TOTAL FREE ENERGY PREDICTED BY IDOCK:   -7.56 KCAL/MOL
REMARK 923 INTER-LIGAND FREE ENERGY PREDICTED BY IDOCK:   -6.89 KCAL/MOL
REMARK 924 INTRA-LIGAND FREE ENERGY PREDICTED BY IDOCK:   -0.67 KCAL/MOL
REMARK 927      BINDING AFFINITY PREDICTED BY RF-SCORE:    0.00 PKD
ROOT
HETATM    1  C   UNL     1     -12.124  14.485  64.331  1.00  0.00    -0.492 C  
HETATM    2  C   UNL     1     -11.142  15.630  64.532  1.00  0.00    -0.303 C  
ENDROOT
BRANCH   2   3
HETATM    3  C   UNL     1     -10.472  15.544  65.903  1.00  0.00    -0.356 C  
BRANCH   3   4
HETATM    4  C   UNL     1     -11.441  15.066  66.992  1.00  0.00    -0.288 C  
HETATM    5  C   UNL     1     -10.885  13.900  67.839  1.00  0.00    -0.256 C  
HETATM    6  C   UNL     1      -9.518  14.189  68.502  1.00  0.00    -0.202 C  
HETATM    7  C   UNL     1     -11.935  13.442  68.873  1.00  0.00    -0.324 C  
HETATM    8  C   UNL     1      -9.546  15.260  69.583  1.00  0.00    -0.188 C  
BRANCH   7   9
HETATM    9  O   UNL     1     -11.377  12.377  69.663  1.00  0.00    -0.217 OA 
BRANCH   9  10
HETATM   10  C   UNL     1     -11.441  11.136  69.113  1.00  0.00    -0.298 C  
HETATM   11  O   UNL     1     -12.026  10.858  68.076  1.00  0.00    -0.586 OA 
BRANCH  10  12
HETATM   12  C   UNL     1     -10.534  10.174  69.834  1.00  0.00    -0.322 C  
BRANCH  12  13
HETATM   13  C   UNL     1     -11.161   8.806  70.089  1.00  0.00    -0.202 C  
HETATM   14  O   UNL     1     -10.224   8.806  72.569  1.00  0.00    -0.251 OA 
HETATM   15  S   UNL     1     -11.418   8.521  71.813  1.00  0.00    -0.336 S  
HETATM   16  O   UNL     1     -12.456   9.731  72.077  1.00  0.00    -0.367 OA 
HETATM   17  O   UNL     1     -12.200   7.322  72.014  1.00  0.00    -0.299 OA 
BRANCH  13  18
HETATM   18  C   UNL     1     -10.271   7.718  69.575  1.00  0.00    -0.207 C  
HETATM   19  O   UNL     1      -9.161   7.907  69.097  1.00  0.00    -0.145 OA 
BRANCH  18  20
HETATM   20  O   UNL     1     -10.935   6.528  69.543  1.00  0.00    -0.274 OA 
BRANCH  20  21
HETATM   21  C   UNL     1     -10.105   5.377  69.306  1.00  0.00    -0.231 C  
HETATM   22  C   UNL     1      -8.924   5.229  70.282  1.00  0.00    -0.153 C  
HETATM   23  C   UNL     1      -9.380   5.199  71.758  1.00  0.00    -0.179 C  
HETATM   24  C   UNL     1      -8.054   3.998  69.938  1.00  0.00    -0.060 C  
HETATM   25  C   UNL     1     -10.243   4.006  72.147  1.00  0.00    -0.210 C  
BRANCH  24  26
HETATM   26  C   UNL     1      -7.469   4.031  68.523  1.00  0.00    -0.059 C  
BRANCH  26  27
HETATM   27  C   UNL     1      -6.289   4.998  68.425  1.00  0.00    -0.036 C  
HETATM   28  C   UNL     1      -6.636   6.190  67.542  1.00  0.00    -0.056 C  
ENDBRANCH  26  27
ENDBRANCH  24  26
ENDBRANCH  20  21
ENDBRANCH  18  20
ENDBRANCH  13  18
ENDBRANCH  12  13
ENDBRANCH  10  12
ENDBRANCH   9  10
ENDBRANCH   7   9
ENDBRANCH   3   4
ENDBRANCH   2   3
TORSDOF 11
ENDMDL
MODEL      244
REMARK 921   NORMALIZED FREE ENERGY PREDICTED BY IDOCK:   -3.23 KCAL/MOL
REMARK 922        TOTAL FREE ENERGY PREDICTED BY IDOCK:   -7.55 KCAL/MOL
REMARK 923 INTER-LIGAND FREE ENERGY PREDICTED BY IDOCK:   -6.07 KCAL/MOL
REMARK 924 INTRA-LIGAND FREE ENERGY PREDICTED BY IDOCK:   -1.48 KCAL/MOL
REMARK 927      BINDING AFFINITY PREDICTED BY RF-SCORE:    0.00 PKD
ROOT
HETATM    1  C   UNL     1      -9.694   4.819  67.459  1.00  0.00    -0.209 C  
HETATM    2  C   UNL     1      -8.452   4.584  68.307  1.00  0.00    -0.099 C  
ENDROOT
BRANCH   2   3
HETATM    3  C   UNL     1      -8.216   5.749  69.269  1.00  0.00    -0.105 C  
BRANCH   3   4
HETATM    4  C   UNL     1      -8.882   7.043  68.786  1.00  0.00    -0.129 C  
HETATM    5  C   UNL     1      -7.884   8.201  68.567  1.00  0.00    -0.118 C  
HETATM    6  C   UNL     1      -6.721   7.868  67.605  1.00  0.00    -0.068 C  
HETATM    7  C   UNL     1      -8.635   9.479  68.135  1.00  0.00    -0.120 C  
HETATM    8  C   UNL     1      -7.133   7.650  66.157  1.00  0.00    -0.070 C  
BRANCH   7   9
HETATM    9  O   UNL     1      -7.676  10.529  67.913  1.00  0.00    -0.091 OA 
BRANCH   9  10
HETATM   10  C   UNL     1      -8.147  11.637  67.282  1.00  0.00    -0.160 C  
HETATM   11  O   UNL     1      -7.460  12.573  66.901  1.00  0.00    -0.054 OA 
BRANCH  10  12
HETATM   12  C   UNL     1      -9.602  11.482  66.926  1.00  0.00    -0.203 C  
BRANCH  12  13
HETATM   13  C   UNL     1     -10.503  12.557  67.529  1.00  0.00    -0.219 C  
HETATM   14  O   UNL     1     -12.334  10.733  68.121  1.00  0.00    -0.174 OA 
HETATM   15  S   UNL     1     -11.649  11.870  68.684  1.00  0.00    -0.332 S  
HETATM   16  O   UNL     1     -10.570  11.306  69.747  1.00  0.00    -0.060 OA 
HETATM   17  O   UNL     1     -12.341  12.922  69.394  1.00  0.00    -0.145 OA 
BRANCH  13  18
HETATM   18  C   UNL     1     -11.291  13.242  66.458  1.00  0.00    -0.322 C  
HETATM   19  O   UNL     1     -11.419  12.813  65.319  1.00  0.00    -0.304 OA 
BRANCH  18  20
HETATM   20  O   UNL     1     -11.685  14.481  66.866  1.00  0.00    -0.372 OA 
BRANCH  20  21
HETATM   21  C   UNL     1     -10.656  15.486  66.835  1.00  0.00    -0.307 C  
HETATM   22  C   UNL     1     -10.832  16.611  67.871  1.00  0.00    -0.321 C  
HETATM   23  C   UNL     1     -10.935  16.071  69.315  1.00  0.00    -0.306 C  
HETATM   24  C   UNL     1      -9.716  17.675  67.749  1.00  0.00    -0.280 C  
HETATM   25  C   UNL     1      -9.687  15.372  69.838  1.00  0.00    -0.154 C  
BRANCH  24  26
HETATM   26  C   UNL     1      -9.643  18.338  66.370  1.00  0.00    -0.307 C  
BRANCH  26  27
HETATM   27  C   UNL     1      -9.785  19.857  66.468  1.00  0.00    -0.547 C  
HETATM   28  C   UNL     1     -10.016  20.289  67.910  1.00  0.00    -0.492 C  
ENDBRANCH  26  27
ENDBRANCH  24  26
ENDBRANCH  20  21
ENDBRANCH  18  20
ENDBRANCH  13  18
ENDBRANCH  12  13
ENDBRANCH  10  12
ENDBRANCH   9  10
ENDBRANCH   7   9
ENDBRANCH   3   4
ENDBRANCH   2   3
TORSDOF 11
ENDMDL
MODEL      245
REMARK 921   NORMALIZED FREE ENERGY PREDICTED BY IDOCK:   -3.22 KCAL/MOL
REMARK 922        TOTAL FREE ENERGY PREDICTED BY IDOCK:   -7.53 KCAL/MOL
REMARK 923 INTER-LIGAND FREE ENERGY PREDICTED BY IDOCK:   -6.22 KCAL/MOL
REMARK 924 INTRA-LIGAND FREE ENERGY PREDICTED BY IDOCK:   -1.31 KCAL/MOL
REMARK 927      BINDING AFFINITY PREDICTED BY RF-SCORE:    0.00 PKD
ROOT
HETATM    1  C   UNL     1     -12.203  14.399  70.074  1.00  0.00    -0.408 C  
HETATM    2  C   UNL     1     -11.092  15.216  69.428  1.00  0.00    -0.283 C  
ENDROOT
BRANCH   2   3
HETATM    3  C   UNL     1     -11.147  15.107  67.904  1.00  0.00    -0.322 C  
BRANCH   3   4
HETATM    4  C   UNL     1     -10.160  14.066  67.362  1.00  0.00    -0.244 C  
HETATM    5  C   UNL     1     -10.829  12.727  66.981  1.00  0.00    -0.282 C  
HETATM    6  C   UNL     1     -11.994  12.859  65.973  1.00  0.00    -0.505 C  
HETATM    7  C   UNL     1      -9.766  11.717  66.496  1.00  0.00    -0.206 C  
HETATM    8  C   UNL     1     -11.583  13.311  64.579  1.00  0.00    -0.407 C  
BRANCH   7   9
HETATM    9  O   UNL     1     -10.424  10.492  66.124  1.00  0.00    -0.230 OA 
BRANCH   9  10
HETATM   10  C   UNL     1      -9.757   9.347  66.425  1.00  0.00    -0.250 C  
HETATM   11  O   UNL     1      -9.355   8.533  65.606  1.00  0.00    -0.162 OA 
BRANCH  10  12
HETATM   12  C   UNL     1      -9.394   9.298  67.885  1.00  0.00    -0.143 C  
BRANCH  12  13
HETATM   13  C   UNL     1     -10.484   8.705  68.774  1.00  0.00    -0.185 C  
HETATM   14  O   UNL     1      -9.205   9.530  70.945  1.00  0.00    -0.217 OA 
HETATM   15  S   UNL     1     -10.522   9.481  70.360  1.00  0.00    -0.299 S  
HETATM   16  O   UNL     1     -10.883  10.975  69.859  1.00  0.00    -0.206 OA 
HETATM   17  O   UNL     1     -11.688   9.056  71.100  1.00  0.00    -0.276 OA 
BRANCH  13  18
HETATM   18  C   UNL     1     -10.248   7.244  68.987  1.00  0.00    -0.197 C  
HETATM   19  O   UNL     1     -10.948   6.531  69.694  1.00  0.00    -0.270 OA 
BRANCH  18  20
HETATM   20  O   UNL     1      -9.057   6.863  68.444  1.00  0.00    -0.128 OA 
BRANCH  20  21
HETATM   21  C   UNL     1      -8.736   5.470  68.602  1.00  0.00    -0.108 C  
HETATM   22  C   UNL     1      -9.438   4.535  67.600  1.00  0.00    -0.196 C  
HETATM   23  C   UNL     1      -9.160   4.930  66.132  1.00  0.00    -0.135 C  
HETATM   24  C   UNL     1      -9.079   3.053  67.859  1.00  0.00    -0.225 C  
HETATM   25  C   UNL     1      -7.708   4.810  65.690  1.00  0.00    -0.090 C  
BRANCH  24  26
HETATM   26  C   UNL     1      -9.446   2.566  69.264  1.00  0.00    -0.137 C  
BRANCH  26  27
HETATM   27  C   UNL     1      -8.449   1.525  69.776  1.00  0.00    -0.077 C  
HETATM   28  C   UNL     1      -7.041   1.833  69.284  1.00  0.00    -0.036 C  
ENDBRANCH  26  27
ENDBRANCH  24  26
ENDBRANCH  20  21
ENDBRANCH  18  20
ENDBRANCH  13  18
ENDBRANCH  12  13
ENDBRANCH  10  12
ENDBRANCH   9  10
ENDBRANCH   7   9
ENDBRANCH   3   4
ENDBRANCH   2   3
TORSDOF 11
ENDMDL
MODEL      246
REMARK 921   NORMALIZED FREE ENERGY PREDICTED BY IDOCK:   -3.22 KCAL/MOL
REMARK 922        TOTAL FREE ENERGY PREDICTED BY IDOCK:   -7.53 KCAL/MOL
REMARK 923 INTER-LIGAND FREE ENERGY PREDICTED BY IDOCK:   -5.84 KCAL/MOL
REMARK 924 INTRA-LIGAND FREE ENERGY PREDICTED BY IDOCK:   -1.70 KCAL/MOL
REMARK 927      BINDING AFFINITY PREDICTED BY RF-SCORE:    0.00 PKD
ROOT
HETATM    1  C   UNL     1      -7.982   8.209  74.521  1.00  0.00    -0.293 C  
HETATM    2  C   UNL     1      -6.952   7.190  74.054  1.00  0.00    -0.088 C  
ENDROOT
BRANCH   2   3
HETATM    3  C   UNL     1      -7.590   6.146  73.137  1.00  0.00    -0.097 C  
BRANCH   3   4
HETATM    4  C   UNL     1      -7.419   6.495  71.654  1.00  0.00    -0.089 C  
HETATM    5  C   UNL     1      -8.735   6.417  70.849  1.00  0.00    -0.136 C  
HETATM    6  C   UNL     1      -9.883   7.281  71.420  1.00  0.00    -0.191 C  
HETATM    7  C   UNL     1      -8.471   6.729  69.361  1.00  0.00    -0.132 C  
HETATM    8  C   UNL     1      -9.656   8.783  71.334  1.00  0.00    -0.337 C  
BRANCH   7   9
HETATM    9  O   UNL     1      -9.719   6.675  68.646  1.00  0.00    -0.130 OA 
BRANCH   9  10
HETATM   10  C   UNL     1      -9.811   7.480  67.554  1.00  0.00    -0.162 C  
HETATM   11  O   UNL     1     -10.794   7.575  66.835  1.00  0.00    -0.345 OA 
BRANCH  10  12
HETATM   12  C   UNL     1      -8.619   8.394  67.452  1.00  0.00    -0.124 C  
BRANCH  12  13
HETATM   13  C   UNL     1      -8.799   9.533  66.452  1.00  0.00    -0.144 C  
HETATM   14  O   UNL     1      -6.294   9.249  65.632  1.00  0.00    -0.065 OA 
HETATM   15  S   UNL     1      -7.634   9.426  65.129  1.00  0.00    -0.113 S  
HETATM   16  O   UNL     1      -8.117   8.004  64.533  1.00  0.00    -0.147 OA 
HETATM   17  O   UNL     1      -7.957  10.382  64.094  1.00  0.00    -0.147 OA 
BRANCH  13  18
HETATM   18  C   UNL     1      -8.604  10.855  67.124  1.00  0.00    -0.130 C  
HETATM   19  O   UNL     1      -7.856  11.732  66.713  1.00  0.00    -0.157 OA 
BRANCH  18  20
HETATM   20  O   UNL     1      -9.222  10.874  68.339  1.00  0.00    -0.154 OA 
BRANCH  20  21
HETATM   21  C   UNL     1      -9.872  12.114  68.671  1.00  0.00    -0.101 C  
HETATM   22  C   UNL     1     -11.374  12.159  68.333  1.00  0.00    -0.336 C  
HETATM   23  C   UNL     1     -12.161  11.009  69.000  1.00  0.00    -0.285 C  
HETATM   24  C   UNL     1     -11.992  13.534  68.676  1.00  0.00    -0.378 C  
HETATM   25  C   UNL     1     -12.193  11.041  70.522  1.00  0.00    -0.472 C  
BRANCH  24  26
HETATM   26  C   UNL     1     -11.330  14.707  67.946  1.00  0.00    -0.332 C  
BRANCH  26  27
HETATM   27  C   UNL     1     -11.468  16.010  68.734  1.00  0.00    -0.375 C  
HETATM   28  C   UNL     1     -11.537  15.735  70.230  1.00  0.00    -0.377 C  
ENDBRANCH  26  27
ENDBRANCH  24  26
ENDBRANCH  20  21
ENDBRANCH  18  20
ENDBRANCH  13  18
ENDBRANCH  12  13
ENDBRANCH  10  12
ENDBRANCH   9  10
ENDBRANCH   7   9
ENDBRANCH   3   4
ENDBRANCH   2   3
TORSDOF 11
ENDMDL
MODEL      247
REMARK 921   NORMALIZED FREE ENERGY PREDICTED BY IDOCK:   -3.21 KCAL/MOL
REMARK 922        TOTAL FREE ENERGY PREDICTED BY IDOCK:   -7.52 KCAL/MOL
REMARK 923 INTER-LIGAND FREE ENERGY PREDICTED BY IDOCK:   -6.06 KCAL/MOL
REMARK 924 INTRA-LIGAND FREE ENERGY PREDICTED BY IDOCK:   -1.46 KCAL/MOL
REMARK 927      BINDING AFFINITY PREDICTED BY RF-SCORE:    0.00 PKD
ROOT
HETATM    1  C   UNL     1      -9.072   5.624  72.675  1.00  0.00    -0.132 C  
HETATM    2  C   UNL     1      -8.733   4.249  72.115  1.00  0.00    -0.120 C  
ENDROOT
BRANCH   2   3
HETATM    3  C   UNL     1      -9.781   3.798  71.098  1.00  0.00    -0.245 C  
BRANCH   3   4
HETATM    4  C   UNL     1     -10.098   4.891  70.070  1.00  0.00    -0.337 C  
HETATM    5  C   UNL     1      -8.918   5.207  69.126  1.00  0.00    -0.125 C  
HETATM    6  C   UNL     1      -8.360   3.980  68.369  1.00  0.00    -0.100 C  
HETATM    7  C   UNL     1      -9.297   6.351  68.160  1.00  0.00    -0.108 C  
HETATM    8  C   UNL     1      -9.311   3.375  67.346  1.00  0.00    -0.243 C  
BRANCH   7   9
HETATM    9  O   UNL     1      -8.188   6.601  67.278  1.00  0.00    -0.118 OA 
BRANCH   9  10
HETATM   10  C   UNL     1      -7.844   7.906  67.115  1.00  0.00    -0.109 C  
HETATM   11  O   UNL     1      -7.217   8.353  66.166  1.00  0.00    -0.075 OA 
BRANCH  10  12
HETATM   12  C   UNL     1      -8.503   8.775  68.153  1.00  0.00    -0.130 C  
BRANCH  12  13
HETATM   13  C   UNL     1      -7.553   9.763  68.825  1.00  0.00    -0.076 C  
HETATM   14  O   UNL     1      -8.734   9.352  71.163  1.00  0.00    -0.284 OA 
HETATM   15  S   UNL     1      -7.428   9.464  70.562  1.00  0.00    -0.144 S  
HETATM   16  O   UNL     1      -6.807   7.974  70.478  1.00  0.00    -0.037 OA 
HETATM   17  O   UNL     1      -6.372  10.266  71.136  1.00  0.00    -0.329 OA 
BRANCH  13  18
HETATM   18  C   UNL     1      -8.039  11.165  68.639  1.00  0.00    -0.150 C  
HETATM   19  O   UNL     1      -7.305  12.142  68.563  1.00  0.00    -0.095 OA 
BRANCH  18  20
HETATM   20  O   UNL     1      -9.396  11.225  68.750  1.00  0.00    -0.182 OA 
BRANCH  20  21
HETATM   21  C   UNL     1     -10.011  12.345  68.090  1.00  0.00    -0.215 C  
HETATM   22  C   UNL     1     -11.543  12.256  67.974  1.00  0.00    -0.408 C  
HETATM   23  C   UNL     1     -12.227  12.070  69.347  1.00  0.00    -0.155 C  
HETATM   24  C   UNL     1     -12.127  13.471  67.216  1.00  0.00    -0.367 C  
HETATM   25  C   UNL     1     -12.066  13.234  70.316  1.00  0.00    -0.405 C  
BRANCH  24  26
HETATM   26  C   UNL     1     -11.576  13.636  65.797  1.00  0.00    -0.349 C  
BRANCH  26  27
HETATM   27  C   UNL     1     -12.491  12.985  64.759  1.00  0.00    -0.485 C  
HETATM   28  C   UNL     1     -11.699  12.071  63.833  1.00  0.00    -0.537 C  
ENDBRANCH  26  27
ENDBRANCH  24  26
ENDBRANCH  20  21
ENDBRANCH  18  20
ENDBRANCH  13  18
ENDBRANCH  12  13
ENDBRANCH  10  12
ENDBRANCH   9  10
ENDBRANCH   7   9
ENDBRANCH   3   4
ENDBRANCH   2   3
TORSDOF 11
ENDMDL
MODEL      248
REMARK 921   NORMALIZED FREE ENERGY PREDICTED BY IDOCK:   -3.20 KCAL/MOL
REMARK 922        TOTAL FREE ENERGY PREDICTED BY IDOCK:   -7.50 KCAL/MOL
REMARK 923 INTER-LIGAND FREE ENERGY PREDICTED BY IDOCK:   -6.34 KCAL/MOL
REMARK 924 INTRA-LIGAND FREE ENERGY PREDICTED BY IDOCK:   -1.16 KCAL/MOL
REMARK 927      BINDING AFFINITY PREDICTED BY RF-SCORE:    0.00 PKD
ROOT
HETATM    1  C   UNL     1     -12.648  11.845  63.493  1.00  0.00    -0.579 C  
HETATM    2  C   UNL     1     -11.335  12.610  63.582  1.00  0.00    -0.544 C  
ENDROOT
BRANCH   2   3
HETATM    3  C   UNL     1     -11.290  13.479  64.838  1.00  0.00    -0.347 C  
BRANCH   3   4
HETATM    4  C   UNL     1     -11.840  12.748  66.068  1.00  0.00    -0.495 C  
HETATM    5  C   UNL     1     -10.768  11.939  66.832  1.00  0.00    -0.285 C  
HETATM    6  C   UNL     1      -9.538  12.766  67.271  1.00  0.00    -0.208 C  
HETATM    7  C   UNL     1     -11.409  11.191  68.021  1.00  0.00    -0.312 C  
HETATM    8  C   UNL     1      -9.824  13.819  68.332  1.00  0.00    -0.227 C  
BRANCH   7   9
HETATM    9  O   UNL     1     -10.381  10.471  68.726  1.00  0.00    -0.171 OA 
BRANCH   9  10
HETATM   10  C   UNL     1     -10.365   9.126  68.537  1.00  0.00    -0.207 C  
HETATM   11  O   UNL     1      -9.693   8.543  67.699  1.00  0.00    -0.148 OA 
BRANCH  10  12
HETATM   12  C   UNL     1     -11.129   8.416  69.623  1.00  0.00    -0.011 C  
BRANCH  12  13
HETATM   13  C   UNL     1     -10.264   7.514  70.499  1.00  0.00    -0.201 C  
HETATM   14  O   UNL     1     -11.473   8.418  72.678  1.00  0.00    -0.380 OA 
HETATM   15  S   UNL     1     -11.029   7.195  72.058  1.00  0.00    -0.242 S  
HETATM   16  O   UNL     1     -12.342   6.434  71.500  1.00  0.00    -0.281 OA 
HETATM   17  O   UNL     1     -10.300   6.176  72.779  1.00  0.00    -0.188 OA 
BRANCH  13  18
HETATM   18  C   UNL     1      -8.940   8.156  70.765  1.00  0.00    -0.145 C  
HETATM   19  O   UNL     1      -8.802   9.269  71.255  1.00  0.00    -0.290 OA 
BRANCH  18  20
HETATM   20  O   UNL     1      -7.929   7.420  70.222  1.00  0.00    -0.104 OA 
BRANCH  20  21
HETATM   21  C   UNL     1      -8.282   6.072  69.867  1.00  0.00    -0.118 C  
HETATM   22  C   UNL     1      -7.811   5.637  68.467  1.00  0.00    -0.096 C  
HETATM   23  C   UNL     1      -6.286   5.800  68.281  1.00  0.00    -0.044 C  
HETATM   24  C   UNL     1      -8.265   4.196  68.138  1.00  0.00    -0.094 C  
HETATM   25  C   UNL     1      -5.425   4.919  69.176  1.00  0.00    -0.008 C  
BRANCH  24  26
HETATM   26  C   UNL     1      -9.784   4.001  68.184  1.00  0.00    -0.138 C  
BRANCH  26  27
HETATM   27  C   UNL     1     -10.519   5.137  67.472  1.00  0.00    -0.148 C  
HETATM   28  C   UNL     1     -10.458   4.959  65.961  1.00  0.00    -0.327 C  
ENDBRANCH  26  27
ENDBRANCH  24  26
ENDBRANCH  20  21
ENDBRANCH  18  20
ENDBRANCH  13  18
ENDBRANCH  12  13
ENDBRANCH  10  12
ENDBRANCH   9  10
ENDBRANCH   7   9
ENDBRANCH   3   4
ENDBRANCH   2   3
TORSDOF 11
ENDMDL
MODEL      249
REMARK 921   NORMALIZED FREE ENERGY PREDICTED BY IDOCK:   -3.19 KCAL/MOL
REMARK 922        TOTAL FREE ENERGY PREDICTED BY IDOCK:   -7.49 KCAL/MOL
REMARK 923 INTER-LIGAND FREE ENERGY PREDICTED BY IDOCK:   -6.89 KCAL/MOL
REMARK 924 INTRA-LIGAND FREE ENERGY PREDICTED BY IDOCK:   -0.60 KCAL/MOL
REMARK 927      BINDING AFFINITY PREDICTED BY RF-SCORE:    0.00 PKD
ROOT
HETATM    1  C   UNL     1      -9.974   5.114  70.108  1.00  0.00    -0.324 C  
HETATM    2  C   UNL     1      -9.969   5.036  71.628  1.00  0.00    -0.249 C  
ENDROOT
BRANCH   2   3
HETATM    3  C   UNL     1     -11.065   5.917  72.226  1.00  0.00    -0.330 C  
BRANCH   3   4
HETATM    4  C   UNL     1     -10.747   7.411  72.090  1.00  0.00    -0.262 C  
HETATM    5  C   UNL     1     -11.672   8.147  71.096  1.00  0.00    -0.309 C  
HETATM    6  C   UNL     1     -13.181   8.001  71.401  1.00  0.00    -0.260 C  
HETATM    7  C   UNL     1     -11.255   9.628  70.975  1.00  0.00    -0.375 C  
HETATM    8  C   UNL     1     -13.641   8.679  72.683  1.00  0.00    -0.284 C  
BRANCH   7   9
HETATM    9  O   UNL     1     -12.152  10.291  70.065  1.00  0.00    -0.232 OA 
BRANCH   9  10
HETATM   10  C   UNL     1     -11.642  11.366  69.408  1.00  0.00    -0.323 C  
HETATM   11  O   UNL     1     -11.912  12.532  69.654  1.00  0.00    -0.303 OA 
BRANCH  10  12
HETATM   12  C   UNL     1     -10.543  10.954  68.465  1.00  0.00    -0.219 C  
BRANCH  12  13
HETATM   13  C   UNL     1     -10.922  11.061  66.990  1.00  0.00    -0.272 C  
HETATM   14  O   UNL     1      -8.431  10.496  66.278  1.00  0.00    -0.139 OA 
HETATM   15  S   UNL     1      -9.799  10.164  65.964  1.00  0.00    -0.260 S  
HETATM   16  O   UNL     1     -10.088   8.692  66.567  1.00  0.00    -0.273 OA 
HETATM   17  O   UNL     1     -10.294  10.103  64.608  1.00  0.00    -0.198 OA 
BRANCH  13  18
HETATM   18  C   UNL     1     -10.900  12.490  66.547  1.00  0.00    -0.256 C  
HETATM   19  O   UNL     1     -11.854  13.066  66.041  1.00  0.00    -0.374 OA 
BRANCH  18  20
HETATM   20  O   UNL     1      -9.636  12.996  66.612  1.00  0.00    -0.247 OA 
BRANCH  20  21
HETATM   21  C   UNL     1      -9.311  13.661  67.845  1.00  0.00    -0.206 C  
HETATM   22  C   UNL     1      -8.873  15.128  67.683  1.00  0.00    -0.178 C  
HETATM   23  C   UNL     1      -9.928  15.978  66.942  1.00  0.00    -0.255 C  
HETATM   24  C   UNL     1      -8.498  15.761  69.043  1.00  0.00    -0.242 C  
HETATM   25  C   UNL     1     -11.259  16.139  67.664  1.00  0.00    -0.147 C  
BRANCH  24  26
HETATM   26  C   UNL     1      -7.367  15.031  69.773  1.00  0.00    -0.132 C  
BRANCH  26  27
HETATM   27  C   UNL     1      -6.015  15.704  69.533  1.00  0.00    -0.130 C  
HETATM   28  C   UNL     1      -5.240  14.988  68.434  1.00  0.00    -0.110 C  
ENDBRANCH  26  27
ENDBRANCH  24  26
ENDBRANCH  20  21
ENDBRANCH  18  20
ENDBRANCH  13  18
ENDBRANCH  12  13
ENDBRANCH  10  12
ENDBRANCH   9  10
ENDBRANCH   7   9
ENDBRANCH   3   4
ENDBRANCH   2   3
TORSDOF 11
ENDMDL
MODEL      250
REMARK 921   NORMALIZED FREE ENERGY PREDICTED BY IDOCK:   -3.18 KCAL/MOL
REMARK 922        TOTAL FREE ENERGY PREDICTED BY IDOCK:   -7.47 KCAL/MOL
REMARK 923 INTER-LIGAND FREE ENERGY PREDICTED BY IDOCK:   -6.20 KCAL/MOL
REMARK 924 INTRA-LIGAND FREE ENERGY PREDICTED BY IDOCK:   -1.26 KCAL/MOL
REMARK 927      BINDING AFFINITY PREDICTED BY RF-SCORE:    0.00 PKD
ROOT
HETATM    1  C   UNL     1     -11.244  15.911  64.661  1.00  0.00    -0.361 C  
HETATM    2  C   UNL     1     -11.869  14.528  64.550  1.00  0.00    -0.459 C  
ENDROOT
BRANCH   2   3
HETATM    3  C   UNL     1     -10.806  13.435  64.659  1.00  0.00    -0.405 C  
BRANCH   3   4
HETATM    4  C   UNL     1     -10.516  13.052  66.116  1.00  0.00    -0.289 C  
HETATM    5  C   UNL     1     -10.844  11.578  66.439  1.00  0.00    -0.334 C  
HETATM    6  C   UNL     1     -10.140  10.552  65.521  1.00  0.00    -0.349 C  
HETATM    7  C   UNL     1     -10.578  11.286  67.932  1.00  0.00    -0.194 C  
HETATM    8  C   UNL     1      -8.628  10.487  65.679  1.00  0.00    -0.182 C  
BRANCH   7   9
HETATM    9  O   UNL     1     -10.865   9.900  68.193  1.00  0.00    -0.241 OA 
BRANCH   9  10
HETATM   10  C   UNL     1     -10.069   9.294  69.113  1.00  0.00    -0.199 C  
HETATM   11  O   UNL     1      -8.890   9.017  68.946  1.00  0.00    -0.137 OA 
BRANCH  10  12
HETATM   12  C   UNL     1     -10.764   9.182  70.444  1.00  0.00    -0.282 C  
BRANCH  12  13
HETATM   13  C   UNL     1     -11.857   8.117  70.482  1.00  0.00    -0.005 C  
HETATM   14  O   UNL     1     -12.140   8.460  73.095  1.00  0.00    -0.119 OA 
HETATM   15  S   UNL     1     -12.911   8.319  71.885  1.00  0.00    -0.345 S  
HETATM   16  O   UNL     1     -13.489   9.781  71.509  1.00  0.00    -0.373 OA 
HETATM   17  O   UNL     1     -14.055   7.441  71.787  1.00  0.00    -0.395 OA 
BRANCH  13  18
HETATM   18  C   UNL     1     -11.255   6.750  70.558  1.00  0.00    -0.320 C  
HETATM   19  O   UNL     1     -11.460   5.863  69.741  1.00  0.00    -0.307 OA 
BRANCH  18  20
HETATM   20  O   UNL     1     -10.606   6.575  71.744  1.00  0.00    -0.210 OA 
BRANCH  20  21
HETATM   21  C   UNL     1      -9.326   5.925  71.645  1.00  0.00    -0.149 C  
HETATM   22  C   UNL     1      -8.121   6.884  71.660  1.00  0.00    -0.105 C  
HETATM   23  C   UNL     1      -8.106   7.791  72.910  1.00  0.00    -0.169 C  
HETATM   24  C   UNL     1      -6.786   6.119  71.506  1.00  0.00    -0.056 C  
HETATM   25  C   UNL     1      -7.930   7.066  74.237  1.00  0.00    -0.146 C  
BRANCH  24  26
HETATM   26  C   UNL     1      -6.691   5.295  70.218  1.00  0.00    -0.047 C  
BRANCH  26  27
HETATM   27  C   UNL     1      -5.617   5.842  69.277  1.00  0.00    -0.008 C  
HETATM   28  C   UNL     1      -5.814   7.333  69.038  1.00  0.00    -0.019 C  
ENDBRANCH  26  27
ENDBRANCH  24  26
ENDBRANCH  20  21
ENDBRANCH  18  20
ENDBRANCH  13  18
ENDBRANCH  12  13
ENDBRANCH  10  12
ENDBRANCH   9  10
ENDBRANCH   7   9
ENDBRANCH   3   4
ENDBRANCH   2   3
TORSDOF 11
ENDMDL
MODEL      251
REMARK 921   NORMALIZED FREE ENERGY PREDICTED BY IDOCK:   -3.18 KCAL/MOL
REMARK 922        TOTAL FREE ENERGY PREDICTED BY IDOCK:   -7.47 KCAL/MOL
REMARK 923 INTER-LIGAND FREE ENERGY PREDICTED BY IDOCK:   -7.50 KCAL/MOL
REMARK 924 INTRA-LIGAND FREE ENERGY PREDICTED BY IDOCK:    0.04 KCAL/MOL
REMARK 927      BINDING AFFINITY PREDICTED BY RF-SCORE:    0.00 PKD
ROOT
HETATM    1  C   UNL     1      -9.981   5.082  70.064  1.00  0.00    -0.324 C  
HETATM    2  C   UNL     1     -10.115   4.997  71.578  1.00  0.00    -0.263 C  
ENDROOT
BRANCH   2   3
HETATM    3  C   UNL     1     -11.138   6.009  72.095  1.00  0.00    -0.328 C  
BRANCH   3   4
HETATM    4  C   UNL     1     -10.704   7.456  71.835  1.00  0.00    -0.247 C  
HETATM    5  C   UNL     1     -11.655   8.222  70.889  1.00  0.00    -0.282 C  
HETATM    6  C   UNL     1     -13.132   8.235  71.344  1.00  0.00    -0.240 C  
HETATM    7  C   UNL     1     -11.122   9.648  70.636  1.00  0.00    -0.319 C  
HETATM    8  C   UNL     1     -13.401   9.022  72.619  1.00  0.00    -0.391 C  
BRANCH   7   9
HETATM    9  O   UNL     1     -12.044  10.343  69.775  1.00  0.00    -0.228 OA 
BRANCH   9  10
HETATM   10  C   UNL     1     -11.489  11.007  68.727  1.00  0.00    -0.305 C  
HETATM   11  O   UNL     1     -12.105  11.703  67.933  1.00  0.00    -0.613 OA 
BRANCH  10  12
HETATM   12  C   UNL     1      -9.986  10.944  68.778  1.00  0.00    -0.203 C  
BRANCH  12  13
HETATM   13  C   UNL     1      -9.377   9.929  67.816  1.00  0.00    -0.140 C  
HETATM   14  O   UNL     1      -7.022  11.134  67.987  1.00  0.00    -0.066 OA 
HETATM   15  S   UNL     1      -7.624   9.825  68.006  1.00  0.00    -0.082 S  
HETATM   16  O   UNL     1      -7.605   9.307  69.537  1.00  0.00    -0.074 OA 
HETATM   17  O   UNL     1      -7.099   8.715  67.242  1.00  0.00    -0.077 OA 
BRANCH  13  18
HETATM   18  C   UNL     1      -9.658  10.317  66.399  1.00  0.00    -0.185 C  
HETATM   19  O   UNL     1     -10.132   9.561  65.561  1.00  0.00    -0.260 OA 
BRANCH  18  20
HETATM   20  O   UNL     1      -9.148  11.551  66.126  1.00  0.00    -0.206 OA 
BRANCH  20  21
HETATM   21  C   UNL     1     -10.097  12.630  66.198  1.00  0.00    -0.257 C  
HETATM   22  C   UNL     1     -10.191  13.484  64.921  1.00  0.00    -0.351 C  
HETATM   23  C   UNL     1     -10.518  12.638  63.670  1.00  0.00    -0.348 C  
HETATM   24  C   UNL     1     -11.196  14.647  65.089  1.00  0.00    -0.374 C  
HETATM   25  C   UNL     1     -11.882  11.961  63.681  1.00  0.00    -0.573 C  
BRANCH  24  26
HETATM   26  C   UNL     1     -10.854  15.596  66.242  1.00  0.00    -0.262 C  
BRANCH  26  27
HETATM   27  C   UNL     1     -10.080  16.821  65.752  1.00  0.00    -0.276 C  
HETATM   28  C   UNL     1      -8.588  16.658  66.007  1.00  0.00    -0.229 C  
ENDBRANCH  26  27
ENDBRANCH  24  26
ENDBRANCH  20  21
ENDBRANCH  18  20
ENDBRANCH  13  18
ENDBRANCH  12  13
ENDBRANCH  10  12
ENDBRANCH   9  10
ENDBRANCH   7   9
ENDBRANCH   3   4
ENDBRANCH   2   3
TORSDOF 11
ENDMDL
MODEL      252
REMARK 921   NORMALIZED FREE ENERGY PREDICTED BY IDOCK:   -3.15 KCAL/MOL
REMARK 922        TOTAL FREE ENERGY PREDICTED BY IDOCK:   -7.42 KCAL/MOL
REMARK 923 INTER-LIGAND FREE ENERGY PREDICTED BY IDOCK:   -6.11 KCAL/MOL
REMARK 924 INTRA-LIGAND FREE ENERGY PREDICTED BY IDOCK:   -1.30 KCAL/MOL
REMARK 927      BINDING AFFINITY PREDICTED BY RF-SCORE:    0.00 PKD
ROOT
HETATM    1  C   UNL     1      -7.348   6.578  72.608  1.00  0.00    -0.090 C  
HETATM    2  C   UNL     1      -7.790   7.964  73.058  1.00  0.00    -0.174 C  
ENDROOT
BRANCH   2   3
HETATM    3  C   UNL     1      -9.315   8.073  73.077  1.00  0.00    -0.344 C  
BRANCH   3   4
HETATM    4  C   UNL     1      -9.858   8.814  71.849  1.00  0.00    -0.395 C  
HETATM    5  C   UNL     1      -9.974   7.920  70.595  1.00  0.00    -0.188 C  
HETATM    6  C   UNL     1     -10.818   6.641  70.800  1.00  0.00    -0.299 C  
HETATM    7  C   UNL     1     -10.475   8.749  69.393  1.00  0.00    -0.222 C  
HETATM    8  C   UNL     1     -12.301   6.887  71.040  1.00  0.00    -0.401 C  
BRANCH   7   9
HETATM    9  O   UNL     1     -10.599   7.882  68.250  1.00  0.00    -0.188 OA 
BRANCH   9  10
HETATM   10  C   UNL     1      -9.441   7.582  67.607  1.00  0.00    -0.138 C  
HETATM   11  O   UNL     1      -9.048   6.450  67.361  1.00  0.00    -0.113 OA 
BRANCH  10  12
HETATM   12  C   UNL     1      -8.789   8.821  67.053  1.00  0.00    -0.139 C  
BRANCH  12  13
HETATM   13  C   UNL     1      -9.368   9.279  65.717  1.00  0.00    -0.244 C  
HETATM   14  O   UNL     1      -6.953   9.983  64.879  1.00  0.00    -0.126 OA 
HETATM   15  S   UNL     1      -8.140   9.288  64.447  1.00  0.00    -0.152 S  
HETATM   16  O   UNL     1      -7.805   7.706  64.462  1.00  0.00    -0.122 OA 
HETATM   17  O   UNL     1      -8.751   9.516  63.157  1.00  0.00    -0.205 OA 
BRANCH  13  18
HETATM   18  C   UNL     1      -9.915  10.666  65.831  1.00  0.00    -0.255 C  
HETATM   19  O   UNL     1     -11.035  10.995  65.466  1.00  0.00    -0.150 OA 
BRANCH  18  20
HETATM   20  O   UNL     1      -8.941  11.538  66.219  1.00  0.00    -0.193 OA 
BRANCH  20  21
HETATM   21  C   UNL     1      -9.420  12.792  66.736  1.00  0.00    -0.243 C  
HETATM   22  C   UNL     1      -9.041  13.064  68.203  1.00  0.00    -0.204 C  
HETATM   23  C   UNL     1      -7.516  12.996  68.439  1.00  0.00    -0.128 C  
HETATM   24  C   UNL     1      -9.626  14.406  68.701  1.00  0.00    -0.208 C  
HETATM   25  C   UNL     1      -6.698  14.057  67.716  1.00  0.00    -0.188 C  
BRANCH  24  26
HETATM   26  C   UNL     1     -11.153  14.486  68.607  1.00  0.00    -0.272 C  
BRANCH  26  27
HETATM   27  C   UNL     1     -11.669  15.870  69.002  1.00  0.00    -0.377 C  
HETATM   28  C   UNL     1     -10.730  16.962  68.504  1.00  0.00    -0.359 C  
ENDBRANCH  26  27
ENDBRANCH  24  26
ENDBRANCH  20  21
ENDBRANCH  18  20
ENDBRANCH  13  18
ENDBRANCH  12  13
ENDBRANCH  10  12
ENDBRANCH   9  10
ENDBRANCH   7   9
ENDBRANCH   3   4
ENDBRANCH   2   3
TORSDOF 11
ENDMDL
MODEL      253
REMARK 921   NORMALIZED FREE ENERGY PREDICTED BY IDOCK:   -3.14 KCAL/MOL
REMARK 922        TOTAL FREE ENERGY PREDICTED BY IDOCK:   -7.41 KCAL/MOL
REMARK 923 INTER-LIGAND FREE ENERGY PREDICTED BY IDOCK:   -6.41 KCAL/MOL
REMARK 924 INTRA-LIGAND FREE ENERGY PREDICTED BY IDOCK:   -1.01 KCAL/MOL
REMARK 927      BINDING AFFINITY PREDICTED BY RF-SCORE:    0.00 PKD
ROOT
HETATM    1  C   UNL     1     -10.066   3.982  71.897  1.00  0.00    -0.214 C  
HETATM    2  C   UNL     1      -9.190   2.762  71.647  1.00  0.00    -0.181 C  
ENDROOT
BRANCH   2   3
HETATM    3  C   UNL     1      -8.116   3.064  70.602  1.00  0.00    -0.058 C  
BRANCH   3   4
HETATM    4  C   UNL     1      -8.544   4.173  69.634  1.00  0.00    -0.106 C  
HETATM    5  C   UNL     1      -7.805   5.510  69.867  1.00  0.00    -0.082 C  
HETATM    6  C   UNL     1      -6.264   5.401  69.826  1.00  0.00    -0.025 C  
HETATM    7  C   UNL     1      -8.329   6.586  68.892  1.00  0.00    -0.122 C  
HETATM    8  C   UNL     1      -5.684   5.058  68.462  1.00  0.00    -0.016 C  
BRANCH   7   9
HETATM    9  O   UNL     1      -7.602   7.809  69.116  1.00  0.00    -0.095 OA 
BRANCH   9  10
HETATM   10  C   UNL     1      -8.078   8.608  70.107  1.00  0.00    -0.113 C  
HETATM   11  O   UNL     1      -7.627   9.705  70.400  1.00  0.00    -0.147 OA 
BRANCH  10  12
HETATM   12  C   UNL     1      -9.363   8.064  70.673  1.00  0.00    -0.162 C  
BRANCH  12  13
HETATM   13  C   UNL     1     -10.514   9.066  70.669  1.00  0.00    -0.230 C  
HETATM   14  O   UNL     1     -12.275   7.091  70.824  1.00  0.00    -0.353 OA 
HETATM   15  S   UNL     1     -11.973   8.382  71.390  1.00  0.00    -0.304 S  
HETATM   16  O   UNL     1     -11.382   8.132  72.873  1.00  0.00    -0.387 OA 
HETATM   17  O   UNL     1     -12.976   9.408  71.568  1.00  0.00    -0.334 OA 
BRANCH  13  18
HETATM   18  C   UNL     1     -10.846   9.476  69.269  1.00  0.00    -0.191 C  
HETATM   19  O   UNL     1     -10.905   8.702  68.323  1.00  0.00    -0.098 OA 
BRANCH  18  20
HETATM   20  O   UNL     1     -10.890  10.834  69.161  1.00  0.00    -0.206 OA 
BRANCH  20  21
HETATM   21  C   UNL     1     -10.337  11.364  67.943  1.00  0.00    -0.182 C  
HETATM   22  C   UNL     1     -11.306  12.244  67.132  1.00  0.00    -0.398 C  
HETATM   23  C   UNL     1     -11.865  13.422  67.961  1.00  0.00    -0.392 C  
HETATM   24  C   UNL     1     -10.658  12.740  65.819  1.00  0.00    -0.295 C  
HETATM   25  C   UNL     1     -10.833  14.447  68.412  1.00  0.00    -0.256 C  
BRANCH  24  26
HETATM   26  C   UNL     1     -10.194  11.610  64.895  1.00  0.00    -0.315 C  
BRANCH  26  27
HETATM   27  C   UNL     1     -10.807  11.737  63.500  1.00  0.00    -0.496 C  
HETATM   28  C   UNL     1     -12.294  12.056  63.587  1.00  0.00    -0.648 C  
ENDBRANCH  26  27
ENDBRANCH  24  26
ENDBRANCH  20  21
ENDBRANCH  18  20
ENDBRANCH  13  18
ENDBRANCH  12  13
ENDBRANCH  10  12
ENDBRANCH   9  10
ENDBRANCH   7   9
ENDBRANCH   3   4
ENDBRANCH   2   3
TORSDOF 11
ENDMDL
MODEL      254
REMARK 921   NORMALIZED FREE ENERGY PREDICTED BY IDOCK:   -3.14 KCAL/MOL
REMARK 922        TOTAL FREE ENERGY PREDICTED BY IDOCK:   -7.41 KCAL/MOL
REMARK 923 INTER-LIGAND FREE ENERGY PREDICTED BY IDOCK:   -6.47 KCAL/MOL
REMARK 924 INTRA-LIGAND FREE ENERGY PREDICTED BY IDOCK:   -0.94 KCAL/MOL
REMARK 927      BINDING AFFINITY PREDICTED BY RF-SCORE:    0.00 PKD
ROOT
HETATM    1  C   UNL     1     -12.710  11.810  63.605  1.00  0.00    -0.407 C  
HETATM    2  C   UNL     1     -11.821  13.008  63.302  1.00  0.00    -0.432 C  
ENDROOT
BRANCH   2   3
HETATM    3  C   UNL     1     -12.232  14.221  64.136  1.00  0.00    -0.410 C  
BRANCH   3   4
HETATM    4  C   UNL     1     -12.643  13.831  65.561  1.00  0.00    -0.551 C  
HETATM    5  C   UNL     1     -11.510  13.156  66.364  1.00  0.00    -0.374 C  
HETATM    6  C   UNL     1     -10.207  13.983  66.447  1.00  0.00    -0.293 C  
HETATM    7  C   UNL     1     -12.017  12.746  67.763  1.00  0.00    -0.260 C  
HETATM    8  C   UNL     1     -10.318  15.269  67.252  1.00  0.00    -0.264 C  
BRANCH   7   9
HETATM    9  O   UNL     1     -10.932  12.147  68.494  1.00  0.00    -0.214 OA 
BRANCH   9  10
HETATM   10  C   UNL     1     -10.964  10.792  68.596  1.00  0.00    -0.239 C  
HETATM   11  O   UNL     1     -11.182  10.024  67.670  1.00  0.00    -0.248 OA 
BRANCH  10  12
HETATM   12  C   UNL     1     -10.500  10.338  69.955  1.00  0.00    -0.304 C  
BRANCH  12  13
HETATM   13  C   UNL     1     -10.062   8.876  70.001  1.00  0.00    -0.192 C  
HETATM   14  O   UNL     1     -10.730   8.727  72.562  1.00  0.00    -0.250 OA 
HETATM   15  S   UNL     1     -10.849   8.005  71.320  1.00  0.00    -0.237 S  
HETATM   16  O   UNL     1     -12.374   8.174  70.808  1.00  0.00    -0.123 OA 
HETATM   17  O   UNL     1     -10.588   6.587  71.215  1.00  0.00    -0.219 OA 
BRANCH  13  18
HETATM   18  C   UNL     1      -8.584   8.778  70.209  1.00  0.00    -0.152 C  
HETATM   19  O   UNL     1      -7.983   9.316  71.129  1.00  0.00    -0.292 OA 
BRANCH  18  20
HETATM   20  O   UNL     1      -7.986   8.172  69.145  1.00  0.00    -0.109 OA 
BRANCH  20  21
HETATM   21  C   UNL     1      -7.563   6.817  69.376  1.00  0.00    -0.096 C  
HETATM   22  C   UNL     1      -8.599   5.749  68.981  1.00  0.00    -0.106 C  
HETATM   23  C   UNL     1      -9.037   5.871  67.505  1.00  0.00    -0.106 C  
HETATM   24  C   UNL     1      -8.093   4.323  69.299  1.00  0.00    -0.066 C  
HETATM   25  C   UNL     1      -7.941   5.621  66.478  1.00  0.00    -0.101 C  
BRANCH  24  26
HETATM   26  C   UNL     1      -7.758   4.102  70.777  1.00  0.00    -0.052 C  
BRANCH  26  27
HETATM   27  C   UNL     1      -8.968   3.585  71.557  1.00  0.00    -0.158 C  
HETATM   28  C   UNL     1      -9.455   2.260  70.987  1.00  0.00    -0.217 C  
ENDBRANCH  26  27
ENDBRANCH  24  26
ENDBRANCH  20  21
ENDBRANCH  18  20
ENDBRANCH  13  18
ENDBRANCH  12  13
ENDBRANCH  10  12
ENDBRANCH   9  10
ENDBRANCH   7   9
ENDBRANCH   3   4
ENDBRANCH   2   3
TORSDOF 11
ENDMDL
MODEL      255
REMARK 921   NORMALIZED FREE ENERGY PREDICTED BY IDOCK:   -3.14 KCAL/MOL
REMARK 922        TOTAL FREE ENERGY PREDICTED BY IDOCK:   -7.40 KCAL/MOL
REMARK 923 INTER-LIGAND FREE ENERGY PREDICTED BY IDOCK:   -5.60 KCAL/MOL
REMARK 924 INTRA-LIGAND FREE ENERGY PREDICTED BY IDOCK:   -1.80 KCAL/MOL
REMARK 927      BINDING AFFINITY PREDICTED BY RF-SCORE:    0.00 PKD
ROOT
HETATM    1  C   UNL     1      -6.996   9.029  63.613  1.00  0.00    -0.089 C  
HETATM    2  C   UNL     1      -6.367   8.947  64.997  1.00  0.00    -0.065 C  
ENDROOT
BRANCH   2   3
HETATM    3  C   UNL     1      -6.669   7.602  65.658  1.00  0.00    -0.045 C  
BRANCH   3   4
HETATM    4  C   UNL     1      -6.326   7.601  67.152  1.00  0.00    -0.054 C  
HETATM    5  C   UNL     1      -7.569   7.544  68.067  1.00  0.00    -0.110 C  
HETATM    6  C   UNL     1      -8.513   6.352  67.787  1.00  0.00    -0.117 C  
HETATM    7  C   UNL     1      -7.144   7.600  69.550  1.00  0.00    -0.064 C  
HETATM    8  C   UNL     1      -7.929   4.985  68.115  1.00  0.00    -0.087 C  
BRANCH   7   9
HETATM    9  O   UNL     1      -8.322   7.517  70.374  1.00  0.00    -0.125 OA 
BRANCH   9  10
HETATM   10  C   UNL     1      -8.982   8.687  70.583  1.00  0.00    -0.171 C  
HETATM   11  O   UNL     1      -8.450   9.755  70.849  1.00  0.00    -0.185 OA 
BRANCH  10  12
HETATM   12  C   UNL     1     -10.444   8.552  70.248  1.00  0.00    -0.233 C  
BRANCH  12  13
HETATM   13  C   UNL     1     -11.356   9.427  71.103  1.00  0.00    -0.351 C  
HETATM   14  O   UNL     1     -13.233   7.554  71.071  1.00  0.00    -0.210 OA 
HETATM   15  S   UNL     1     -12.560   8.463  71.965  1.00  0.00    -0.368 S  
HETATM   16  O   UNL     1     -11.533   7.589  72.858  1.00  0.00    -0.328 OA 
HETATM   17  O   UNL     1     -13.268   9.280  72.924  1.00  0.00    -0.260 OA 
BRANCH  13  18
HETATM   18  C   UNL     1     -12.090  10.411  70.248  1.00  0.00    -0.286 C  
HETATM   19  O   UNL     1     -13.303  10.416  70.093  1.00  0.00    -0.018 OA 
BRANCH  18  20
HETATM   20  O   UNL     1     -11.215  11.172  69.530  1.00  0.00    -0.244 OA 
BRANCH  20  21
HETATM   21  C   UNL     1     -11.643  11.491  68.195  1.00  0.00    -0.308 C  
HETATM   22  C   UNL     1     -10.531  11.417  67.133  1.00  0.00    -0.259 C  
HETATM   23  C   UNL     1      -9.840  10.035  67.100  1.00  0.00    -0.231 C  
HETATM   24  C   UNL     1     -11.055  11.815  65.733  1.00  0.00    -0.351 C  
HETATM   25  C   UNL     1     -10.731   8.872  66.685  1.00  0.00    -0.017 C  
BRANCH  24  26
HETATM   26  C   UNL     1     -11.642  13.228  65.673  1.00  0.00    -0.363 C  
BRANCH  26  27
HETATM   27  C   UNL     1     -12.803  13.313  64.682  1.00  0.00    -0.190 C  
HETATM   28  C   UNL     1     -12.455  12.614  63.375  1.00  0.00    -0.474 C  
ENDBRANCH  26  27
ENDBRANCH  24  26
ENDBRANCH  20  21
ENDBRANCH  18  20
ENDBRANCH  13  18
ENDBRANCH  12  13
ENDBRANCH  10  12
ENDBRANCH   9  10
ENDBRANCH   7   9
ENDBRANCH   3   4
ENDBRANCH   2   3
TORSDOF 11
ENDMDL
MODEL      256
REMARK 921   NORMALIZED FREE ENERGY PREDICTED BY IDOCK:   -3.13 KCAL/MOL
REMARK 922        TOTAL FREE ENERGY PREDICTED BY IDOCK:   -7.38 KCAL/MOL
REMARK 923 INTER-LIGAND FREE ENERGY PREDICTED BY IDOCK:   -6.66 KCAL/MOL
REMARK 924 INTRA-LIGAND FREE ENERGY PREDICTED BY IDOCK:   -0.73 KCAL/MOL
REMARK 927      BINDING AFFINITY PREDICTED BY RF-SCORE:    0.00 PKD
ROOT
HETATM    1  C   UNL     1     -11.145   1.773  72.832  1.00  0.00    -0.181 C  
HETATM    2  C   UNL     1     -10.142   2.527  73.693  1.00  0.00    -0.175 C  
ENDROOT
BRANCH   2   3
HETATM    3  C   UNL     1      -9.124   3.269  72.827  1.00  0.00    -0.114 C  
BRANCH   3   4
HETATM    4  C   UNL     1      -9.790   4.029  71.673  1.00  0.00    -0.253 C  
HETATM    5  C   UNL     1      -9.146   5.404  71.391  1.00  0.00    -0.163 C  
HETATM    6  C   UNL     1      -7.625   5.353  71.121  1.00  0.00    -0.097 C  
HETATM    7  C   UNL     1      -9.904   6.127  70.257  1.00  0.00    -0.169 C  
HETATM    8  C   UNL     1      -7.230   4.650  69.831  1.00  0.00    -0.054 C  
BRANCH   7   9
HETATM    9  O   UNL     1      -9.263   7.390  70.000  1.00  0.00    -0.148 OA 
BRANCH   9  10
HETATM   10  C   UNL     1      -9.725   8.445  70.722  1.00  0.00    -0.176 C  
HETATM   11  O   UNL     1      -9.128   8.977  71.646  1.00  0.00    -0.300 OA 
BRANCH  10  12
HETATM   12  C   UNL     1     -10.980   9.011  70.114  1.00  0.00    -0.256 C  
BRANCH  12  13
HETATM   13  C   UNL     1     -11.589  10.161  70.912  1.00  0.00    -0.372 C  
HETATM   14  O   UNL     1     -13.952   8.960  70.900  1.00  0.00    -0.049 OA 
HETATM   15  S   UNL     1     -13.042   9.654  71.777  1.00  0.00    -0.452 S  
HETATM   16  O   UNL     1     -12.349   8.545  72.728  1.00  0.00    -0.327 OA 
HETATM   17  O   UNL     1     -13.476  10.690  72.687  1.00  0.00     0.138 OA 
BRANCH  13  18
HETATM   18  C   UNL     1     -11.970  11.286  70.003  1.00  0.00    -0.368 C  
HETATM   19  O   UNL     1     -12.100  12.448  70.364  1.00  0.00    -0.359 OA 
BRANCH  18  20
HETATM   20  O   UNL     1     -12.328  10.814  68.775  1.00  0.00    -0.435 OA 
BRANCH  20  21
HETATM   21  C   UNL     1     -11.275  10.809  67.795  1.00  0.00    -0.316 C  
HETATM   22  C   UNL     1     -11.519  11.737  66.592  1.00  0.00    -0.337 C  
HETATM   23  C   UNL     1     -11.773  13.200  67.019  1.00  0.00    -0.431 C  
HETATM   24  C   UNL     1     -10.369  11.646  65.562  1.00  0.00    -0.309 C  
HETATM   25  C   UNL     1     -10.600  13.892  67.700  1.00  0.00    -0.247 C  
BRANCH  24  26
HETATM   26  C   UNL     1     -10.148  10.235  65.007  1.00  0.00    -0.353 C  
BRANCH  26  27
HETATM   27  C   UNL     1      -8.670   9.845  65.033  1.00  0.00    -0.196 C  
HETATM   28  C   UNL     1      -7.903  10.692  66.039  1.00  0.00    -0.156 C  
ENDBRANCH  26  27
ENDBRANCH  24  26
ENDBRANCH  20  21
ENDBRANCH  18  20
ENDBRANCH  13  18
ENDBRANCH  12  13
ENDBRANCH  10  12
ENDBRANCH   9  10
ENDBRANCH   7   9
ENDBRANCH   3   4
ENDBRANCH   2   3
TORSDOF 11
ENDMDL
MODEL      257
REMARK 921   NORMALIZED FREE ENERGY PREDICTED BY IDOCK:   -3.12 KCAL/MOL
REMARK 922        TOTAL FREE ENERGY PREDICTED BY IDOCK:   -7.38 KCAL/MOL
REMARK 923 INTER-LIGAND FREE ENERGY PREDICTED BY IDOCK:   -6.29 KCAL/MOL
REMARK 924 INTRA-LIGAND FREE ENERGY PREDICTED BY IDOCK:   -1.09 KCAL/MOL
REMARK 927      BINDING AFFINITY PREDICTED BY RF-SCORE:    0.00 PKD
ROOT
HETATM    1  C   UNL     1     -11.978  14.309  68.015  1.00  0.00    -0.353 C  
HETATM    2  C   UNL     1     -11.610  13.506  69.255  1.00  0.00    -0.369 C  
ENDROOT
BRANCH   2   3
HETATM    3  C   UNL     1     -12.002  12.038  69.095  1.00  0.00    -0.326 C  
BRANCH   3   4
HETATM    4  C   UNL     1     -10.778  11.119  68.997  1.00  0.00    -0.265 C  
HETATM    5  C   UNL     1     -10.717  10.317  67.678  1.00  0.00    -0.339 C  
HETATM    6  C   UNL     1     -10.772  11.186  66.401  1.00  0.00    -0.303 C  
HETATM    7  C   UNL     1      -9.490   9.380  67.680  1.00  0.00    -0.132 C  
HETATM    8  C   UNL     1      -9.557  12.075  66.180  1.00  0.00    -0.252 C  
BRANCH   7   9
HETATM    9  O   UNL     1      -9.447   8.669  66.428  1.00  0.00    -0.193 OA 
BRANCH   9  10
HETATM   10  C   UNL     1      -9.817   7.362  66.477  1.00  0.00    -0.139 C  
HETATM   11  O   UNL     1     -10.858   6.946  66.964  1.00  0.00    -0.345 OA 
BRANCH  10  12
HETATM   12  C   UNL     1      -8.878   6.501  65.674  1.00  0.00    -0.057 C  
BRANCH  12  13
HETATM   13  C   UNL     1      -7.895   5.701  66.524  1.00  0.00    -0.101 C  
HETATM   14  O   UNL     1      -9.827   4.034  67.242  1.00  0.00    -0.189 OA 
HETATM   15  S   UNL     1      -8.459   4.048  66.786  1.00  0.00    -0.105 S  
HETATM   16  O   UNL     1      -8.461   3.576  65.240  1.00  0.00    -0.104 OA 
HETATM   17  O   UNL     1      -7.423   3.254  67.406  1.00  0.00    -0.061 OA 
BRANCH  13  18
HETATM   18  C   UNL     1      -7.721   6.341  67.865  1.00  0.00    -0.103 C  
HETATM   19  O   UNL     1      -6.989   7.297  68.081  1.00  0.00    -0.071 OA 
BRANCH  18  20
HETATM   20  O   UNL     1      -8.336   5.605  68.834  1.00  0.00    -0.102 OA 
BRANCH  20  21
HETATM   21  C   UNL     1      -9.072   6.371  69.803  1.00  0.00    -0.141 C  
HETATM   22  C   UNL     1     -10.324   5.666  70.358  1.00  0.00    -0.330 C  
HETATM   23  C   UNL     1      -9.998   4.290  70.978  1.00  0.00    -0.223 C  
HETATM   24  C   UNL     1     -11.085   6.566  71.359  1.00  0.00    -0.315 C  
HETATM   25  C   UNL     1      -9.103   4.327  72.210  1.00  0.00    -0.146 C  
BRANCH  24  26
HETATM   26  C   UNL     1     -11.545   7.900  70.763  1.00  0.00    -0.258 C  
BRANCH  26  27
HETATM   27  C   UNL     1     -11.601   9.001  71.823  1.00  0.00    -0.444 C  
HETATM   28  C   UNL     1     -12.995   9.608  71.903  1.00  0.00    -0.527 C  
ENDBRANCH  26  27
ENDBRANCH  24  26
ENDBRANCH  20  21
ENDBRANCH  18  20
ENDBRANCH  13  18
ENDBRANCH  12  13
ENDBRANCH  10  12
ENDBRANCH   9  10
ENDBRANCH   7   9
ENDBRANCH   3   4
ENDBRANCH   2   3
TORSDOF 11
ENDMDL
MODEL      258
REMARK 921   NORMALIZED FREE ENERGY PREDICTED BY IDOCK:   -3.12 KCAL/MOL
REMARK 922        TOTAL FREE ENERGY PREDICTED BY IDOCK:   -7.37 KCAL/MOL
REMARK 923 INTER-LIGAND FREE ENERGY PREDICTED BY IDOCK:   -5.75 KCAL/MOL
REMARK 924 INTRA-LIGAND FREE ENERGY PREDICTED BY IDOCK:   -1.63 KCAL/MOL
REMARK 927      BINDING AFFINITY PREDICTED BY RF-SCORE:    0.00 PKD
ROOT
HETATM    1  C   UNL     1      -8.024   9.850  63.604  1.00  0.00    -0.147 C  
HETATM    2  C   UNL     1      -8.896  10.152  64.815  1.00  0.00    -0.219 C  
ENDROOT
BRANCH   2   3
HETATM    3  C   UNL     1      -9.817  11.341  64.543  1.00  0.00    -0.317 C  
BRANCH   3   4
HETATM    4  C   UNL     1     -10.964  11.429  65.558  1.00  0.00    -0.248 C  
HETATM    5  C   UNL     1     -10.485  11.681  67.005  1.00  0.00    -0.258 C  
HETATM    6  C   UNL     1      -9.595  12.934  67.172  1.00  0.00    -0.225 C  
HETATM    7  C   UNL     1     -11.689  11.702  67.970  1.00  0.00    -0.281 C  
HETATM    8  C   UNL     1     -10.307  14.259  66.935  1.00  0.00    -0.268 C  
BRANCH   7   9
HETATM    9  O   UNL     1     -11.213  11.967  69.302  1.00  0.00    -0.244 OA 
BRANCH   9  10
HETATM   10  C   UNL     1     -11.353  10.952  70.194  1.00  0.00    -0.284 C  
HETATM   11  O   UNL     1     -12.189  10.911  71.085  1.00  0.00    -0.352 OA 
BRANCH  10  12
HETATM   12  C   UNL     1     -10.479   9.782  69.827  1.00  0.00    -0.278 C  
BRANCH  12  13
HETATM   13  C   UNL     1      -9.295   9.577  70.767  1.00  0.00    -0.150 C  
HETATM   14  O   UNL     1      -7.699   9.103  68.704  1.00  0.00    -0.090 OA 
HETATM   15  S   UNL     1      -7.756   9.840  69.941  1.00  0.00    -0.171 S  
HETATM   16  O   UNL     1      -7.980  11.397  69.565  1.00  0.00     0.152 OA 
HETATM   17  O   UNL     1      -6.668   9.851  70.892  1.00  0.00    -0.265 OA 
BRANCH  13  18
HETATM   18  C   UNL     1      -9.289   8.181  71.305  1.00  0.00    -0.156 C  
HETATM   19  O   UNL     1      -8.534   7.786  72.184  1.00  0.00    -0.111 OA 
BRANCH  18  20
HETATM   20  O   UNL     1     -10.099   7.375  70.563  1.00  0.00    -0.191 OA 
BRANCH  20  21
HETATM   21  C   UNL     1      -9.414   6.393  69.766  1.00  0.00    -0.152 C  
HETATM   22  C   UNL     1     -10.339   5.498  68.921  1.00  0.00    -0.289 C  
HETATM   23  C   UNL     1     -11.261   6.316  67.991  1.00  0.00    -0.223 C  
HETATM   24  C   UNL     1      -9.536   4.441  68.127  1.00  0.00    -0.207 C  
HETATM   25  C   UNL     1     -10.549   7.117  66.909  1.00  0.00    -0.371 C  
BRANCH  24  26
HETATM   26  C   UNL     1      -8.693   3.515  69.009  1.00  0.00    -0.139 C  
BRANCH  26  27
HETATM   27  C   UNL     1      -9.571   2.634  69.899  1.00  0.00    -0.072 C  
HETATM   28  C   UNL     1      -9.223   2.831  71.369  1.00  0.00    -0.190 C  
ENDBRANCH  26  27
ENDBRANCH  24  26
ENDBRANCH  20  21
ENDBRANCH  18  20
ENDBRANCH  13  18
ENDBRANCH  12  13
ENDBRANCH  10  12
ENDBRANCH   9  10
ENDBRANCH   7   9
ENDBRANCH   3   4
ENDBRANCH   2   3
TORSDOF 11
ENDMDL
MODEL      259
REMARK 921   NORMALIZED FREE ENERGY PREDICTED BY IDOCK:   -3.12 KCAL/MOL
REMARK 922        TOTAL FREE ENERGY PREDICTED BY IDOCK:   -7.37 KCAL/MOL
REMARK 923 INTER-LIGAND FREE ENERGY PREDICTED BY IDOCK:   -6.23 KCAL/MOL
REMARK 924 INTRA-LIGAND FREE ENERGY PREDICTED BY IDOCK:   -1.14 KCAL/MOL
REMARK 927      BINDING AFFINITY PREDICTED BY RF-SCORE:    0.00 PKD
ROOT
HETATM    1  C   UNL     1     -11.215  15.948  64.625  1.00  0.00    -0.361 C  
HETATM    2  C   UNL     1     -12.002  14.653  64.479  1.00  0.00    -0.473 C  
ENDROOT
BRANCH   2   3
HETATM    3  C   UNL     1     -11.065  13.450  64.380  1.00  0.00    -0.408 C  
BRANCH   3   4
HETATM    4  C   UNL     1     -10.620  12.946  65.758  1.00  0.00    -0.293 C  
HETATM    5  C   UNL     1     -11.024  11.481  66.035  1.00  0.00    -0.316 C  
HETATM    6  C   UNL     1     -10.533  10.472  64.971  1.00  0.00    -0.221 C  
HETATM    7  C   UNL     1     -10.590  11.067  67.458  1.00  0.00    -0.227 C  
HETATM    8  C   UNL     1      -9.024  10.284  64.918  1.00  0.00    -0.231 C  
BRANCH   7   9
HETATM    9  O   UNL     1     -10.955   9.691  67.673  1.00  0.00    -0.268 OA 
BRANCH   9  10
HETATM   10  C   UNL     1     -10.102   8.966  68.444  1.00  0.00    -0.189 C  
HETATM   11  O   UNL     1      -8.991   8.592  68.100  1.00  0.00    -0.141 OA 
BRANCH  10  12
HETATM   12  C   UNL     1     -10.613   8.848  69.856  1.00  0.00    -0.229 C  
BRANCH  12  13
HETATM   13  C   UNL     1     -11.332   7.533  70.145  1.00  0.00    -0.151 C  
HETATM   14  O   UNL     1     -11.605   8.208  72.694  1.00  0.00    -0.397 OA 
HETATM   15  S   UNL     1     -12.343   7.649  71.588  1.00  0.00    -0.337 S  
HETATM   16  O   UNL     1     -13.350   8.795  71.052  1.00  0.00    -0.105 OA 
HETATM   17  O   UNL     1     -13.171   6.472  71.720  1.00  0.00    -0.190 OA 
BRANCH  13  18
HETATM   18  C   UNL     1     -10.342   6.434  70.369  1.00  0.00    -0.205 C  
HETATM   19  O   UNL     1     -10.415   5.328  69.852  1.00  0.00    -0.297 OA 
BRANCH  18  20
HETATM   20  O   UNL     1      -9.467   6.768  71.360  1.00  0.00    -0.161 OA 
BRANCH  20  21
HETATM   21  C   UNL     1      -8.703   5.671  71.890  1.00  0.00    -0.135 C  
HETATM   22  C   UNL     1      -8.755   5.539  73.424  1.00  0.00    -0.114 C  
HETATM   23  C   UNL     1     -10.200   5.422  73.956  1.00  0.00    -0.273 C  
HETATM   24  C   UNL     1      -7.877   4.368  73.923  1.00  0.00    -0.089 C  
HETATM   25  C   UNL     1     -10.954   4.172  73.521  1.00  0.00    -0.360 C  
BRANCH  24  26
HETATM   26  C   UNL     1      -6.401   4.492  73.530  1.00  0.00    -0.046 C  
BRANCH  26  27
HETATM   27  C   UNL     1      -5.708   3.129  73.510  1.00  0.00     0.000 C  
HETATM   28  C   UNL     1      -6.218   2.278  72.354  1.00  0.00    -0.013 C  
ENDBRANCH  26  27
ENDBRANCH  24  26
ENDBRANCH  20  21
ENDBRANCH  18  20
ENDBRANCH  13  18
ENDBRANCH  12  13
ENDBRANCH  10  12
ENDBRANCH   9  10
ENDBRANCH   7   9
ENDBRANCH   3   4
ENDBRANCH   2   3
TORSDOF 11
ENDMDL
MODEL      260
REMARK 921   NORMALIZED FREE ENERGY PREDICTED BY IDOCK:   -3.11 KCAL/MOL
REMARK 922        TOTAL FREE ENERGY PREDICTED BY IDOCK:   -7.36 KCAL/MOL
REMARK 923 INTER-LIGAND FREE ENERGY PREDICTED BY IDOCK:   -6.57 KCAL/MOL
REMARK 924 INTRA-LIGAND FREE ENERGY PREDICTED BY IDOCK:   -0.78 KCAL/MOL
REMARK 927      BINDING AFFINITY PREDICTED BY RF-SCORE:    0.00 PKD
ROOT
HETATM    1  C   UNL     1     -10.538   4.600  73.836  1.00  0.00    -0.337 C  
HETATM    2  C   UNL     1     -10.921   4.937  72.401  1.00  0.00    -0.159 C  
ENDROOT
BRANCH   2   3
HETATM    3  C   UNL     1     -10.062   6.079  71.858  1.00  0.00    -0.223 C  
BRANCH   3   4
HETATM    4  C   UNL     1     -10.856   7.014  70.938  1.00  0.00    -0.268 C  
HETATM    5  C   UNL     1     -10.822   8.491  71.387  1.00  0.00    -0.327 C  
HETATM    6  C   UNL     1      -9.400   9.074  71.557  1.00  0.00    -0.294 C  
HETATM    7  C   UNL     1     -11.685   9.357  70.444  1.00  0.00    -0.144 C  
HETATM    8  C   UNL     1      -8.609   9.213  70.265  1.00  0.00    -0.218 C  
BRANCH   7   9
HETATM    9  O   UNL     1     -11.609  10.729  70.873  1.00  0.00    -0.306 OA 
BRANCH   9  10
HETATM   10  C   UNL     1     -12.757  11.256  71.376  1.00  0.00    -0.396 C  
HETATM   11  O   UNL     1     -13.334  10.854  72.376  1.00  0.00    -0.258 OA 
BRANCH  10  12
HETATM   12  C   UNL     1     -13.129  12.528  70.662  1.00  0.00     0.296 C  
BRANCH  12  13
HETATM   13  C   UNL     1     -12.062  13.617  70.744  1.00  0.00    -0.295 C  
HETATM   14  O   UNL     1     -13.937  15.489  70.830  1.00  0.00    -0.489 OA 
HETATM   15  S   UNL     1     -12.700  15.099  71.461  1.00  0.00    -0.397 S  
HETATM   16  O   UNL     1     -13.071  14.492  72.913  1.00  0.00    -0.467 OA 
HETATM   17  O   UNL     1     -11.630  16.034  71.722  1.00  0.00    -0.444 OA 
BRANCH  13  18
HETATM   18  C   UNL     1     -11.553  13.954  69.378  1.00  0.00    -0.297 C  
HETATM   19  O   UNL     1     -12.263  14.062  68.388  1.00  0.00    -0.332 OA 
BRANCH  18  20
HETATM   20  O   UNL     1     -10.190  13.941  69.354  1.00  0.00     0.046 OA 
BRANCH  20  21
HETATM   21  C   UNL     1      -9.593  14.738  68.317  1.00  0.00    -0.215 C  
HETATM   22  C   UNL     1      -8.717  15.897  68.827  1.00  0.00    -0.213 C  
HETATM   23  C   UNL     1      -7.593  15.414  69.770  1.00  0.00    -0.091 C  
HETATM   24  C   UNL     1      -8.146  16.734  67.658  1.00  0.00    -0.188 C  
HETATM   25  C   UNL     1      -6.551  14.507  69.129  1.00  0.00    -0.111 C  
BRANCH  24  26
HETATM   26  C   UNL     1      -9.222  17.345  66.755  1.00  0.00    -0.274 C  
BRANCH  26  27
HETATM   27  C   UNL     1      -9.586  16.409  65.601  1.00  0.00    -0.111 C  
HETATM   28  C   UNL     1     -11.064  16.045  65.644  1.00  0.00    -0.063 C  
ENDBRANCH  26  27
ENDBRANCH  24  26
ENDBRANCH  20  21
ENDBRANCH  18  20
ENDBRANCH  13  18
ENDBRANCH  12  13
ENDBRANCH  10  12
ENDBRANCH   9  10
ENDBRANCH   7   9
ENDBRANCH   3   4
ENDBRANCH   2   3
TORSDOF 11
ENDMDL
MODEL      261
REMARK 921   NORMALIZED FREE ENERGY PREDICTED BY IDOCK:   -3.11 KCAL/MOL
REMARK 922        TOTAL FREE ENERGY PREDICTED BY IDOCK:   -7.36 KCAL/MOL
REMARK 923 INTER-LIGAND FREE ENERGY PREDICTED BY IDOCK:   -5.91 KCAL/MOL
REMARK 924 INTRA-LIGAND FREE ENERGY PREDICTED BY IDOCK:   -1.45 KCAL/MOL
REMARK 927      BINDING AFFINITY PREDICTED BY RF-SCORE:    0.00 PKD
ROOT
HETATM    1  C   UNL     1      -6.005  20.091  71.328  1.00  0.00    -0.305 C  
HETATM    2  C   UNL     1      -5.197  18.894  70.845  1.00  0.00    -0.264 C  
ENDROOT
BRANCH   2   3
HETATM    3  C   UNL     1      -5.256  18.771  69.323  1.00  0.00    -0.198 C  
BRANCH   3   4
HETATM    4  C   UNL     1      -5.398  17.314  68.865  1.00  0.00    -0.149 C  
HETATM    5  C   UNL     1      -6.830  16.759  69.021  1.00  0.00    -0.218 C  
HETATM    6  C   UNL     1      -7.920  17.596  68.313  1.00  0.00    -0.272 C  
HETATM    7  C   UNL     1      -6.879  15.277  68.591  1.00  0.00    -0.109 C  
HETATM    8  C   UNL     1      -7.841  17.591  66.793  1.00  0.00    -0.264 C  
BRANCH   7   9
HETATM    9  O   UNL     1      -8.230  14.798  68.722  1.00  0.00    -0.151 OA 
BRANCH   9  10
HETATM   10  C   UNL     1      -8.643  13.923  67.768  1.00  0.00    -0.182 C  
HETATM   11  O   UNL     1      -7.925  13.111  67.203  1.00  0.00    -0.157 OA 
BRANCH  10  12
HETATM   12  C   UNL     1     -10.143  13.936  67.631  1.00  0.00    -0.241 C  
BRANCH  12  13
HETATM   13  C   UNL     1     -10.734  12.604  67.180  1.00  0.00    -0.241 C  
HETATM   14  O   UNL     1     -12.781  13.858  66.056  1.00  0.00    -0.463 OA 
HETATM   15  S   UNL     1     -11.824  12.809  65.806  1.00  0.00    -0.449 S  
HETATM   16  O   UNL     1     -10.739  13.387  64.756  1.00  0.00    -0.343 OA 
HETATM   17  O   UNL     1     -12.202  11.523  65.265  1.00  0.00     0.038 OA 
BRANCH  13  18
HETATM   18  C   UNL     1     -11.514  11.974  68.290  1.00  0.00    -0.303 C  
HETATM   19  O   UNL     1     -12.150  12.603  69.125  1.00  0.00    -0.249 OA 
BRANCH  18  20
HETATM   20  O   UNL     1     -11.269  10.635  68.353  1.00  0.00    -0.254 OA 
BRANCH  20  21
HETATM   21  C   UNL     1      -9.884  10.264  68.232  1.00  0.00    -0.146 C  
HETATM   22  C   UNL     1      -9.535   8.892  68.837  1.00  0.00    -0.152 C  
HETATM   23  C   UNL     1     -10.392   7.752  68.244  1.00  0.00    -0.239 C  
HETATM   24  C   UNL     1      -8.025   8.583  68.709  1.00  0.00    -0.119 C  
HETATM   25  C   UNL     1     -10.185   7.488  66.759  1.00  0.00    -0.324 C  
BRANCH  24  26
HETATM   26  C   UNL     1      -7.124   9.618  69.388  1.00  0.00    -0.062 C  
BRANCH  26  27
HETATM   27  C   UNL     1      -5.799   9.002  69.838  1.00  0.00    -0.031 C  
HETATM   28  C   UNL     1      -5.413   9.496  71.226  1.00  0.00    -0.064 C  
ENDBRANCH  26  27
ENDBRANCH  24  26
ENDBRANCH  20  21
ENDBRANCH  18  20
ENDBRANCH  13  18
ENDBRANCH  12  13
ENDBRANCH  10  12
ENDBRANCH   9  10
ENDBRANCH   7   9
ENDBRANCH   3   4
ENDBRANCH   2   3
TORSDOF 11
ENDMDL
MODEL      262
REMARK 921   NORMALIZED FREE ENERGY PREDICTED BY IDOCK:   -3.10 KCAL/MOL
REMARK 922        TOTAL FREE ENERGY PREDICTED BY IDOCK:   -7.35 KCAL/MOL
REMARK 923 INTER-LIGAND FREE ENERGY PREDICTED BY IDOCK:   -6.39 KCAL/MOL
REMARK 924 INTRA-LIGAND FREE ENERGY PREDICTED BY IDOCK:   -0.96 KCAL/MOL
REMARK 927      BINDING AFFINITY PREDICTED BY RF-SCORE:    0.00 PKD
ROOT
HETATM    1  C   UNL     1      -8.168  17.529  68.239  1.00  0.00    -0.263 C  
HETATM    2  C   UNL     1      -9.090  16.692  67.363  1.00  0.00    -0.206 C  
ENDROOT
BRANCH   2   3
HETATM    3  C   UNL     1     -10.249  16.119  68.178  1.00  0.00    -0.247 C  
BRANCH   3   4
HETATM    4  C   UNL     1     -11.337  15.508  67.287  1.00  0.00    -0.167 C  
HETATM    5  C   UNL     1     -11.086  14.024  66.942  1.00  0.00    -0.310 C  
HETATM    6  C   UNL     1     -10.898  13.106  68.172  1.00  0.00    -0.271 C  
HETATM    7  C   UNL     1     -12.193  13.499  66.002  1.00  0.00    -0.445 C  
HETATM    8  C   UNL     1     -12.140  12.931  69.033  1.00  0.00    -0.198 C  
BRANCH   7   9
HETATM    9  O   UNL     1     -11.945  12.109  65.723  1.00  0.00    -0.536 OA 
BRANCH   9  10
HETATM   10  C   UNL     1     -11.279  11.846  64.568  1.00  0.00    -0.319 C  
HETATM   11  O   UNL     1     -11.157  12.627  63.636  1.00  0.00    -0.429 OA 
BRANCH  10  12
HETATM   12  C   UNL     1     -10.534  10.540  64.655  1.00  0.00    -0.181 C  
BRANCH  12  13
HETATM   13  C   UNL     1      -9.175  10.649  65.340  1.00  0.00    -0.193 C  
HETATM   14  O   UNL     1      -8.277   8.576  63.952  1.00  0.00    -0.160 OA 
HETATM   15  S   UNL     1      -7.900   9.902  64.372  1.00  0.00    -0.146 S  
HETATM   16  O   UNL     1      -8.017  10.868  63.082  1.00  0.00    -0.003 OA 
HETATM   17  O   UNL     1      -6.601  10.202  64.932  1.00  0.00    -0.121 OA 
BRANCH  13  18
HETATM   18  C   UNL     1      -9.200   9.961  66.668  1.00  0.00    -0.153 C  
HETATM   19  O   UNL     1      -8.240   9.386  67.163  1.00  0.00    -0.112 OA 
BRANCH  18  20
HETATM   20  O   UNL     1     -10.472   9.903  67.156  1.00  0.00    -0.230 OA 
BRANCH  20  21
HETATM   21  C   UNL     1     -10.823   8.659  67.788  1.00  0.00    -0.005 C  
HETATM   22  C   UNL     1     -10.120   8.405  69.134  1.00  0.00    -0.206 C  
HETATM   23  C   UNL     1     -10.361   9.545  70.148  1.00  0.00    -0.300 C  
HETATM   24  C   UNL     1     -10.513   7.033  69.729  1.00  0.00    -0.235 C  
HETATM   25  C   UNL     1     -11.806   9.725  70.592  1.00  0.00    -0.360 C  
BRANCH  24  26
HETATM   26  C   UNL     1     -10.183   5.847  68.817  1.00  0.00    -0.243 C  
BRANCH  26  27
HETATM   27  C   UNL     1      -9.775   4.614  69.623  1.00  0.00    -0.283 C  
HETATM   28  C   UNL     1      -8.267   4.408  69.574  1.00  0.00    -0.065 C  
ENDBRANCH  26  27
ENDBRANCH  24  26
ENDBRANCH  20  21
ENDBRANCH  18  20
ENDBRANCH  13  18
ENDBRANCH  12  13
ENDBRANCH  10  12
ENDBRANCH   9  10
ENDBRANCH   7   9
ENDBRANCH   3   4
ENDBRANCH   2   3
TORSDOF 11
ENDMDL
MODEL      263
REMARK 921   NORMALIZED FREE ENERGY PREDICTED BY IDOCK:   -3.09 KCAL/MOL
REMARK 922        TOTAL FREE ENERGY PREDICTED BY IDOCK:   -7.33 KCAL/MOL
REMARK 923 INTER-LIGAND FREE ENERGY PREDICTED BY IDOCK:   -6.97 KCAL/MOL
REMARK 924 INTRA-LIGAND FREE ENERGY PREDICTED BY IDOCK:   -0.36 KCAL/MOL
REMARK 927      BINDING AFFINITY PREDICTED BY RF-SCORE:    0.00 PKD
ROOT
HETATM    1  C   UNL     1     -11.539   4.952  73.134  1.00  0.00    -0.300 C  
HETATM    2  C   UNL     1     -10.082   4.569  72.912  1.00  0.00    -0.206 C  
ENDROOT
BRANCH   2   3
HETATM    3  C   UNL     1      -9.814   4.265  71.439  1.00  0.00    -0.260 C  
BRANCH   3   4
HETATM    4  C   UNL     1     -10.314   5.383  70.516  1.00  0.00    -0.344 C  
HETATM    5  C   UNL     1      -9.689   6.760  70.827  1.00  0.00    -0.187 C  
HETATM    6  C   UNL     1      -8.143   6.778  70.813  1.00  0.00    -0.118 C  
HETATM    7  C   UNL     1     -10.281   7.839  69.894  1.00  0.00    -0.213 C  
HETATM    8  C   UNL     1      -7.515   6.549  69.446  1.00  0.00    -0.094 C  
BRANCH   7   9
HETATM    9  O   UNL     1      -9.659   9.102  70.190  1.00  0.00    -0.179 OA 
BRANCH   9  10
HETATM   10  C   UNL     1      -9.143   9.772  69.126  1.00  0.00    -0.165 C  
HETATM   11  O   UNL     1      -8.334  10.685  69.198  1.00  0.00    -0.151 OA 
BRANCH  10  12
HETATM   12  C   UNL     1      -9.540   9.119  67.829  1.00  0.00    -0.173 C  
BRANCH  12  13
HETATM   13  C   UNL     1     -10.506   9.949  66.989  1.00  0.00    -0.230 C  
HETATM   14  O   UNL     1      -8.475  11.245  65.881  1.00  0.00    -0.150 OA 
HETATM   15  S   UNL     1      -9.719  10.597  65.546  1.00  0.00    -0.257 S  
HETATM   16  O   UNL     1      -9.355   9.185  64.848  1.00  0.00    -0.161 OA 
HETATM   17  O   UNL     1     -10.696  11.195  64.665  1.00  0.00    -0.325 OA 
BRANCH  13  18
HETATM   18  C   UNL     1     -11.028  11.105  67.781  1.00  0.00    -0.262 C  
HETATM   19  O   UNL     1     -12.107  11.112  68.358  1.00  0.00    -0.605 OA 
BRANCH  18  20
HETATM   20  O   UNL     1     -10.233  12.200  67.618  1.00  0.00    -0.193 OA 
BRANCH  20  21
HETATM   21  C   UNL     1     -10.788  13.433  68.108  1.00  0.00    -0.255 C  
HETATM   22  C   UNL     1     -10.653  14.623  67.141  1.00  0.00    -0.282 C  
HETATM   23  C   UNL     1     -11.275  14.331  65.757  1.00  0.00    -0.317 C  
HETATM   24  C   UNL     1     -11.232  15.920  67.753  1.00  0.00    -0.258 C  
HETATM   25  C   UNL     1     -12.781  14.111  65.755  1.00  0.00    -0.443 C  
BRANCH  24  26
HETATM   26  C   UNL     1     -10.567  16.331  69.070  1.00  0.00    -0.286 C  
BRANCH  26  27
HETATM   27  C   UNL     1      -9.177  16.925  68.837  1.00  0.00    -0.229 C  
HETATM   28  C   UNL     1      -9.261  18.427  68.598  1.00  0.00    -0.328 C  
ENDBRANCH  26  27
ENDBRANCH  24  26
ENDBRANCH  20  21
ENDBRANCH  18  20
ENDBRANCH  13  18
ENDBRANCH  12  13
ENDBRANCH  10  12
ENDBRANCH   9  10
ENDBRANCH   7   9
ENDBRANCH   3   4
ENDBRANCH   2   3
TORSDOF 11
ENDMDL
MODEL      264
REMARK 921   NORMALIZED FREE ENERGY PREDICTED BY IDOCK:   -3.07 KCAL/MOL
REMARK 922        TOTAL FREE ENERGY PREDICTED BY IDOCK:   -7.29 KCAL/MOL
REMARK 923 INTER-LIGAND FREE ENERGY PREDICTED BY IDOCK:   -6.01 KCAL/MOL
REMARK 924 INTRA-LIGAND FREE ENERGY PREDICTED BY IDOCK:   -1.28 KCAL/MOL
REMARK 927      BINDING AFFINITY PREDICTED BY RF-SCORE:    0.00 PKD
ROOT
HETATM    1  C   UNL     1     -11.672  14.307  69.332  1.00  0.00    -0.363 C  
HETATM    2  C   UNL     1     -10.332  14.866  68.874  1.00  0.00    -0.244 C  
ENDROOT
BRANCH   2   3
HETATM    3  C   UNL     1     -10.100  14.586  67.390  1.00  0.00    -0.235 C  
BRANCH   3   4
HETATM    4  C   UNL     1      -9.329  13.280  67.161  1.00  0.00    -0.240 C  
HETATM    5  C   UNL     1     -10.245  12.059  66.928  1.00  0.00    -0.230 C  
HETATM    6  C   UNL     1     -11.256  12.232  65.771  1.00  0.00    -0.378 C  
HETATM    7  C   UNL     1      -9.398  10.779  66.759  1.00  0.00    -0.161 C  
HETATM    8  C   UNL     1     -10.632  12.314  64.385  1.00  0.00    -0.360 C  
BRANCH   7   9
HETATM    9  O   UNL     1     -10.279   9.667  66.516  1.00  0.00    -0.239 OA 
BRANCH   9  10
HETATM   10  C   UNL     1      -9.960   8.509  67.152  1.00  0.00    -0.238 C  
HETATM   11  O   UNL     1      -9.837   7.421  66.608  1.00  0.00    -0.209 OA 
BRANCH  10  12
HETATM   12  C   UNL     1      -9.578   8.764  68.586  1.00  0.00    -0.159 C  
BRANCH  12  13
HETATM   13  C   UNL     1     -10.638   8.330  69.594  1.00  0.00    -0.222 C  
HETATM   14  O   UNL     1      -9.336   9.570  71.542  1.00  0.00    -0.200 OA 
HETATM   15  S   UNL     1     -10.662   9.389  71.007  1.00  0.00    -0.354 S  
HETATM   16  O   UNL     1     -11.064  10.756  70.242  1.00  0.00    -0.276 OA 
HETATM   17  O   UNL     1     -11.805   9.092  71.840  1.00  0.00    -0.344 OA 
BRANCH  13  18
HETATM   18  C   UNL     1     -10.367   6.939  70.073  1.00  0.00    -0.200 C  
HETATM   19  O   UNL     1     -11.203   6.045  70.098  1.00  0.00    -0.363 OA 
BRANCH  18  20
HETATM   20  O   UNL     1      -9.132   6.857  70.644  1.00  0.00    -0.154 OA 
BRANCH  20  21
HETATM   21  C   UNL     1      -8.977   5.803  71.610  1.00  0.00    -0.136 C  
HETATM   22  C   UNL     1      -7.780   4.870  71.350  1.00  0.00    -0.088 C  
HETATM   23  C   UNL     1      -6.443   5.640  71.259  1.00  0.00    -0.044 C  
HETATM   24  C   UNL     1      -7.705   3.738  72.401  1.00  0.00    -0.068 C  
HETATM   25  C   UNL     1      -6.008   6.340  72.540  1.00  0.00    -0.038 C  
BRANCH  24  26
HETATM   26  C   UNL     1      -8.958   2.859  72.452  1.00  0.00    -0.116 C  
BRANCH  26  27
HETATM   27  C   UNL     1      -9.395   2.586  73.892  1.00  0.00    -0.096 C  
HETATM   28  C   UNL     1     -10.567   3.476  74.282  1.00  0.00    -0.256 C  
ENDBRANCH  26  27
ENDBRANCH  24  26
ENDBRANCH  20  21
ENDBRANCH  18  20
ENDBRANCH  13  18
ENDBRANCH  12  13
ENDBRANCH  10  12
ENDBRANCH   9  10
ENDBRANCH   7   9
ENDBRANCH   3   4
ENDBRANCH   2   3
TORSDOF 11
ENDMDL
MODEL      265
REMARK 921   NORMALIZED FREE ENERGY PREDICTED BY IDOCK:   -3.07 KCAL/MOL
REMARK 922        TOTAL FREE ENERGY PREDICTED BY IDOCK:   -7.29 KCAL/MOL
REMARK 923 INTER-LIGAND FREE ENERGY PREDICTED BY IDOCK:   -5.75 KCAL/MOL
REMARK 924 INTRA-LIGAND FREE ENERGY PREDICTED BY IDOCK:   -1.54 KCAL/MOL
REMARK 927      BINDING AFFINITY PREDICTED BY RF-SCORE:    0.00 PKD
ROOT
HETATM    1  C   UNL     1     -10.733  16.666  65.432  1.00  0.00    -0.228 C  
HETATM    2  C   UNL     1     -11.294  15.324  64.983  1.00  0.00    -0.359 C  
ENDROOT
BRANCH   2   3
HETATM    3  C   UNL     1     -10.178  14.294  64.808  1.00  0.00    -0.284 C  
BRANCH   3   4
HETATM    4  C   UNL     1      -9.925  13.490  66.089  1.00  0.00    -0.310 C  
HETATM    5  C   UNL     1     -10.868  12.277  66.248  1.00  0.00    -0.313 C  
HETATM    6  C   UNL     1     -10.853  11.297  65.053  1.00  0.00    -0.285 C  
HETATM    7  C   UNL     1     -10.588  11.554  67.583  1.00  0.00    -0.199 C  
HETATM    8  C   UNL     1      -9.545  10.542  64.862  1.00  0.00    -0.334 C  
BRANCH   7   9
HETATM    9  O   UNL     1     -11.462  10.414  67.687  1.00  0.00    -0.401 OA 
BRANCH   9  10
HETATM   10  C   UNL     1     -10.855   9.224  67.936  1.00  0.00    -0.118 C  
HETATM   11  O   UNL     1     -10.800   8.288  67.152  1.00  0.00    -0.244 OA 
BRANCH  10  12
HETATM   12  C   UNL     1     -10.081   9.267  69.226  1.00  0.00    -0.201 C  
BRANCH  12  13
HETATM   13  C   UNL     1     -10.330   8.068  70.137  1.00  0.00    -0.215 C  
HETATM   14  O   UNL     1      -9.098   9.295  72.138  1.00  0.00    -0.197 OA 
HETATM   15  S   UNL     1     -10.281   8.527  71.842  1.00  0.00    -0.326 S  
HETATM   16  O   UNL     1     -11.529   9.555  71.823  1.00  0.00    -0.384 OA 
HETATM   17  O   UNL     1     -10.727   7.431  72.672  1.00  0.00    -0.239 OA 
BRANCH  13  18
HETATM   18  C   UNL     1      -9.287   7.019  69.918  1.00  0.00    -0.150 C  
HETATM   19  O   UNL     1      -9.359   5.878  70.354  1.00  0.00    -0.155 OA 
BRANCH  18  20
HETATM   20  O   UNL     1      -8.178   7.555  69.336  1.00  0.00    -0.126 OA 
BRANCH  20  21
HETATM   21  C   UNL     1      -7.715   6.866  68.162  1.00  0.00    -0.113 C  
HETATM   22  C   UNL     1      -7.600   7.750  66.906  1.00  0.00    -0.099 C  
HETATM   23  C   UNL     1      -6.692   8.979  67.133  1.00  0.00    -0.066 C  
HETATM   24  C   UNL     1      -7.140   6.932  65.676  1.00  0.00    -0.068 C  
HETATM   25  C   UNL     1      -5.229   8.663  67.414  1.00  0.00    -0.034 C  
BRANCH  24  26
HETATM   26  C   UNL     1      -8.072   5.768  65.325  1.00  0.00    -0.130 C  
BRANCH  26  27
HETATM   27  C   UNL     1      -7.357   4.422  65.434  1.00  0.00    -0.073 C  
HETATM   28  C   UNL     1      -8.091   3.492  66.391  1.00  0.00    -0.096 C  
ENDBRANCH  26  27
ENDBRANCH  24  26
ENDBRANCH  20  21
ENDBRANCH  18  20
ENDBRANCH  13  18
ENDBRANCH  12  13
ENDBRANCH  10  12
ENDBRANCH   9  10
ENDBRANCH   7   9
ENDBRANCH   3   4
ENDBRANCH   2   3
TORSDOF 11
ENDMDL
MODEL      266
REMARK 921   NORMALIZED FREE ENERGY PREDICTED BY IDOCK:   -3.06 KCAL/MOL
REMARK 922        TOTAL FREE ENERGY PREDICTED BY IDOCK:   -7.28 KCAL/MOL
REMARK 923 INTER-LIGAND FREE ENERGY PREDICTED BY IDOCK:   -5.18 KCAL/MOL
REMARK 924 INTRA-LIGAND FREE ENERGY PREDICTED BY IDOCK:   -2.10 KCAL/MOL
REMARK 927      BINDING AFFINITY PREDICTED BY RF-SCORE:    0.00 PKD
ROOT
HETATM    1  C   UNL     1      -8.754  10.953  62.347  1.00  0.00    -0.355 C  
HETATM    2  C   UNL     1      -8.549   9.446  62.411  1.00  0.00    -0.221 C  
ENDROOT
BRANCH   2   3
HETATM    3  C   UNL     1      -7.102   9.105  62.767  1.00  0.00    -0.094 C  
BRANCH   3   4
HETATM    4  C   UNL     1      -6.502  10.098  63.770  1.00  0.00    -0.125 C  
HETATM    5  C   UNL     1      -6.988   9.876  65.219  1.00  0.00    -0.122 C  
HETATM    6  C   UNL     1      -6.755   8.445  65.758  1.00  0.00    -0.053 C  
HETATM    7  C   UNL     1      -6.385  10.944  66.156  1.00  0.00    -0.123 C  
HETATM    8  C   UNL     1      -5.293   8.066  65.949  1.00  0.00    -0.028 C  
BRANCH   7   9
HETATM    9  O   UNL     1      -6.834  10.692  67.500  1.00  0.00    -0.076 OA 
BRANCH   9  10
HETATM   10  C   UNL     1      -7.563  11.684  68.076  1.00  0.00    -0.117 C  
HETATM   11  O   UNL     1      -7.194  12.842  68.203  1.00  0.00    -0.091 OA 
BRANCH  10  12
HETATM   12  C   UNL     1      -8.969  11.228  68.363  1.00  0.00    -0.167 C  
BRANCH  12  13
HETATM   13  C   UNL     1      -9.905  11.319  67.161  1.00  0.00    -0.190 C  
HETATM   14  O   UNL     1     -11.983  11.678  68.767  1.00  0.00    -0.335 OA 
HETATM   15  S   UNL     1     -11.389  12.190  67.558  1.00  0.00    -0.346 S  
HETATM   16  O   UNL     1     -10.712  13.613  67.918  1.00  0.00    -0.240 OA 
HETATM   17  O   UNL     1     -12.158  12.447  66.361  1.00  0.00    -0.607 OA 
BRANCH  13  18
HETATM   18  C   UNL     1     -10.291   9.951  66.693  1.00  0.00    -0.205 C  
HETATM   19  O   UNL     1     -10.411   9.635  65.517  1.00  0.00    -0.130 OA 
BRANCH  18  20
HETATM   20  O   UNL     1     -10.667   9.170  67.745  1.00  0.00    -0.245 OA 
BRANCH  20  21
HETATM   21  C   UNL     1     -10.198   7.812  67.692  1.00  0.00    -0.219 C  
HETATM   22  C   UNL     1      -9.394   7.365  68.927  1.00  0.00    -0.145 C  
HETATM   23  C   UNL     1     -10.184   7.551  70.241  1.00  0.00    -0.204 C  
HETATM   24  C   UNL     1      -8.886   5.912  68.778  1.00  0.00    -0.111 C  
HETATM   25  C   UNL     1     -11.438   6.696  70.373  1.00  0.00    -0.444 C  
BRANCH  24  26
HETATM   26  C   UNL     1      -7.992   5.693  67.554  1.00  0.00    -0.102 C  
BRANCH  26  27
HETATM   27  C   UNL     1      -6.739   4.891  67.909  1.00  0.00    -0.055 C  
HETATM   28  C   UNL     1      -6.324   5.143  69.352  1.00  0.00    -0.034 C  
ENDBRANCH  26  27
ENDBRANCH  24  26
ENDBRANCH  20  21
ENDBRANCH  18  20
ENDBRANCH  13  18
ENDBRANCH  12  13
ENDBRANCH  10  12
ENDBRANCH   9  10
ENDBRANCH   7   9
ENDBRANCH   3   4
ENDBRANCH   2   3
TORSDOF 11
ENDMDL
MODEL      267
REMARK 921   NORMALIZED FREE ENERGY PREDICTED BY IDOCK:   -3.06 KCAL/MOL
REMARK 922        TOTAL FREE ENERGY PREDICTED BY IDOCK:   -7.28 KCAL/MOL
REMARK 923 INTER-LIGAND FREE ENERGY PREDICTED BY IDOCK:   -5.84 KCAL/MOL
REMARK 924 INTRA-LIGAND FREE ENERGY PREDICTED BY IDOCK:   -1.44 KCAL/MOL
REMARK 927      BINDING AFFINITY PREDICTED BY RF-SCORE:    0.00 PKD
ROOT
HETATM    1  C   UNL     1     -12.889  15.872  72.096  1.00  0.00    -0.491 C  
HETATM    2  C   UNL     1     -12.349  14.524  71.640  1.00  0.00    -0.420 C  
ENDROOT
BRANCH   2   3
HETATM    3  C   UNL     1     -12.508  14.352  70.129  1.00  0.00    -0.395 C  
BRANCH   3   4
HETATM    4  C   UNL     1     -11.574  13.273  69.567  1.00  0.00    -0.349 C  
HETATM    5  C   UNL     1     -11.984  12.777  68.163  1.00  0.00    -0.295 C  
HETATM    6  C   UNL     1     -12.120  13.897  67.106  1.00  0.00    -0.422 C  
HETATM    7  C   UNL     1     -11.030  11.659  67.692  1.00  0.00    -0.239 C  
HETATM    8  C   UNL     1     -10.814  14.582  66.731  1.00  0.00    -0.305 C  
BRANCH   7   9
HETATM    9  O   UNL     1     -11.422  11.239  66.372  1.00  0.00    -0.306 OA 
BRANCH   9  10
HETATM   10  C   UNL     1     -10.412  10.846  65.552  1.00  0.00    -0.219 C  
HETATM   11  O   UNL     1     -10.422  10.938  64.333  1.00  0.00    -0.355 OA 
BRANCH  10  12
HETATM   12  C   UNL     1      -9.188  10.464  66.341  1.00  0.00    -0.187 C  
BRANCH  12  13
HETATM   13  C   UNL     1      -8.188   9.618  65.559  1.00  0.00    -0.126 C  
HETATM   14  O   UNL     1      -7.650   8.193  67.729  1.00  0.00    -0.095 OA 
HETATM   15  S   UNL     1      -7.929   8.046  66.322  1.00  0.00    -0.109 S  
HETATM   16  O   UNL     1      -9.442   7.491  66.186  1.00  0.00    -0.136 OA 
HETATM   17  O   UNL     1      -7.150   7.188  65.459  1.00  0.00    -0.061 OA 
BRANCH  13  18
HETATM   18  C   UNL     1      -6.864  10.310  65.483  1.00  0.00    -0.134 C  
HETATM   19  O   UNL     1      -6.293  10.587  64.437  1.00  0.00    -0.087 OA 
BRANCH  18  20
HETATM   20  O   UNL     1      -6.304  10.418  66.721  1.00  0.00    -0.067 OA 
BRANCH  20  21
HETATM   21  C   UNL     1      -6.004  11.761  67.137  1.00  0.00    -0.140 C  
HETATM   22  C   UNL     1      -6.878  12.282  68.293  1.00  0.00    -0.075 C  
HETATM   23  C   UNL     1      -6.815  11.367  69.536  1.00  0.00    -0.097 C  
HETATM   24  C   UNL     1      -6.529  13.744  68.655  1.00  0.00    -0.093 C  
HETATM   25  C   UNL     1      -5.451  11.276  70.207  1.00  0.00    -0.111 C  
BRANCH  24  26
HETATM   26  C   UNL     1      -6.693  14.724  67.489  1.00  0.00    -0.157 C  
BRANCH  26  27
HETATM   27  C   UNL     1      -7.561  15.921  67.878  1.00  0.00    -0.145 C  
HETATM   28  C   UNL     1      -7.047  16.572  69.155  1.00  0.00    -0.227 C  
ENDBRANCH  26  27
ENDBRANCH  24  26
ENDBRANCH  20  21
ENDBRANCH  18  20
ENDBRANCH  13  18
ENDBRANCH  12  13
ENDBRANCH  10  12
ENDBRANCH   9  10
ENDBRANCH   7   9
ENDBRANCH   3   4
ENDBRANCH   2   3
TORSDOF 11
ENDMDL
MODEL      268
REMARK 921   NORMALIZED FREE ENERGY PREDICTED BY IDOCK:   -3.06 KCAL/MOL
REMARK 922        TOTAL FREE ENERGY PREDICTED BY IDOCK:   -7.28 KCAL/MOL
REMARK 923 INTER-LIGAND FREE ENERGY PREDICTED BY IDOCK:   -5.98 KCAL/MOL
REMARK 924 INTRA-LIGAND FREE ENERGY PREDICTED BY IDOCK:   -1.30 KCAL/MOL
REMARK 927      BINDING AFFINITY PREDICTED BY RF-SCORE:    0.00 PKD
ROOT
HETATM    1  C   UNL     1      -9.723   4.283  72.065  1.00  0.00    -0.227 C  
HETATM    2  C   UNL     1      -9.640   2.938  71.357  1.00  0.00    -0.223 C  
ENDROOT
BRANCH   2   3
HETATM    3  C   UNL     1      -9.085   3.096  69.942  1.00  0.00    -0.196 C  
BRANCH   3   4
HETATM    4  C   UNL     1      -9.781   4.224  69.170  1.00  0.00    -0.226 C  
HETATM    5  C   UNL     1      -9.020   5.567  69.227  1.00  0.00    -0.125 C  
HETATM    6  C   UNL     1      -7.552   5.488  68.749  1.00  0.00    -0.083 C  
HETATM    7  C   UNL     1      -9.808   6.660  68.475  1.00  0.00    -0.139 C  
HETATM    8  C   UNL     1      -7.378   5.194  67.266  1.00  0.00    -0.082 C  
BRANCH   7   9
HETATM    9  O   UNL     1      -9.060   7.889  68.523  1.00  0.00    -0.134 OA 
BRANCH   9  10
HETATM   10  C   UNL     1      -9.263   8.664  69.620  1.00  0.00    -0.157 C  
HETATM   11  O   UNL     1      -8.386   9.248  70.239  1.00  0.00    -0.145 OA 
BRANCH  10  12
HETATM   12  C   UNL     1     -10.733   8.879  69.869  1.00  0.00    -0.236 C  
BRANCH  12  13
HETATM   13  C   UNL     1     -11.072  10.268  70.403  1.00  0.00    -0.319 C  
HETATM   14  O   UNL     1     -13.614   9.570  70.686  1.00  0.00    -0.037 OA 
HETATM   15  S   UNL     1     -12.545  10.246  71.378  1.00  0.00    -0.467 S  
HETATM   16  O   UNL     1     -12.018   9.252  72.539  1.00  0.00    -0.128 OA 
HETATM   17  O   UNL     1     -12.727  11.516  72.044  1.00  0.00    -0.243 OA 
BRANCH  13  18
HETATM   18  C   UNL     1     -11.287  11.225  69.275  1.00  0.00    -0.287 C  
HETATM   19  O   UNL     1     -12.179  11.119  68.444  1.00  0.00    -0.610 OA 
BRANCH  18  20
HETATM   20  O   UNL     1     -10.256  12.113  69.192  1.00  0.00    -0.012 OA 
BRANCH  20  21
HETATM   21  C   UNL     1     -10.317  13.012  68.071  1.00  0.00    -0.234 C  
HETATM   22  C   UNL     1      -9.094  12.952  67.137  1.00  0.00    -0.220 C  
HETATM   23  C   UNL     1      -8.834  11.527  66.599  1.00  0.00    -0.187 C  
HETATM   24  C   UNL     1      -9.210  13.974  65.983  1.00  0.00     0.026 C  
HETATM   25  C   UNL     1      -9.926  10.961  65.702  1.00  0.00    -0.305 C  
BRANCH  24  26
HETATM   26  C   UNL     1      -9.346  15.425  66.455  1.00  0.00    -0.331 C  
BRANCH  26  27
HETATM   27  C   UNL     1     -10.669  16.042  66.000  1.00  0.00    -0.271 C  
HETATM   28  C   UNL     1     -11.392  15.122  65.025  1.00  0.00    -0.381 C  
ENDBRANCH  26  27
ENDBRANCH  24  26
ENDBRANCH  20  21
ENDBRANCH  18  20
ENDBRANCH  13  18
ENDBRANCH  12  13
ENDBRANCH  10  12
ENDBRANCH   9  10
ENDBRANCH   7   9
ENDBRANCH   3   4
ENDBRANCH   2   3
TORSDOF 11
ENDMDL
MODEL      269
REMARK 921   NORMALIZED FREE ENERGY PREDICTED BY IDOCK:   -3.06 KCAL/MOL
REMARK 922        TOTAL FREE ENERGY PREDICTED BY IDOCK:   -7.28 KCAL/MOL
REMARK 923 INTER-LIGAND FREE ENERGY PREDICTED BY IDOCK:   -5.31 KCAL/MOL
REMARK 924 INTRA-LIGAND FREE ENERGY PREDICTED BY IDOCK:   -1.97 KCAL/MOL
REMARK 927      BINDING AFFINITY PREDICTED BY RF-SCORE:    0.00 PKD
ROOT
HETATM    1  C   UNL     1      -6.211  10.502  62.978  1.00  0.00    -0.097 C  
HETATM    2  C   UNL     1      -7.722  10.385  62.831  1.00  0.00    -0.134 C  
ENDROOT
BRANCH   2   3
HETATM    3  C   UNL     1      -8.398  10.273  64.197  1.00  0.00    -0.161 C  
BRANCH   3   4
HETATM    4  C   UNL     1      -7.479   9.638  65.248  1.00  0.00    -0.113 C  
HETATM    5  C   UNL     1      -8.247   8.929  66.386  1.00  0.00    -0.115 C  
HETATM    6  C   UNL     1      -9.247   7.853  65.906  1.00  0.00    -0.102 C  
HETATM    7  C   UNL     1      -7.257   8.365  67.428  1.00  0.00    -0.088 C  
HETATM    8  C   UNL     1      -8.609   6.628  65.266  1.00  0.00    -0.027 C  
BRANCH   7   9
HETATM    9  O   UNL     1      -8.001   7.688  68.457  1.00  0.00    -0.119 OA 
BRANCH   9  10
HETATM   10  C   UNL     1      -8.508   8.479  69.439  1.00  0.00    -0.127 C  
HETATM   11  O   UNL     1      -7.876   9.325  70.054  1.00  0.00    -0.087 OA 
BRANCH  10  12
HETATM   12  C   UNL     1     -10.003   8.325  69.542  1.00  0.00    -0.187 C  
BRANCH  12  13
HETATM   13  C   UNL     1     -10.589   8.858  70.846  1.00  0.00    -0.233 C  
HETATM   14  O   UNL     1     -12.438   6.958  70.826  1.00  0.00    -0.356 OA 
HETATM   15  S   UNL     1     -11.501   7.613  71.704  1.00  0.00    -0.271 S  
HETATM   16  O   UNL     1     -10.277   6.587  71.955  1.00  0.00    -0.192 OA 
HETATM   17  O   UNL     1     -11.864   8.073  73.026  1.00  0.00    -0.264 OA 
BRANCH  13  18
HETATM   18  C   UNL     1     -11.520   9.997  70.575  1.00  0.00    -0.330 C  
HETATM   19  O   UNL     1     -12.362  10.400  71.366  1.00  0.00    -0.368 OA 
BRANCH  18  20
HETATM   20  O   UNL     1     -11.427  10.397  69.275  1.00  0.00    -0.245 OA 
BRANCH  20  21
HETATM   21  C   UNL     1     -10.509  11.478  69.036  1.00  0.00    -0.145 C  
HETATM   22  C   UNL     1      -9.823  11.440  67.657  1.00  0.00    -0.189 C  
HETATM   23  C   UNL     1     -10.841  11.406  66.495  1.00  0.00    -0.334 C  
HETATM   24  C   UNL     1      -8.820  12.605  67.490  1.00  0.00    -0.186 C  
HETATM   25  C   UNL     1     -11.717  12.644  66.362  1.00  0.00    -0.466 C  
BRANCH  24  26
HETATM   26  C   UNL     1      -7.710  12.620  68.546  1.00  0.00    -0.114 C  
BRANCH  26  27
HETATM   27  C   UNL     1      -6.415  13.213  67.992  1.00  0.00    -0.126 C  
HETATM   28  C   UNL     1      -5.690  12.206  67.109  1.00  0.00    -0.131 C  
ENDBRANCH  26  27
ENDBRANCH  24  26
ENDBRANCH  20  21
ENDBRANCH  18  20
ENDBRANCH  13  18
ENDBRANCH  12  13
ENDBRANCH  10  12
ENDBRANCH   9  10
ENDBRANCH   7   9
ENDBRANCH   3   4
ENDBRANCH   2   3
TORSDOF 11
ENDMDL
MODEL      270
REMARK 921   NORMALIZED FREE ENERGY PREDICTED BY IDOCK:   -3.06 KCAL/MOL
REMARK 922        TOTAL FREE ENERGY PREDICTED BY IDOCK:   -7.27 KCAL/MOL
REMARK 923 INTER-LIGAND FREE ENERGY PREDICTED BY IDOCK:   -6.01 KCAL/MOL
REMARK 924 INTRA-LIGAND FREE ENERGY PREDICTED BY IDOCK:   -1.27 KCAL/MOL
REMARK 927      BINDING AFFINITY PREDICTED BY RF-SCORE:    0.00 PKD
ROOT
HETATM    1  C   UNL     1     -10.605  13.663  64.468  1.00  0.00    -0.428 C  
HETATM    2  C   UNL     1     -11.263  13.923  65.816  1.00  0.00    -0.303 C  
ENDROOT
BRANCH   2   3
HETATM    3  C   UNL     1     -11.913  12.653  66.363  1.00  0.00    -0.425 C  
BRANCH   3   4
HETATM    4  C   UNL     1     -11.032  11.953  67.404  1.00  0.00    -0.315 C  
HETATM    5  C   UNL     1     -10.799  10.455  67.105  1.00  0.00    -0.301 C  
HETATM    6  C   UNL     1     -10.212  10.169  65.704  1.00  0.00    -0.288 C  
HETATM    7  C   UNL     1      -9.951   9.812  68.223  1.00  0.00    -0.153 C  
HETATM    8  C   UNL     1      -8.788  10.665  65.496  1.00  0.00    -0.202 C  
BRANCH   7   9
HETATM    9  O   UNL     1      -9.729   8.427  67.900  1.00  0.00    -0.149 OA 
BRANCH   9  10
HETATM   10  C   UNL     1     -10.560   7.538  68.504  1.00  0.00    -0.136 C  
HETATM   11  O   UNL     1     -11.123   6.610  67.942  1.00  0.00    -0.269 OA 
BRANCH  10  12
HETATM   12  C   UNL     1     -10.549   7.714  70.000  1.00  0.00    -0.240 C  
BRANCH  12  13
HETATM   13  C   UNL     1     -10.645   6.404  70.776  1.00  0.00    -0.238 C  
HETATM   14  O   UNL     1     -11.255   7.727  72.991  1.00  0.00    -0.405 OA 
HETATM   15  S   UNL     1     -11.651   6.576  72.218  1.00  0.00    -0.273 S  
HETATM   16  O   UNL     1     -13.034   6.950  71.470  1.00  0.00    -0.367 OA 
HETATM   17  O   UNL     1     -11.900   5.284  72.816  1.00  0.00    -0.251 OA 
BRANCH  13  18
HETATM   18  C   UNL     1      -9.288   5.956  71.219  1.00  0.00    -0.156 C  
HETATM   19  O   UNL     1      -8.248   6.536  70.938  1.00  0.00    -0.121 OA 
BRANCH  18  20
HETATM   20  O   UNL     1      -9.354   4.730  71.811  1.00  0.00    -0.134 OA 
BRANCH  20  21
HETATM   21  C   UNL     1      -9.535   3.628  70.905  1.00  0.00    -0.165 C  
HETATM   22  C   UNL     1      -8.241   3.137  70.230  1.00  0.00    -0.067 C  
HETATM   23  C   UNL     1      -7.155   2.744  71.255  1.00  0.00    -0.032 C  
HETATM   24  C   UNL     1      -8.520   1.982  69.239  1.00  0.00    -0.084 C  
HETATM   25  C   UNL     1      -7.499   1.558  72.145  1.00  0.00    -0.039 C  
BRANCH  24  26
HETATM   26  C   UNL     1      -9.501   2.351  68.122  1.00  0.00    -0.215 C  
BRANCH  26  27
HETATM   27  C   UNL     1      -8.794   2.474  66.771  1.00  0.00    -0.144 C  
HETATM   28  C   UNL     1      -8.382   3.915  66.503  1.00  0.00    -0.104 C  
ENDBRANCH  26  27
ENDBRANCH  24  26
ENDBRANCH  20  21
ENDBRANCH  18  20
ENDBRANCH  13  18
ENDBRANCH  12  13
ENDBRANCH  10  12
ENDBRANCH   9  10
ENDBRANCH   7   9
ENDBRANCH   3   4
ENDBRANCH   2   3
TORSDOF 11
ENDMDL
MODEL      271
REMARK 921   NORMALIZED FREE ENERGY PREDICTED BY IDOCK:   -3.05 KCAL/MOL
REMARK 922        TOTAL FREE ENERGY PREDICTED BY IDOCK:   -7.25 KCAL/MOL
REMARK 923 INTER-LIGAND FREE ENERGY PREDICTED BY IDOCK:   -5.67 KCAL/MOL
REMARK 924 INTRA-LIGAND FREE ENERGY PREDICTED BY IDOCK:   -1.58 KCAL/MOL
REMARK 927      BINDING AFFINITY PREDICTED BY RF-SCORE:    0.00 PKD
ROOT
HETATM    1  C   UNL     1      -7.273  10.167  63.265  1.00  0.00    -0.129 C  
HETATM    2  C   UNL     1      -8.769   9.946  63.442  1.00  0.00    -0.230 C  
ENDROOT
BRANCH   2   3
HETATM    3  C   UNL     1      -9.071   9.290  64.789  1.00  0.00    -0.201 C  
BRANCH   3   4
HETATM    4  C   UNL     1      -7.798   8.808  65.497  1.00  0.00    -0.098 C  
HETATM    5  C   UNL     1      -8.058   7.699  66.540  1.00  0.00    -0.119 C  
HETATM    6  C   UNL     1      -8.799   6.462  65.983  1.00  0.00    -0.160 C  
HETATM    7  C   UNL     1      -6.741   7.308  67.244  1.00  0.00    -0.068 C  
HETATM    8  C   UNL     1      -8.005   5.642  64.976  1.00  0.00    -0.115 C  
BRANCH   7   9
HETATM    9  O   UNL     1      -7.013   6.255  68.187  1.00  0.00    -0.074 OA 
BRANCH   9  10
HETATM   10  C   UNL     1      -7.270   6.654  69.461  1.00  0.00    -0.082 C  
HETATM   11  O   UNL     1      -6.452   7.159  70.216  1.00  0.00    -0.041 OA 
BRANCH  10  12
HETATM   12  C   UNL     1      -8.742   6.580  69.768  1.00  0.00    -0.143 C  
BRANCH  12  13
HETATM   13  C   UNL     1      -9.079   6.805  71.239  1.00  0.00    -0.150 C  
HETATM   14  O   UNL     1     -11.008   4.992  71.105  1.00  0.00    -0.001 OA 
HETATM   15  S   UNL     1      -9.906   5.409  71.936  1.00  0.00    -0.176 S  
HETATM   16  O   UNL     1      -8.717   4.333  71.736  1.00  0.00    -0.106 OA 
HETATM   17  O   UNL     1     -10.023   5.556  73.369  1.00  0.00    -0.164 OA 
BRANCH  13  18
HETATM   18  C   UNL     1      -9.976   7.991  71.396  1.00  0.00    -0.178 C  
HETATM   19  O   UNL     1     -10.254   8.505  72.471  1.00  0.00    -0.310 OA 
BRANCH  18  20
HETATM   20  O   UNL     1     -10.579   8.299  70.213  1.00  0.00    -0.218 OA 
BRANCH  20  21
HETATM   21  C   UNL     1     -11.614   9.294  70.300  1.00  0.00    -0.114 C  
HETATM   22  C   UNL     1     -11.122  10.743  70.127  1.00  0.00    -0.298 C  
HETATM   23  C   UNL     1     -10.362  10.953  68.799  1.00  0.00    -0.215 C  
HETATM   24  C   UNL     1     -12.280  11.757  70.277  1.00  0.00    -0.381 C  
HETATM   25  C   UNL     1     -11.194  10.766  67.537  1.00  0.00    -0.346 C  
BRANCH  24  26
HETATM   26  C   UNL     1     -12.996  11.682  71.629  1.00  0.00    -0.483 C  
BRANCH  26  27
HETATM   27  C   UNL     1     -13.439  13.064  72.109  1.00  0.00    -0.638 C  
HETATM   28  C   UNL     1     -12.738  14.163  71.321  1.00  0.00    -0.434 C  
ENDBRANCH  26  27
ENDBRANCH  24  26
ENDBRANCH  20  21
ENDBRANCH  18  20
ENDBRANCH  13  18
ENDBRANCH  12  13
ENDBRANCH  10  12
ENDBRANCH   9  10
ENDBRANCH   7   9
ENDBRANCH   3   4
ENDBRANCH   2   3
TORSDOF 11
ENDMDL
MODEL      272
REMARK 921   NORMALIZED FREE ENERGY PREDICTED BY IDOCK:   -3.03 KCAL/MOL
REMARK 922        TOTAL FREE ENERGY PREDICTED BY IDOCK:   -7.22 KCAL/MOL
REMARK 923 INTER-LIGAND FREE ENERGY PREDICTED BY IDOCK:   -6.29 KCAL/MOL
REMARK 924 INTRA-LIGAND FREE ENERGY PREDICTED BY IDOCK:   -0.93 KCAL/MOL
REMARK 927      BINDING AFFINITY PREDICTED BY RF-SCORE:    0.00 PKD
ROOT
HETATM    1  C   UNL     1     -12.177  14.239  70.858  1.00  0.00    -0.425 C  
HETATM    2  C   UNL     1     -11.384  15.442  70.367  1.00  0.00    -0.350 C  
ENDROOT
BRANCH   2   3
HETATM    3  C   UNL     1     -11.584  15.656  68.867  1.00  0.00    -0.392 C  
BRANCH   3   4
HETATM    4  C   UNL     1     -10.441  15.055  68.039  1.00  0.00    -0.242 C  
HETATM    5  C   UNL     1     -10.689  13.587  67.626  1.00  0.00    -0.257 C  
HETATM    6  C   UNL     1     -12.013  13.355  66.862  1.00  0.00    -0.437 C  
HETATM    7  C   UNL     1      -9.475  13.040  66.845  1.00  0.00    -0.242 C  
HETATM    8  C   UNL     1     -12.073  13.991  65.481  1.00  0.00    -0.423 C  
BRANCH   7   9
HETATM    9  O   UNL     1      -9.749  11.683  66.451  1.00  0.00    -0.203 OA 
BRANCH   9  10
HETATM   10  C   UNL     1      -8.672  10.857  66.383  1.00  0.00    -0.170 C  
HETATM   11  O   UNL     1      -8.293  10.279  65.375  1.00  0.00    -0.150 OA 
BRANCH  10  12
HETATM   12  C   UNL     1      -7.878  10.894  67.662  1.00  0.00    -0.113 C  
BRANCH  12  13
HETATM   13  C   UNL     1      -8.600  10.278  68.857  1.00  0.00    -0.150 C  
HETATM   14  O   UNL     1      -6.477   8.791  69.412  1.00  0.00    -0.043 OA 
HETATM   15  S   UNL     1      -7.461   9.634  70.043  1.00  0.00    -0.158 S  
HETATM   16  O   UNL     1      -6.732  11.028  70.418  1.00  0.00    -0.263 OA 
HETATM   17  O   UNL     1      -8.154   9.252  71.252  1.00  0.00    -0.320 OA 
BRANCH  13  18
HETATM   18  C   UNL     1      -9.480   9.152  68.413  1.00  0.00    -0.142 C  
HETATM   19  O   UNL     1     -10.673   9.070  68.671  1.00  0.00    -0.188 OA 
BRANCH  18  20
HETATM   20  O   UNL     1      -8.740   8.155  67.851  1.00  0.00    -0.127 OA 
BRANCH  20  21
HETATM   21  C   UNL     1      -9.503   7.132  67.189  1.00  0.00    -0.147 C  
HETATM   22  C   UNL     1      -9.182   5.697  67.646  1.00  0.00    -0.106 C  
HETATM   23  C   UNL     1      -9.351   5.514  69.171  1.00  0.00    -0.158 C  
HETATM   24  C   UNL     1     -10.007   4.652  66.861  1.00  0.00    -0.239 C  
HETATM   25  C   UNL     1     -10.772   5.685  69.692  1.00  0.00    -0.398 C  
BRANCH  24  26
HETATM   26  C   UNL     1      -9.785   4.703  65.346  1.00  0.00    -0.174 C  
BRANCH  26  27
HETATM   27  C   UNL     1      -9.651   3.301  64.750  1.00  0.00    -0.149 C  
HETATM   28  C   UNL     1      -8.998   2.349  65.743  1.00  0.00    -0.121 C  
ENDBRANCH  26  27
ENDBRANCH  24  26
ENDBRANCH  20  21
ENDBRANCH  18  20
ENDBRANCH  13  18
ENDBRANCH  12  13
ENDBRANCH  10  12
ENDBRANCH   9  10
ENDBRANCH   7   9
ENDBRANCH   3   4
ENDBRANCH   2   3
TORSDOF 11
ENDMDL
MODEL      273
REMARK 921   NORMALIZED FREE ENERGY PREDICTED BY IDOCK:   -3.01 KCAL/MOL
REMARK 922        TOTAL FREE ENERGY PREDICTED BY IDOCK:   -7.20 KCAL/MOL
REMARK 923 INTER-LIGAND FREE ENERGY PREDICTED BY IDOCK:   -5.16 KCAL/MOL
REMARK 924 INTRA-LIGAND FREE ENERGY PREDICTED BY IDOCK:   -2.04 KCAL/MOL
REMARK 927      BINDING AFFINITY PREDICTED BY RF-SCORE:    0.00 PKD
ROOT
HETATM    1  C   UNL     1      -9.133  10.713  62.533  1.00  0.00    -0.326 C  
HETATM    2  C   UNL     1      -9.156   9.503  63.457  1.00  0.00    -0.145 C  
ENDROOT
BRANCH   2   3
HETATM    3  C   UNL     1      -7.738   9.053  63.807  1.00  0.00    -0.125 C  
BRANCH   3   4
HETATM    4  C   UNL     1      -6.938  10.155  64.512  1.00  0.00    -0.117 C  
HETATM    5  C   UNL     1      -7.324  10.339  65.996  1.00  0.00    -0.129 C  
HETATM    6  C   UNL     1      -7.224   9.051  66.846  1.00  0.00    -0.086 C  
HETATM    7  C   UNL     1      -6.516  11.498  66.619  1.00  0.00    -0.090 C  
HETATM    8  C   UNL     1      -5.810   8.525  67.044  1.00  0.00    -0.042 C  
BRANCH   7   9
HETATM    9  O   UNL     1      -6.878  11.624  68.006  1.00  0.00    -0.067 OA 
BRANCH   9  10
HETATM   10  C   UNL     1      -7.193  12.878  68.424  1.00  0.00    -0.113 C  
HETATM   11  O   UNL     1      -6.453  13.849  68.350  1.00  0.00    -0.086 OA 
BRANCH  10  12
HETATM   12  C   UNL     1      -8.646  12.974  68.809  1.00  0.00     0.159 C  
BRANCH  12  13
HETATM   13  C   UNL     1      -9.600  13.006  67.619  1.00  0.00    -0.206 C  
HETATM   14  O   UNL     1     -11.367  14.386  69.034  1.00  0.00    -0.241 OA 
HETATM   15  S   UNL     1     -10.740  14.350  67.736  1.00  0.00    -0.251 S  
HETATM   16  O   UNL     1      -9.659  15.551  67.689  1.00  0.00    -0.209 OA 
HETATM   17  O   UNL     1     -11.486  14.487  66.506  1.00  0.00    -0.345 OA 
BRANCH  13  18
HETATM   18  C   UNL     1     -10.394  11.740  67.551  1.00  0.00    -0.196 C  
HETATM   19  O   UNL     1     -11.095  11.419  66.600  1.00  0.00    -0.295 OA 
BRANCH  18  20
HETATM   20  O   UNL     1     -10.378  11.095  68.751  1.00  0.00    -0.191 OA 
BRANCH  20  21
HETATM   21  C   UNL     1     -10.849   9.737  68.717  1.00  0.00    -0.188 C  
HETATM   22  C   UNL     1      -9.819   8.692  69.183  1.00  0.00    -0.185 C  
HETATM   23  C   UNL     1      -9.287   8.982  70.604  1.00  0.00    -0.283 C  
HETATM   24  C   UNL     1     -10.380   7.255  69.077  1.00  0.00    -0.208 C  
HETATM   25  C   UNL     1     -10.324   8.898  71.716  1.00  0.00    -0.426 C  
BRANCH  24  26
HETATM   26  C   UNL     1     -10.811   6.863  67.660  1.00  0.00    -0.333 C  
BRANCH  26  27
HETATM   27  C   UNL     1      -9.746   6.016  66.962  1.00  0.00    -0.159 C  
HETATM   28  C   UNL     1     -10.385   5.044  65.979  1.00  0.00    -0.276 C  
ENDBRANCH  26  27
ENDBRANCH  24  26
ENDBRANCH  20  21
ENDBRANCH  18  20
ENDBRANCH  13  18
ENDBRANCH  12  13
ENDBRANCH  10  12
ENDBRANCH   9  10
ENDBRANCH   7   9
ENDBRANCH   3   4
ENDBRANCH   2   3
TORSDOF 11
ENDMDL
MODEL      274
REMARK 921   NORMALIZED FREE ENERGY PREDICTED BY IDOCK:   -3.01 KCAL/MOL
REMARK 922        TOTAL FREE ENERGY PREDICTED BY IDOCK:   -7.19 KCAL/MOL
REMARK 923 INTER-LIGAND FREE ENERGY PREDICTED BY IDOCK:   -5.21 KCAL/MOL
REMARK 924 INTRA-LIGAND FREE ENERGY PREDICTED BY IDOCK:   -1.98 KCAL/MOL
REMARK 927      BINDING AFFINITY PREDICTED BY RF-SCORE:    0.00 PKD
ROOT
HETATM    1  C   UNL     1     -11.785  11.999  68.615  1.00  0.00    -0.380 C  
HETATM    2  C   UNL     1     -10.780  11.403  67.638  1.00  0.00    -0.261 C  
ENDROOT
BRANCH   2   3
HETATM    3  C   UNL     1      -9.393  11.301  68.272  1.00  0.00    -0.180 C  
BRANCH   3   4
HETATM    4  C   UNL     1      -8.479  10.332  67.513  1.00  0.00    -0.118 C  
HETATM    5  C   UNL     1      -8.501   8.896  68.082  1.00  0.00    -0.129 C  
HETATM    6  C   UNL     1      -9.910   8.265  68.167  1.00  0.00    -0.198 C  
HETATM    7  C   UNL     1      -7.518   7.997  67.301  1.00  0.00    -0.093 C  
HETATM    8  C   UNL     1     -10.566   7.985  66.822  1.00  0.00    -0.225 C  
BRANCH   7   9
HETATM    9  O   UNL     1      -7.584   6.662  67.836  1.00  0.00    -0.102 OA 
BRANCH   9  10
HETATM   10  C   UNL     1      -7.712   5.664  66.923  1.00  0.00    -0.100 C  
HETATM   11  O   UNL     1      -7.023   5.537  65.921  1.00  0.00    -0.063 OA 
BRANCH  10  12
HETATM   12  C   UNL     1      -8.679   4.612  67.399  1.00  0.00    -0.105 C  
BRANCH  12  13
HETATM   13  C   UNL     1      -8.482   4.207  68.858  1.00  0.00    -0.082 C  
HETATM   14  O   UNL     1      -9.690   1.891  68.408  1.00  0.00    -0.170 OA 
HETATM   15  S   UNL     1      -8.531   2.453  69.056  1.00  0.00    -0.072 S  
HETATM   16  O   UNL     1      -7.247   2.098  68.141  1.00  0.00    -0.046 OA 
HETATM   17  O   UNL     1      -8.133   2.086  70.396  1.00  0.00    -0.042 OA 
BRANCH  13  18
HETATM   18  C   UNL     1      -9.560   4.793  69.714  1.00  0.00    -0.179 C  
HETATM   19  O   UNL     1     -10.652   5.151  69.295  1.00  0.00    -0.192 OA 
BRANCH  18  20
HETATM   20  O   UNL     1      -9.095   5.041  70.971  1.00  0.00    -0.134 OA 
BRANCH  20  21
HETATM   21  C   UNL     1      -9.284   6.390  71.433  1.00  0.00    -0.149 C  
HETATM   22  C   UNL     1     -10.506   6.586  72.350  1.00  0.00    -0.229 C  
HETATM   23  C   UNL     1     -10.472   5.655  73.582  1.00  0.00    -0.289 C  
HETATM   24  C   UNL     1     -10.669   8.065  72.769  1.00  0.00    -0.431 C  
HETATM   25  C   UNL     1      -9.324   5.902  74.552  1.00  0.00    -0.159 C  
BRANCH  24  26
HETATM   26  C   UNL     1     -10.833   9.027  71.588  1.00  0.00    -0.437 C  
BRANCH  26  27
HETATM   27  C   UNL     1     -12.156   8.800  70.857  1.00  0.00    -0.195 C  
HETATM   28  C   UNL     1     -13.338   9.014  71.794  1.00  0.00    -0.453 C  
ENDBRANCH  26  27
ENDBRANCH  24  26
ENDBRANCH  20  21
ENDBRANCH  18  20
ENDBRANCH  13  18
ENDBRANCH  12  13
ENDBRANCH  10  12
ENDBRANCH   9  10
ENDBRANCH   7   9
ENDBRANCH   3   4
ENDBRANCH   2   3
TORSDOF 11
ENDMDL
MODEL      275
REMARK 921   NORMALIZED FREE ENERGY PREDICTED BY IDOCK:   -3.00 KCAL/MOL
REMARK 922        TOTAL FREE ENERGY PREDICTED BY IDOCK:   -7.17 KCAL/MOL
REMARK 923 INTER-LIGAND FREE ENERGY PREDICTED BY IDOCK:   -5.80 KCAL/MOL
REMARK 924 INTRA-LIGAND FREE ENERGY PREDICTED BY IDOCK:   -1.38 KCAL/MOL
REMARK 927      BINDING AFFINITY PREDICTED BY RF-SCORE:    0.00 PKD
ROOT
HETATM    1  C   UNL     1     -11.248   2.308  73.481  1.00  0.00    -0.313 C  
HETATM    2  C   UNL     1      -9.887   2.271  74.163  1.00  0.00    -0.138 C  
ENDROOT
BRANCH   2   3
HETATM    3  C   UNL     1      -8.779   1.960  73.157  1.00  0.00    -0.062 C  
BRANCH   3   4
HETATM    4  C   UNL     1      -8.536   3.121  72.185  1.00  0.00    -0.092 C  
HETATM    5  C   UNL     1      -8.123   4.434  72.886  1.00  0.00    -0.095 C  
HETATM    6  C   UNL     1      -6.885   4.305  73.803  1.00  0.00    -0.060 C  
HETATM    7  C   UNL     1      -7.951   5.563  71.848  1.00  0.00    -0.114 C  
HETATM    8  C   UNL     1      -5.580   4.018  73.075  1.00  0.00    -0.003 C  
BRANCH   7   9
HETATM    9  O   UNL     1      -7.540   6.762  72.530  1.00  0.00    -0.094 OA 
BRANCH   9  10
HETATM   10  C   UNL     1      -8.470   7.751  72.600  1.00  0.00    -0.135 C  
HETATM   11  O   UNL     1      -8.504   8.622  73.458  1.00  0.00    -0.370 OA 
BRANCH  10  12
HETATM   12  C   UNL     1      -9.342   7.765  71.373  1.00  0.00    -0.165 C  
BRANCH  12  13
HETATM   13  C   UNL     1     -10.754   8.286  71.625  1.00  0.00    -0.256 C  
HETATM   14  O   UNL     1     -11.764   6.389  70.073  1.00  0.00    -0.429 OA 
HETATM   15  S   UNL     1     -11.968   7.034  71.346  1.00  0.00    -0.360 S  
HETATM   16  O   UNL     1     -11.479   6.003  72.492  1.00  0.00    -0.288 OA 
HETATM   17  O   UNL     1     -13.267   7.482  71.793  1.00  0.00    -0.340 OA 
BRANCH  13  18
HETATM   18  C   UNL     1     -11.062   9.429  70.711  1.00  0.00    -0.300 C  
HETATM   19  O   UNL     1     -11.618  10.461  71.064  1.00  0.00    -0.346 OA 
BRANCH  18  20
HETATM   20  O   UNL     1     -10.810   9.092  69.415  1.00  0.00    -0.217 OA 
BRANCH  20  21
HETATM   21  C   UNL     1      -9.849   9.928  68.746  1.00  0.00    -0.171 C  
HETATM   22  C   UNL     1     -10.308  10.455  67.374  1.00  0.00    -0.275 C  
HETATM   23  C   UNL     1     -11.644  11.227  67.457  1.00  0.00    -0.257 C  
HETATM   24  C   UNL     1      -9.209  11.307  66.697  1.00  0.00    -0.191 C  
HETATM   25  C   UNL     1     -11.603  12.511  68.275  1.00  0.00    -0.376 C  
BRANCH  24  26
HETATM   26  C   UNL     1      -7.894  10.554  66.474  1.00  0.00    -0.134 C  
BRANCH  26  27
HETATM   27  C   UNL     1      -6.765  11.129  67.330  1.00  0.00    -0.091 C  
HETATM   28  C   UNL     1      -7.069  12.565  67.737  1.00  0.00    -0.126 C  
ENDBRANCH  26  27
ENDBRANCH  24  26
ENDBRANCH  20  21
ENDBRANCH  18  20
ENDBRANCH  13  18
ENDBRANCH  12  13
ENDBRANCH  10  12
ENDBRANCH   9  10
ENDBRANCH   7   9
ENDBRANCH   3   4
ENDBRANCH   2   3
TORSDOF 11
ENDMDL
MODEL      276
REMARK 921   NORMALIZED FREE ENERGY PREDICTED BY IDOCK:   -2.96 KCAL/MOL
REMARK 922        TOTAL FREE ENERGY PREDICTED BY IDOCK:   -7.12 KCAL/MOL
REMARK 923 INTER-LIGAND FREE ENERGY PREDICTED BY IDOCK:   -5.07 KCAL/MOL
REMARK 924 INTRA-LIGAND FREE ENERGY PREDICTED BY IDOCK:   -2.05 KCAL/MOL
REMARK 927      BINDING AFFINITY PREDICTED BY RF-SCORE:    0.00 PKD
ROOT
HETATM    1  C   UNL     1      -9.877   5.299  68.226  1.00  0.00    -0.206 C  
HETATM    2  C   UNL     1      -8.682   5.186  69.163  1.00  0.00    -0.103 C  
ENDROOT
BRANCH   2   3
HETATM    3  C   UNL     1      -8.456   6.494  69.922  1.00  0.00    -0.135 C  
BRANCH   3   4
HETATM    4  C   UNL     1      -8.931   7.715  69.126  1.00  0.00    -0.135 C  
HETATM    5  C   UNL     1      -8.223   9.026  69.533  1.00  0.00    -0.114 C  
HETATM    6  C   UNL     1      -6.680   8.969  69.455  1.00  0.00    -0.048 C  
HETATM    7  C   UNL     1      -8.792  10.214  68.728  1.00  0.00    -0.146 C  
HETATM    8  C   UNL     1      -6.117   8.837  68.047  1.00  0.00    -0.051 C  
BRANCH   7   9
HETATM    9  O   UNL     1      -8.094  11.413  69.110  1.00  0.00    -0.057 OA 
BRANCH   9  10
HETATM   10  C   UNL     1      -8.072  12.406  68.183  1.00  0.00    -0.163 C  
HETATM   11  O   UNL     1      -7.101  12.712  67.507  1.00  0.00    -0.128 OA 
BRANCH  10  12
HETATM   12  C   UNL     1      -9.452  12.958  67.945  1.00  0.00    -0.208 C  
BRANCH  12  13
HETATM   13  C   UNL     1      -9.924  12.842  66.498  1.00  0.00    -0.253 C  
HETATM   14  O   UNL     1     -11.405  15.023  66.774  1.00  0.00    -0.341 OA 
HETATM   15  S   UNL     1     -10.475  14.397  65.868  1.00  0.00    -0.324 S  
HETATM   16  O   UNL     1      -9.071  15.189  65.995  1.00  0.00    -0.289 OA 
HETATM   17  O   UNL     1     -10.713  14.308  64.445  1.00  0.00    -0.327 OA 
BRANCH  13  18
HETATM   18  C   UNL     1     -11.063  11.879  66.395  1.00  0.00    -0.309 C  
HETATM   19  O   UNL     1     -11.934  11.750  67.245  1.00  0.00    -0.618 OA 
BRANCH  18  20
HETATM   20  O   UNL     1     -10.897  11.047  65.327  1.00  0.00    -0.210 OA 
BRANCH  20  21
HETATM   21  C   UNL     1      -9.654  10.323  65.310  1.00  0.00    -0.264 C  
HETATM   22  C   UNL     1      -9.470   9.400  64.092  1.00  0.00     0.241 C  
HETATM   23  C   UNL     1      -9.605  10.159  62.753  1.00  0.00    -0.217 C  
HETATM   24  C   UNL     1      -8.135   8.623  64.164  1.00  0.00    -0.162 C  
HETATM   25  C   UNL     1      -8.539  11.215  62.494  1.00  0.00    -0.273 C  
BRANCH  24  26
HETATM   26  C   UNL     1      -7.995   7.752  65.416  1.00  0.00    -0.125 C  
BRANCH  26  27
HETATM   27  C   UNL     1      -7.190   6.483  65.131  1.00  0.00    -0.070 C  
HETATM   28  C   UNL     1      -6.297   6.669  63.912  1.00  0.00    -0.034 C  
ENDBRANCH  26  27
ENDBRANCH  24  26
ENDBRANCH  20  21
ENDBRANCH  18  20
ENDBRANCH  13  18
ENDBRANCH  12  13
ENDBRANCH  10  12
ENDBRANCH   9  10
ENDBRANCH   7   9
ENDBRANCH   3   4
ENDBRANCH   2   3
TORSDOF 11
ENDMDL
MODEL      277
REMARK 921   NORMALIZED FREE ENERGY PREDICTED BY IDOCK:   -2.96 KCAL/MOL
REMARK 922        TOTAL FREE ENERGY PREDICTED BY IDOCK:   -7.12 KCAL/MOL
REMARK 923 INTER-LIGAND FREE ENERGY PREDICTED BY IDOCK:   -6.43 KCAL/MOL
REMARK 924 INTRA-LIGAND FREE ENERGY PREDICTED BY IDOCK:   -0.69 KCAL/MOL
REMARK 927      BINDING AFFINITY PREDICTED BY RF-SCORE:    0.00 PKD
ROOT
HETATM    1  C   UNL     1     -10.997  14.463  66.545  1.00  0.00    -0.316 C  
HETATM    2  C   UNL     1     -10.865  13.623  67.808  1.00  0.00    -0.266 C  
ENDROOT
BRANCH   2   3
HETATM    3  C   UNL     1     -11.973  12.573  67.887  1.00  0.00    -0.283 C  
BRANCH   3   4
HETATM    4  C   UNL     1     -11.427  11.179  68.217  1.00  0.00    -0.373 C  
HETATM    5  C   UNL     1     -11.066  10.998  69.708  1.00  0.00    -0.303 C  
HETATM    6  C   UNL     1     -12.223  11.308  70.686  1.00  0.00    -0.489 C  
HETATM    7  C   UNL     1     -10.476   9.592  69.948  1.00  0.00    -0.253 C  
HETATM    8  C   UNL     1     -13.394  10.338  70.618  1.00  0.00    -0.077 C  
BRANCH   7   9
HETATM    9  O   UNL     1     -10.178   9.447  71.349  1.00  0.00    -0.316 OA 
BRANCH   9  10
HETATM   10  C   UNL     1      -9.539   8.300  71.702  1.00  0.00    -0.198 C  
HETATM   11  O   UNL     1      -8.496   7.898  71.208  1.00  0.00    -0.111 OA 
BRANCH  10  12
HETATM   12  C   UNL     1     -10.169   7.680  72.921  1.00  0.00    -0.356 C  
BRANCH  12  13
HETATM   13  C   UNL     1     -10.951   6.402  72.631  1.00  0.00    -0.253 C  
HETATM   14  O   UNL     1      -8.693   5.092  72.167  1.00  0.00    -0.127 OA 
HETATM   15  S   UNL     1      -9.951   4.964  72.859  1.00  0.00    -0.163 S  
HETATM   16  O   UNL     1      -9.654   5.158  74.437  1.00  0.00    -0.128 OA 
HETATM   17  O   UNL     1     -10.761   3.770  72.788  1.00  0.00    -0.149 OA 
BRANCH  13  18
HETATM   18  C   UNL     1     -11.439   6.396  71.217  1.00  0.00    -0.314 C  
HETATM   19  O   UNL     1     -12.446   6.978  70.836  1.00  0.00    -0.366 OA 
BRANCH  18  20
HETATM   20  O   UNL     1     -10.723   5.515  70.463  1.00  0.00    -0.275 OA 
BRANCH  20  21
HETATM   21  C   UNL     1     -10.426   5.960  69.128  1.00  0.00    -0.270 C  
HETATM   22  C   UNL     1      -9.001   5.627  68.647  1.00  0.00    -0.113 C  
HETATM   23  C   UNL     1      -8.689   4.116  68.733  1.00  0.00    -0.128 C  
HETATM   24  C   UNL     1      -8.740   6.174  67.224  1.00  0.00    -0.108 C  
HETATM   25  C   UNL     1      -9.528   3.227  67.826  1.00  0.00    -0.217 C  
BRANCH  24  26
HETATM   26  C   UNL     1      -8.914   7.691  67.105  1.00  0.00    -0.137 C  
BRANCH  26  27
HETATM   27  C   UNL     1      -8.651   8.176  65.679  1.00  0.00    -0.181 C  
HETATM   28  C   UNL     1      -8.726   9.695  65.600  1.00  0.00    -0.163 C  
ENDBRANCH  26  27
ENDBRANCH  24  26
ENDBRANCH  20  21
ENDBRANCH  18  20
ENDBRANCH  13  18
ENDBRANCH  12  13
ENDBRANCH  10  12
ENDBRANCH   9  10
ENDBRANCH   7   9
ENDBRANCH   3   4
ENDBRANCH   2   3
TORSDOF 11
ENDMDL
MODEL      278
REMARK 921   NORMALIZED FREE ENERGY PREDICTED BY IDOCK:   -2.96 KCAL/MOL
REMARK 922        TOTAL FREE ENERGY PREDICTED BY IDOCK:   -7.12 KCAL/MOL
REMARK 923 INTER-LIGAND FREE ENERGY PREDICTED BY IDOCK:   -5.64 KCAL/MOL
REMARK 924 INTRA-LIGAND FREE ENERGY PREDICTED BY IDOCK:   -1.47 KCAL/MOL
REMARK 927      BINDING AFFINITY PREDICTED BY RF-SCORE:    0.00 PKD
ROOT
HETATM    1  C   UNL     1      -5.453   8.808  73.772  1.00  0.00    -0.107 C  
HETATM    2  C   UNL     1      -5.287   7.354  74.195  1.00  0.00    -0.053 C  
ENDROOT
BRANCH   2   3
HETATM    3  C   UNL     1      -6.640   6.720  74.519  1.00  0.00    -0.087 C  
BRANCH   3   4
HETATM    4  C   UNL     1      -7.288   6.077  73.286  1.00  0.00    -0.089 C  
HETATM    5  C   UNL     1      -8.795   6.390  73.153  1.00  0.00    -0.132 C  
HETATM    6  C   UNL     1      -9.135   7.898  73.146  1.00  0.00    -0.322 C  
HETATM    7  C   UNL     1      -9.384   5.666  71.923  1.00  0.00    -0.144 C  
HETATM    8  C   UNL     1      -8.637   8.659  71.926  1.00  0.00    -0.231 C  
BRANCH   7   9
HETATM    9  O   UNL     1     -10.779   6.001  71.811  1.00  0.00    -0.227 OA 
BRANCH   9  10
HETATM   10  C   UNL     1     -11.196   6.396  70.580  1.00  0.00    -0.352 C  
HETATM   11  O   UNL     1     -12.323   6.788  70.313  1.00  0.00    -0.220 OA 
BRANCH  10  12
HETATM   12  C   UNL     1     -10.042   6.483  69.617  1.00  0.00    -0.209 C  
BRANCH  12  13
HETATM   13  C   UNL     1     -10.463   6.551  68.152  1.00  0.00    -0.217 C  
HETATM   14  O   UNL     1      -8.068   5.703  67.393  1.00  0.00    -0.102 OA 
HETATM   15  S   UNL     1      -9.472   5.494  67.142  1.00  0.00    -0.128 S  
HETATM   16  O   UNL     1      -9.882   4.092  67.834  1.00  0.00    -0.127 OA 
HETATM   17  O   UNL     1     -10.021   5.412  65.807  1.00  0.00    -0.075 OA 
BRANCH  13  18
HETATM   18  C   UNL     1     -10.318   7.946  67.629  1.00  0.00    -0.241 C  
HETATM   19  O   UNL     1     -10.187   8.226  66.446  1.00  0.00    -0.253 OA 
BRANCH  18  20
HETATM   20  O   UNL     1     -10.167   8.831  68.655  1.00  0.00    -0.186 OA 
BRANCH  20  21
HETATM   21  C   UNL     1     -10.114  10.213  68.260  1.00  0.00    -0.156 C  
HETATM   22  C   UNL     1     -11.491  10.880  68.086  1.00  0.00    -0.368 C  
HETATM   23  C   UNL     1     -12.361  10.775  69.359  1.00  0.00    -0.133 C  
HETATM   24  C   UNL     1     -11.356  12.349  67.620  1.00  0.00    -0.371 C  
HETATM   25  C   UNL     1     -11.822  11.511  70.578  1.00  0.00    -0.363 C  
BRANCH  24  26
HETATM   26  C   UNL     1     -10.607  12.508  66.293  1.00  0.00    -0.273 C  
BRANCH  26  27
HETATM   27  C   UNL     1      -9.630  13.684  66.337  1.00  0.00    -0.280 C  
HETATM   28  C   UNL     1      -8.878  13.716  67.660  1.00  0.00    -0.194 C  
ENDBRANCH  26  27
ENDBRANCH  24  26
ENDBRANCH  20  21
ENDBRANCH  18  20
ENDBRANCH  13  18
ENDBRANCH  12  13
ENDBRANCH  10  12
ENDBRANCH   9  10
ENDBRANCH   7   9
ENDBRANCH   3   4
ENDBRANCH   2   3
TORSDOF 11
ENDMDL
MODEL      279
REMARK 921   NORMALIZED FREE ENERGY PREDICTED BY IDOCK:   -2.93 KCAL/MOL
REMARK 922        TOTAL FREE ENERGY PREDICTED BY IDOCK:   -7.06 KCAL/MOL
REMARK 923 INTER-LIGAND FREE ENERGY PREDICTED BY IDOCK:   -5.59 KCAL/MOL
REMARK 924 INTRA-LIGAND FREE ENERGY PREDICTED BY IDOCK:   -1.46 KCAL/MOL
REMARK 927      BINDING AFFINITY PREDICTED BY RF-SCORE:    0.00 PKD
ROOT
HETATM    1  C   UNL     1      -5.475   8.983  73.614  1.00  0.00    -0.108 C  
HETATM    2  C   UNL     1      -5.235   7.562  74.104  1.00  0.00    -0.050 C  
ENDROOT
BRANCH   2   3
HETATM    3  C   UNL     1      -6.540   6.913  74.564  1.00  0.00    -0.087 C  
BRANCH   3   4
HETATM    4  C   UNL     1      -7.262   6.189  73.421  1.00  0.00    -0.088 C  
HETATM    5  C   UNL     1      -8.762   6.542  73.321  1.00  0.00    -0.132 C  
HETATM    6  C   UNL     1      -9.053   8.055  73.195  1.00  0.00    -0.341 C  
HETATM    7  C   UNL     1      -9.427   5.735  72.186  1.00  0.00    -0.149 C  
HETATM    8  C   UNL     1      -8.585   8.689  71.893  1.00  0.00    -0.231 C  
BRANCH   7   9
HETATM    9  O   UNL     1     -10.814   6.108  72.101  1.00  0.00    -0.226 OA 
BRANCH   9  10
HETATM   10  C   UNL     1     -11.291   6.335  70.849  1.00  0.00    -0.325 C  
HETATM   11  O   UNL     1     -12.454   6.596  70.578  1.00  0.00    -0.248 OA 
BRANCH  10  12
HETATM   12  C   UNL     1     -10.169   6.423  69.848  1.00  0.00    -0.224 C  
BRANCH  12  13
HETATM   13  C   UNL     1     -10.517   5.845  68.478  1.00  0.00    -0.238 C  
HETATM   14  O   UNL     1      -8.024   4.998  68.171  1.00  0.00    -0.086 OA 
HETATM   15  S   UNL     1      -9.390   4.569  68.008  1.00  0.00    -0.149 S  
HETATM   16  O   UNL     1      -9.719   3.540  69.210  1.00  0.00    -0.143 OA 
HETATM   17  O   UNL     1      -9.859   3.897  66.817  1.00  0.00    -0.206 OA 
BRANCH  13  18
HETATM   18  C   UNL     1     -10.460   6.912  67.431  1.00  0.00    -0.269 C  
HETATM   19  O   UNL     1     -10.258   6.698  66.243  1.00  0.00    -0.016 OA 
BRANCH  18  20
HETATM   20  O   UNL     1     -10.478   8.150  68.001  1.00  0.00    -0.216 OA 
BRANCH  20  21
HETATM   21  C   UNL     1     -10.607   9.243  67.075  1.00  0.00    -0.193 C  
HETATM   22  C   UNL     1      -9.499  10.306  67.184  1.00  0.00    -0.184 C  
HETATM   23  C   UNL     1      -8.086   9.702  67.021  1.00  0.00    -0.113 C  
HETATM   24  C   UNL     1      -9.729  11.469  66.191  1.00  0.00    -0.249 C  
HETATM   25  C   UNL     1      -7.791   9.097  65.656  1.00  0.00    -0.095 C  
BRANCH  24  26
HETATM   26  C   UNL     1     -11.066  12.190  66.384  1.00  0.00    -0.358 C  
BRANCH  26  27
HETATM   27  C   UNL     1     -11.759  12.458  65.047  1.00  0.00    -0.420 C  
HETATM   28  C   UNL     1     -12.770  13.590  65.177  1.00  0.00    -0.453 C  
ENDBRANCH  26  27
ENDBRANCH  24  26
ENDBRANCH  20  21
ENDBRANCH  18  20
ENDBRANCH  13  18
ENDBRANCH  12  13
ENDBRANCH  10  12
ENDBRANCH   9  10
ENDBRANCH   7   9
ENDBRANCH   3   4
ENDBRANCH   2   3
TORSDOF 11
ENDMDL
MODEL      280
REMARK 921   NORMALIZED FREE ENERGY PREDICTED BY IDOCK:   -2.93 KCAL/MOL
REMARK 922        TOTAL FREE ENERGY PREDICTED BY IDOCK:   -7.06 KCAL/MOL
REMARK 923 INTER-LIGAND FREE ENERGY PREDICTED BY IDOCK:   -6.14 KCAL/MOL
REMARK 924 INTRA-LIGAND FREE ENERGY PREDICTED BY IDOCK:   -0.92 KCAL/MOL
REMARK 927      BINDING AFFINITY PREDICTED BY RF-SCORE:    0.00 PKD
ROOT
HETATM    1  C   UNL     1      -5.714  19.745  71.064  1.00  0.00    -0.300 C  
HETATM    2  C   UNL     1      -5.947  18.625  70.059  1.00  0.00    -0.213 C  
ENDROOT
BRANCH   2   3
HETATM    3  C   UNL     1      -6.939  19.056  68.980  1.00  0.00    -0.354 C  
BRANCH   3   4
HETATM    4  C   UNL     1      -7.026  18.040  67.834  1.00  0.00    -0.211 C  
HETATM    5  C   UNL     1      -7.887  16.804  68.174  1.00  0.00    -0.182 C  
HETATM    6  C   UNL     1      -9.325  17.135  68.635  1.00  0.00    -0.269 C  
HETATM    7  C   UNL     1      -7.881  15.807  66.996  1.00  0.00    -0.236 C  
HETATM    8  C   UNL     1     -10.216  17.742  67.561  1.00  0.00    -0.356 C  
BRANCH   7   9
HETATM    9  O   UNL     1      -8.713  14.682  67.333  1.00  0.00    -0.175 OA 
BRANCH   9  10
HETATM   10  C   UNL     1      -8.057  13.532  67.640  1.00  0.00    -0.180 C  
HETATM   11  O   UNL     1      -6.948  13.226  67.229  1.00  0.00    -0.138 OA 
BRANCH  10  12
HETATM   12  C   UNL     1      -8.782  12.764  68.714  1.00  0.00     0.177 C  
BRANCH  12  13
HETATM   13  C   UNL     1      -9.511  11.525  68.202  1.00  0.00    -0.184 C  
HETATM   14  O   UNL     1     -11.623  12.115  69.692  1.00  0.00    -0.298 OA 
HETATM   15  S   UNL     1     -11.262  11.689  68.362  1.00  0.00    -0.277 S  
HETATM   16  O   UNL     1     -11.448  12.961  67.382  1.00  0.00    -0.296 OA 
HETATM   17  O   UNL     1     -11.935  10.606  67.682  1.00  0.00    -0.284 OA 
BRANCH  13  18
HETATM   18  C   UNL     1      -9.095  10.315  68.977  1.00  0.00    -0.183 C  
HETATM   19  O   UNL     1      -8.324  10.339  69.926  1.00  0.00    -0.143 OA 
BRANCH  18  20
HETATM   20  O   UNL     1      -9.540   9.178  68.371  1.00  0.00    -0.149 OA 
BRANCH  20  21
HETATM   21  C   UNL     1      -9.178   7.954  69.035  1.00  0.00    -0.147 C  
HETATM   22  C   UNL     1     -10.335   6.951  69.200  1.00  0.00    -0.207 C  
HETATM   23  C   UNL     1     -10.997   6.590  67.851  1.00  0.00    -0.382 C  
HETATM   24  C   UNL     1      -9.882   5.683  69.960  1.00  0.00    -0.247 C  
HETATM   25  C   UNL     1     -10.100   5.856  66.863  1.00  0.00    -0.228 C  
BRANCH  24  26
HETATM   26  C   UNL     1      -9.329   5.967  71.359  1.00  0.00    -0.165 C  
BRANCH  26  27
HETATM   27  C   UNL     1     -10.368   6.653  72.247  1.00  0.00    -0.219 C  
HETATM   28  C   UNL     1     -10.654   5.822  73.491  1.00  0.00    -0.295 C  
ENDBRANCH  26  27
ENDBRANCH  24  26
ENDBRANCH  20  21
ENDBRANCH  18  20
ENDBRANCH  13  18
ENDBRANCH  12  13
ENDBRANCH  10  12
ENDBRANCH   9  10
ENDBRANCH   7   9
ENDBRANCH   3   4
ENDBRANCH   2   3
TORSDOF 11
ENDMDL
MODEL      281
REMARK 921   NORMALIZED FREE ENERGY PREDICTED BY IDOCK:   -2.91 KCAL/MOL
REMARK 922        TOTAL FREE ENERGY PREDICTED BY IDOCK:   -7.03 KCAL/MOL
REMARK 923 INTER-LIGAND FREE ENERGY PREDICTED BY IDOCK:   -5.57 KCAL/MOL
REMARK 924 INTRA-LIGAND FREE ENERGY PREDICTED BY IDOCK:   -1.46 KCAL/MOL
REMARK 927      BINDING AFFINITY PREDICTED BY RF-SCORE:    0.00 PKD
ROOT
HETATM    1  C   UNL     1      -8.667   5.737  64.864  1.00  0.00    -0.001 C  
HETATM    2  C   UNL     1      -9.578   4.787  65.630  1.00  0.00    -0.184 C  
ENDROOT
BRANCH   2   3
HETATM    3  C   UNL     1      -9.096   4.605  67.069  1.00  0.00    -0.126 C  
BRANCH   3   4
HETATM    4  C   UNL     1      -8.364   5.846  67.596  1.00  0.00    -0.104 C  
HETATM    5  C   UNL     1      -9.212   6.688  68.575  1.00  0.00    -0.127 C  
HETATM    6  C   UNL     1      -9.758   5.898  69.787  1.00  0.00    -0.202 C  
HETATM    7  C   UNL     1      -8.429   7.943  69.017  1.00  0.00    -0.131 C  
HETATM    8  C   UNL     1      -8.696   5.415  70.765  1.00  0.00    -0.139 C  
BRANCH   7   9
HETATM    9  O   UNL     1      -9.233   8.689  69.948  1.00  0.00    -0.150 OA 
BRANCH   9  10
HETATM   10  C   UNL     1     -10.179   9.496  69.400  1.00  0.00    -0.206 C  
HETATM   11  O   UNL     1     -11.313   9.640  69.831  1.00  0.00    -0.230 OA 
BRANCH  10  12
HETATM   12  C   UNL     1      -9.596  10.349  68.304  1.00  0.00    -0.152 C  
BRANCH  12  13
HETATM   13  C   UNL     1     -10.622  10.823  67.279  1.00  0.00    -0.257 C  
HETATM   14  O   UNL     1      -8.706  11.178  65.481  1.00  0.00    -0.176 OA 
HETATM   15  S   UNL     1     -10.029  10.624  65.627  1.00  0.00    -0.282 S  
HETATM   16  O   UNL     1      -9.879   9.015  65.647  1.00  0.00    -0.227 OA 
HETATM   17  O   UNL     1     -11.089  10.877  64.677  1.00  0.00    -0.110 OA 
BRANCH  13  18
HETATM   18  C   UNL     1     -10.932  12.273  67.479  1.00  0.00    -0.254 C  
HETATM   19  O   UNL     1     -12.064  12.738  67.496  1.00  0.00    -0.359 OA 
BRANCH  18  20
HETATM   20  O   UNL     1      -9.791  13.018  67.453  1.00  0.00    -0.209 OA 
BRANCH  20  21
HETATM   21  C   UNL     1      -9.995  14.441  67.405  1.00  0.00    -0.242 C  
HETATM   22  C   UNL     1      -9.320  15.143  66.212  1.00  0.00    -0.348 C  
HETATM   23  C   UNL     1      -9.755  14.546  64.855  1.00  0.00     0.288 C  
HETATM   24  C   UNL     1      -9.546  16.672  66.251  1.00  0.00    -0.325 C  
HETATM   25  C   UNL     1     -11.229  14.720  64.511  1.00  0.00    -0.283 C  
BRANCH  24  26
HETATM   26  C   UNL     1      -9.021  17.341  67.525  1.00  0.00    -0.222 C  
BRANCH  26  27
HETATM   27  C   UNL     1      -9.431  18.813  67.597  1.00  0.00    -0.330 C  
HETATM   28  C   UNL     1     -10.776  19.036  66.918  1.00  0.00    -0.484 C  
ENDBRANCH  26  27
ENDBRANCH  24  26
ENDBRANCH  20  21
ENDBRANCH  18  20
ENDBRANCH  13  18
ENDBRANCH  12  13
ENDBRANCH  10  12
ENDBRANCH   9  10
ENDBRANCH   7   9
ENDBRANCH   3   4
ENDBRANCH   2   3
TORSDOF 11
ENDMDL
MODEL      282
REMARK 921   NORMALIZED FREE ENERGY PREDICTED BY IDOCK:   -2.89 KCAL/MOL
REMARK 922        TOTAL FREE ENERGY PREDICTED BY IDOCK:   -7.00 KCAL/MOL
REMARK 923 INTER-LIGAND FREE ENERGY PREDICTED BY IDOCK:   -5.88 KCAL/MOL
REMARK 924 INTRA-LIGAND FREE ENERGY PREDICTED BY IDOCK:   -1.12 KCAL/MOL
REMARK 927      BINDING AFFINITY PREDICTED BY RF-SCORE:    0.00 PKD
ROOT
HETATM    1  C   UNL     1      -6.779   5.011  62.331  1.00  0.00    -0.026 C  
HETATM    2  C   UNL     1      -6.808   3.656  63.025  1.00  0.00    -0.035 C  
ENDROOT
BRANCH   2   3
HETATM    3  C   UNL     1      -7.200   3.802  64.495  1.00  0.00    -0.066 C  
BRANCH   3   4
HETATM    4  C   UNL     1      -6.970   5.225  65.018  1.00  0.00    -0.057 C  
HETATM    5  C   UNL     1      -8.280   5.986  65.320  1.00  0.00    -0.138 C  
HETATM    6  C   UNL     1      -9.228   5.259  66.300  1.00  0.00    -0.152 C  
HETATM    7  C   UNL     1      -7.967   7.423  65.789  1.00  0.00    -0.118 C  
HETATM    8  C   UNL     1      -8.705   5.137  67.724  1.00  0.00    -0.103 C  
BRANCH   7   9
HETATM    9  O   UNL     1      -9.204   8.095  66.088  1.00  0.00    -0.183 OA 
BRANCH   9  10
HETATM   10  C   UNL     1      -9.159   8.992  67.108  1.00  0.00    -0.137 C  
HETATM   11  O   UNL     1      -8.807   8.739  68.250  1.00  0.00    -0.140 OA 
BRANCH  10  12
HETATM   12  C   UNL     1      -9.406  10.392  66.610  1.00  0.00    -0.185 C  
BRANCH  12  13
HETATM   13  C   UNL     1     -10.714  11.002  67.105  1.00  0.00    -0.265 C  
HETATM   14  O   UNL     1     -10.015  13.366  66.130  1.00  0.00    -0.284 OA 
HETATM   15  S   UNL     1     -11.134  12.460  66.201  1.00  0.00    -0.318 S  
HETATM   16  O   UNL     1     -11.288  11.771  64.746  1.00  0.00    -0.308 OA 
HETATM   17  O   UNL     1     -12.470  12.895  66.538  1.00  0.00    -0.396 OA 
BRANCH  13  18
HETATM   18  C   UNL     1     -10.603  11.379  68.549  1.00  0.00    -0.198 C  
HETATM   19  O   UNL     1      -9.637  11.947  69.038  1.00  0.00     0.015 OA 
BRANCH  18  20
HETATM   20  O   UNL     1     -11.631  10.843  69.267  1.00  0.00    -0.267 OA 
BRANCH  20  21
HETATM   21  C   UNL     1     -11.290   9.676  70.036  1.00  0.00    -0.195 C  
HETATM   22  C   UNL     1     -11.676   9.758  71.525  1.00  0.00    -0.450 C  
HETATM   23  C   UNL     1     -13.180  10.047  71.728  1.00  0.00    -0.540 C  
HETATM   24  C   UNL     1     -11.240   8.490  72.295  1.00  0.00    -0.432 C  
HETATM   25  C   UNL     1     -14.123   8.959  71.231  1.00  0.00    -0.193 C  
BRANCH  24  26
HETATM   26  C   UNL     1      -9.733   8.218  72.233  1.00  0.00    -0.362 C  
BRANCH  26  27
HETATM   27  C   UNL     1      -9.431   6.719  72.247  1.00  0.00    -0.149 C  
HETATM   28  C   UNL     1      -9.678   6.103  70.876  1.00  0.00    -0.203 C  
ENDBRANCH  26  27
ENDBRANCH  24  26
ENDBRANCH  20  21
ENDBRANCH  18  20
ENDBRANCH  13  18
ENDBRANCH  12  13
ENDBRANCH  10  12
ENDBRANCH   9  10
ENDBRANCH   7   9
ENDBRANCH   3   4
ENDBRANCH   2   3
TORSDOF 11
ENDMDL
MODEL      283
REMARK 921   NORMALIZED FREE ENERGY PREDICTED BY IDOCK:   -2.89 KCAL/MOL
REMARK 922        TOTAL FREE ENERGY PREDICTED BY IDOCK:   -7.00 KCAL/MOL
REMARK 923 INTER-LIGAND FREE ENERGY PREDICTED BY IDOCK:   -5.95 KCAL/MOL
REMARK 924 INTRA-LIGAND FREE ENERGY PREDICTED BY IDOCK:   -1.05 KCAL/MOL
REMARK 927      BINDING AFFINITY PREDICTED BY RF-SCORE:    0.00 PKD
ROOT
HETATM    1  C   UNL     1     -12.063  14.708  64.512  1.00  0.00    -0.490 C  
HETATM    2  C   UNL     1     -11.340  16.037  64.686  1.00  0.00    -0.312 C  
ENDROOT
BRANCH   2   3
HETATM    3  C   UNL     1     -10.467  16.025  65.940  1.00  0.00    -0.373 C  
BRANCH   3   4
HETATM    4  C   UNL     1     -11.179  15.384  67.137  1.00  0.00    -0.256 C  
HETATM    5  C   UNL     1     -10.539  14.054  67.592  1.00  0.00    -0.249 C  
HETATM    6  C   UNL     1      -9.032  14.152  67.923  1.00  0.00    -0.185 C  
HETATM    7  C   UNL     1     -11.343  13.447  68.762  1.00  0.00    -0.292 C  
HETATM    8  C   UNL     1      -8.701  14.992  69.148  1.00  0.00    -0.188 C  
BRANCH   7   9
HETATM    9  O   UNL     1     -10.705  12.225  69.179  1.00  0.00    -0.163 OA 
BRANCH   9  10
HETATM   10  C   UNL     1     -11.137  11.092  68.565  1.00  0.00    -0.244 C  
HETATM   11  O   UNL     1     -12.276  10.902  68.165  1.00  0.00    -0.503 OA 
BRANCH  10  12
HETATM   12  C   UNL     1      -9.988  10.170  68.255  1.00  0.00    -0.168 C  
BRANCH  12  13
HETATM   13  C   UNL     1     -10.228   8.722  68.672  1.00  0.00    -0.194 C  
HETATM   14  O   UNL     1      -7.669   8.451  69.311  1.00  0.00    -0.094 OA 
HETATM   15  S   UNL     1      -8.993   8.159  69.802  1.00  0.00    -0.144 S  
HETATM   16  O   UNL     1      -9.305   9.202  70.997  1.00  0.00    -0.248 OA 
HETATM   17  O   UNL     1      -9.356   6.869  70.344  1.00  0.00    -0.159 OA 
BRANCH  13  18
HETATM   18  C   UNL     1     -10.197   7.821  67.479  1.00  0.00    -0.235 C  
HETATM   19  O   UNL     1     -10.057   8.211  66.327  1.00  0.00    -0.197 OA 
BRANCH  18  20
HETATM   20  O   UNL     1     -10.529   6.546  67.828  1.00  0.00    -0.174 OA 
BRANCH  20  21
HETATM   21  C   UNL     1     -10.374   5.571  66.782  1.00  0.00    -0.269 C  
HETATM   22  C   UNL     1      -8.951   4.998  66.648  1.00  0.00    -0.114 C  
HETATM   23  C   UNL     1      -8.441   4.375  67.967  1.00  0.00    -0.100 C  
HETATM   24  C   UNL     1      -8.852   3.991  65.479  1.00  0.00    -0.123 C  
HETATM   25  C   UNL     1      -9.213   3.155  68.452  1.00  0.00    -0.235 C  
BRANCH  24  26
HETATM   26  C   UNL     1      -9.229   4.587  64.119  1.00  0.00    -0.109 C  
BRANCH  26  27
HETATM   27  C   UNL     1      -8.237   5.666  63.683  1.00  0.00    -0.090 C  
HETATM   28  C   UNL     1      -6.973   5.041  63.106  1.00  0.00    -0.042 C  
ENDBRANCH  26  27
ENDBRANCH  24  26
ENDBRANCH  20  21
ENDBRANCH  18  20
ENDBRANCH  13  18
ENDBRANCH  12  13
ENDBRANCH  10  12
ENDBRANCH   9  10
ENDBRANCH   7   9
ENDBRANCH   3   4
ENDBRANCH   2   3
TORSDOF 11
ENDMDL
MODEL      284
REMARK 921   NORMALIZED FREE ENERGY PREDICTED BY IDOCK:   -2.89 KCAL/MOL
REMARK 922        TOTAL FREE ENERGY PREDICTED BY IDOCK:   -7.00 KCAL/MOL
REMARK 923 INTER-LIGAND FREE ENERGY PREDICTED BY IDOCK:   -6.27 KCAL/MOL
REMARK 924 INTRA-LIGAND FREE ENERGY PREDICTED BY IDOCK:   -0.73 KCAL/MOL
REMARK 927      BINDING AFFINITY PREDICTED BY RF-SCORE:    0.00 PKD
ROOT
HETATM    1  C   UNL     1     -11.105  16.641  65.381  1.00  0.00     0.014 C  
HETATM    2  C   UNL     1     -10.295  17.898  65.665  1.00  0.00    -0.064 C  
ENDROOT
BRANCH   2   3
HETATM    3  C   UNL     1     -10.444  18.329  67.124  1.00  0.00    -0.417 C  
BRANCH   3   4
HETATM    4  C   UNL     1     -10.348  17.142  68.090  1.00  0.00    -0.350 C  
HETATM    5  C   UNL     1      -9.123  16.237  67.832  1.00  0.00    -0.196 C  
HETATM    6  C   UNL     1      -7.767  16.981  67.844  1.00  0.00    -0.180 C  
HETATM    7  C   UNL     1      -9.127  15.041  68.807  1.00  0.00    -0.197 C  
HETATM    8  C   UNL     1      -7.356  17.536  69.200  1.00  0.00    -0.128 C  
BRANCH   7   9
HETATM    9  O   UNL     1      -7.960  14.235  68.559  1.00  0.00    -0.135 OA 
BRANCH   9  10
HETATM   10  C   UNL     1      -8.078  13.313  67.568  1.00  0.00    -0.186 C  
HETATM   11  O   UNL     1      -7.142  12.792  66.980  1.00  0.00    -0.054 OA 
BRANCH  10  12
HETATM   12  C   UNL     1      -9.505  12.858  67.416  1.00  0.00    -0.198 C  
BRANCH  12  13
HETATM   13  C   UNL     1      -9.683  11.697  66.441  1.00  0.00    -0.214 C  
HETATM   14  O   UNL     1     -12.194  12.420  65.992  1.00  0.00    -0.636 OA 
HETATM   15  S   UNL     1     -10.999  12.001  65.303  1.00  0.00    -0.314 S  
HETATM   16  O   UNL     1     -10.368  13.309  64.592  1.00  0.00    -0.381 OA 
HETATM   17  O   UNL     1     -11.010  10.996  64.264  1.00  0.00    -0.309 OA 
BRANCH  13  18
HETATM   18  C   UNL     1     -10.003  10.437  67.180  1.00  0.00    -0.195 C  
HETATM   19  O   UNL     1     -11.116  10.150  67.599  1.00  0.00    -0.301 OA 
BRANCH  18  20
HETATM   20  O   UNL     1      -8.864   9.751  67.481  1.00  0.00    -0.125 OA 
BRANCH  20  21
HETATM   21  C   UNL     1      -9.072   8.443  68.041  1.00  0.00    -0.137 C  
HETATM   22  C   UNL     1      -9.498   7.372  67.020  1.00  0.00    -0.199 C  
HETATM   23  C   UNL     1      -8.495   7.241  65.852  1.00  0.00    -0.148 C  
HETATM   24  C   UNL     1      -9.746   6.006  67.701  1.00  0.00    -0.120 C  
HETATM   25  C   UNL     1      -7.106   6.754  66.239  1.00  0.00    -0.067 C  
BRANCH  24  26
HETATM   26  C   UNL     1     -10.823   6.045  68.790  1.00  0.00    -0.391 C  
BRANCH  26  27
HETATM   27  C   UNL     1     -10.298   5.506  70.121  1.00  0.00    -0.354 C  
HETATM   28  C   UNL     1      -9.565   4.186  69.921  1.00  0.00    -0.282 C  
ENDBRANCH  26  27
ENDBRANCH  24  26
ENDBRANCH  20  21
ENDBRANCH  18  20
ENDBRANCH  13  18
ENDBRANCH  12  13
ENDBRANCH  10  12
ENDBRANCH   9  10
ENDBRANCH   7   9
ENDBRANCH   3   4
ENDBRANCH   2   3
TORSDOF 11
ENDMDL
MODEL      285
REMARK 921   NORMALIZED FREE ENERGY PREDICTED BY IDOCK:   -2.89 KCAL/MOL
REMARK 922        TOTAL FREE ENERGY PREDICTED BY IDOCK:   -6.99 KCAL/MOL
REMARK 923 INTER-LIGAND FREE ENERGY PREDICTED BY IDOCK:   -5.83 KCAL/MOL
REMARK 924 INTRA-LIGAND FREE ENERGY PREDICTED BY IDOCK:   -1.16 KCAL/MOL
REMARK 927      BINDING AFFINITY PREDICTED BY RF-SCORE:    0.00 PKD
ROOT
HETATM    1  C   UNL     1     -12.170  12.470  63.617  1.00  0.00    -0.642 C  
HETATM    2  C   UNL     1     -12.281  13.936  64.012  1.00  0.00    -0.413 C  
ENDROOT
BRANCH   2   3
HETATM    3  C   UNL     1     -11.807  14.153  65.449  1.00  0.00    -0.362 C  
BRANCH   3   4
HETATM    4  C   UNL     1     -12.251  13.021  66.383  1.00  0.00    -0.350 C  
HETATM    5  C   UNL     1     -11.235  12.718  67.506  1.00  0.00    -0.332 C  
HETATM    6  C   UNL     1     -10.859  13.941  68.373  1.00  0.00    -0.269 C  
HETATM    7  C   UNL     1     -11.727  11.535  68.367  1.00  0.00    -0.303 C  
HETATM    8  C   UNL     1     -11.990  14.484  69.235  1.00  0.00    -0.355 C  
BRANCH   7   9
HETATM    9  O   UNL     1     -10.773  11.297  69.418  1.00  0.00    -0.213 OA 
BRANCH   9  10
HETATM   10  C   UNL     1     -10.381  10.006  69.580  1.00  0.00    -0.235 C  
HETATM   11  O   UNL     1     -10.067   9.496  70.646  1.00  0.00    -0.263 OA 
BRANCH  10  12
HETATM   12  C   UNL     1     -10.571   9.217  68.311  1.00  0.00    -0.237 C  
BRANCH  12  13
HETATM   13  C   UNL     1      -9.299   8.543  67.806  1.00  0.00    -0.137 C  
HETATM   14  O   UNL     1      -9.626   9.646  65.418  1.00  0.00    -0.267 OA 
HETATM   15  S   UNL     1      -8.618   9.397  66.419  1.00  0.00    -0.137 S  
HETATM   16  O   UNL     1      -8.316  10.802  67.159  1.00  0.00    -0.123 OA 
HETATM   17  O   UNL     1      -7.311   8.871  66.094  1.00  0.00    -0.088 OA 
BRANCH  13  18
HETATM   18  C   UNL     1      -9.584   7.138  67.380  1.00  0.00    -0.137 C  
HETATM   19  O   UNL     1     -10.659   6.760  66.934  1.00  0.00    -0.280 OA 
BRANCH  18  20
HETATM   20  O   UNL     1      -8.558   6.310  67.727  1.00  0.00    -0.116 OA 
BRANCH  20  21
HETATM   21  C   UNL     1      -7.826   6.710  68.899  1.00  0.00    -0.111 C  
HETATM   22  C   UNL     1      -8.091   5.842  70.144  1.00  0.00    -0.110 C  
HETATM   23  C   UNL     1      -7.812   4.345  69.888  1.00  0.00    -0.053 C  
HETATM   24  C   UNL     1      -7.306   6.357  71.372  1.00  0.00    -0.084 C  
HETATM   25  C   UNL     1      -6.361   3.997  69.583  1.00  0.00    -0.028 C  
BRANCH  24  26
HETATM   26  C   UNL     1      -7.634   7.804  71.752  1.00  0.00    -0.088 C  
BRANCH  26  27
HETATM   27  C   UNL     1      -6.396   8.699  71.681  1.00  0.00    -0.069 C  
HETATM   28  C   UNL     1      -5.765   8.644  70.297  1.00  0.00    -0.024 C  
ENDBRANCH  26  27
ENDBRANCH  24  26
ENDBRANCH  20  21
ENDBRANCH  18  20
ENDBRANCH  13  18
ENDBRANCH  12  13
ENDBRANCH  10  12
ENDBRANCH   9  10
ENDBRANCH   7   9
ENDBRANCH   3   4
ENDBRANCH   2   3
TORSDOF 11
ENDMDL
MODEL      286
REMARK 921   NORMALIZED FREE ENERGY PREDICTED BY IDOCK:   -2.87 KCAL/MOL
REMARK 922        TOTAL FREE ENERGY PREDICTED BY IDOCK:   -6.96 KCAL/MOL
REMARK 923 INTER-LIGAND FREE ENERGY PREDICTED BY IDOCK:   -5.86 KCAL/MOL
REMARK 924 INTRA-LIGAND FREE ENERGY PREDICTED BY IDOCK:   -1.10 KCAL/MOL
REMARK 927      BINDING AFFINITY PREDICTED BY RF-SCORE:    0.00 PKD
ROOT
HETATM    1  C   UNL     1     -11.773  14.417  69.418  1.00  0.00    -0.362 C  
HETATM    2  C   UNL     1     -10.370  14.848  69.014  1.00  0.00    -0.245 C  
ENDROOT
BRANCH   2   3
HETATM    3  C   UNL     1     -10.095  14.516  67.547  1.00  0.00    -0.228 C  
BRANCH   3   4
HETATM    4  C   UNL     1      -9.450  13.136  67.377  1.00  0.00    -0.214 C  
HETATM    5  C   UNL     1     -10.474  12.006  67.129  1.00  0.00    -0.244 C  
HETATM    6  C   UNL     1     -11.415  12.251  65.928  1.00  0.00    -0.428 C  
HETATM    7  C   UNL     1      -9.753  10.645  67.022  1.00  0.00    -0.176 C  
HETATM    8  C   UNL     1     -10.732  12.238  64.568  1.00  0.00    -0.358 C  
BRANCH   7   9
HETATM    9  O   UNL     1     -10.730   9.620  66.764  1.00  0.00    -0.180 OA 
BRANCH   9  10
HETATM   10  C   UNL     1     -10.521   8.432  67.389  1.00  0.00    -0.283 C  
HETATM   11  O   UNL     1     -10.631   7.334  66.864  1.00  0.00    -0.316 OA 
BRANCH  10  12
HETATM   12  C   UNL     1      -9.940   8.636  68.764  1.00  0.00    -0.194 C  
BRANCH  12  13
HETATM   13  C   UNL     1     -10.819   8.101  69.891  1.00  0.00    -0.215 C  
HETATM   14  O   UNL     1      -9.264   9.265  71.695  1.00  0.00    -0.313 OA 
HETATM   15  S   UNL     1     -10.652   9.069  71.359  1.00  0.00    -0.347 S  
HETATM   16  O   UNL     1     -11.205  10.465  70.759  1.00  0.00    -0.326 OA 
HETATM   17  O   UNL     1     -11.643   8.678  72.336  1.00  0.00    -0.369 OA 
BRANCH  13  18
HETATM   18  C   UNL     1     -10.439   6.694  70.228  1.00  0.00    -0.209 C  
HETATM   19  O   UNL     1     -11.144   5.720  70.004  1.00  0.00    -0.348 OA 
BRANCH  18  20
HETATM   20  O   UNL     1      -9.300   6.668  70.977  1.00  0.00    -0.160 OA 
BRANCH  20  21
HETATM   21  C   UNL     1      -8.136   6.172  70.294  1.00  0.00    -0.112 C  
HETATM   22  C   UNL     1      -6.801   6.730  70.820  1.00  0.00    -0.059 C  
HETATM   23  C   UNL     1      -6.614   6.481  72.333  1.00  0.00    -0.059 C  
HETATM   24  C   UNL     1      -5.600   6.187  70.010  1.00  0.00    -0.013 C  
HETATM   25  C   UNL     1      -6.512   5.019  72.744  1.00  0.00    -0.048 C  
BRANCH  24  26
HETATM   26  C   UNL     1      -5.667   6.511  68.515  1.00  0.00    -0.016 C  
BRANCH  26  27
HETATM   27  C   UNL     1      -5.512   5.253  67.659  1.00  0.00    -0.012 C  
HETATM   28  C   UNL     1      -5.984   4.019  68.416  1.00  0.00    -0.027 C  
ENDBRANCH  26  27
ENDBRANCH  24  26
ENDBRANCH  20  21
ENDBRANCH  18  20
ENDBRANCH  13  18
ENDBRANCH  12  13
ENDBRANCH  10  12
ENDBRANCH   9  10
ENDBRANCH   7   9
ENDBRANCH   3   4
ENDBRANCH   2   3
TORSDOF 11
ENDMDL
MODEL      287
REMARK 921   NORMALIZED FREE ENERGY PREDICTED BY IDOCK:   -2.86 KCAL/MOL
REMARK 922        TOTAL FREE ENERGY PREDICTED BY IDOCK:   -6.95 KCAL/MOL
REMARK 923 INTER-LIGAND FREE ENERGY PREDICTED BY IDOCK:   -5.61 KCAL/MOL
REMARK 924 INTRA-LIGAND FREE ENERGY PREDICTED BY IDOCK:   -1.34 KCAL/MOL
REMARK 927      BINDING AFFINITY PREDICTED BY RF-SCORE:    0.00 PKD
ROOT
HETATM    1  C   UNL     1      -8.725  18.919  67.788  1.00  0.00    -0.318 C  
HETATM    2  C   UNL     1      -8.915  17.690  68.667  1.00  0.00    -0.261 C  
ENDROOT
BRANCH   2   3
HETATM    3  C   UNL     1     -10.286  17.056  68.433  1.00  0.00    -0.331 C  
BRANCH   3   4
HETATM    4  C   UNL     1     -10.250  15.987  67.334  1.00  0.00    -0.273 C  
HETATM    5  C   UNL     1     -10.033  14.557  67.876  1.00  0.00    -0.226 C  
HETATM    6  C   UNL     1     -11.061  14.117  68.944  1.00  0.00    -0.288 C  
HETATM    7  C   UNL     1      -9.956  13.549  66.709  1.00  0.00    -0.269 C  
HETATM    8  C   UNL     1     -12.484  13.950  68.430  1.00  0.00     0.251 C  
BRANCH   7   9
HETATM    9  O   UNL     1      -9.782  12.226  67.247  1.00  0.00    -0.192 OA 
BRANCH   9  10
HETATM   10  C   UNL     1      -9.714  11.220  66.336  1.00  0.00    -0.209 C  
HETATM   11  O   UNL     1     -10.539  11.011  65.459  1.00  0.00    -0.256 OA 
BRANCH  10  12
HETATM   12  C   UNL     1      -8.389  10.508  66.411  1.00  0.00    -0.145 C  
BRANCH  12  13
HETATM   13  C   UNL     1      -8.171   9.743  67.713  1.00  0.00    -0.114 C  
HETATM   14  O   UNL     1      -5.546   9.811  67.349  1.00  0.00    -0.039 OA 
HETATM   15  S   UNL     1      -6.551  10.015  68.362  1.00  0.00    -0.054 S  
HETATM   16  O   UNL     1      -6.679  11.608  68.599  1.00  0.00    -0.064 OA 
HETATM   17  O   UNL     1      -6.440   9.458  69.692  1.00  0.00    -0.038 OA 
BRANCH  13  18
HETATM   18  C   UNL     1      -8.332   8.273  67.491  1.00  0.00    -0.130 C  
HETATM   19  O   UNL     1      -7.565   7.591  66.825  1.00  0.00    -0.097 OA 
BRANCH  18  20
HETATM   20  O   UNL     1      -9.533   7.841  67.969  1.00  0.00    -0.143 OA 
BRANCH  20  21
HETATM   21  C   UNL     1      -9.654   7.849  69.402  1.00  0.00    -0.160 C  
HETATM   22  C   UNL     1     -10.639   6.807  69.964  1.00  0.00    -0.256 C  
HETATM   23  C   UNL     1     -10.294   5.369  69.517  1.00  0.00    -0.350 C  
HETATM   24  C   UNL     1     -10.750   6.904  71.504  1.00  0.00    -0.248 C  
HETATM   25  C   UNL     1      -8.964   4.832  70.026  1.00  0.00    -0.139 C  
BRANCH  24  26
HETATM   26  C   UNL     1     -11.210   8.276  72.004  1.00  0.00    -0.389 C  
BRANCH  26  27
HETATM   27  C   UNL     1     -12.713   8.474  71.804  1.00  0.00    -0.385 C  
HETATM   28  C   UNL     1     -13.006   9.847  71.214  1.00  0.00    -0.488 C  
ENDBRANCH  26  27
ENDBRANCH  24  26
ENDBRANCH  20  21
ENDBRANCH  18  20
ENDBRANCH  13  18
ENDBRANCH  12  13
ENDBRANCH  10  12
ENDBRANCH   9  10
ENDBRANCH   7   9
ENDBRANCH   3   4
ENDBRANCH   2   3
TORSDOF 11
ENDMDL
MODEL      288
REMARK 921   NORMALIZED FREE ENERGY PREDICTED BY IDOCK:   -2.86 KCAL/MOL
REMARK 922        TOTAL FREE ENERGY PREDICTED BY IDOCK:   -6.95 KCAL/MOL
REMARK 923 INTER-LIGAND FREE ENERGY PREDICTED BY IDOCK:   -6.76 KCAL/MOL
REMARK 924 INTRA-LIGAND FREE ENERGY PREDICTED BY IDOCK:   -0.19 KCAL/MOL
REMARK 927      BINDING AFFINITY PREDICTED BY RF-SCORE:    0.00 PKD
ROOT
HETATM    1  C   UNL     1      -5.126   8.647  62.821  1.00  0.00    -0.068 C  
HETATM    2  C   UNL     1      -5.915   9.597  63.711  1.00  0.00    -0.100 C  
ENDROOT
BRANCH   2   3
HETATM    3  C   UNL     1      -7.375   9.680  63.267  1.00  0.00    -0.117 C  
BRANCH   3   4
HETATM    4  C   UNL     1      -8.250   8.625  63.954  1.00  0.00    -0.147 C  
HETATM    5  C   UNL     1      -8.256   8.741  65.494  1.00  0.00    -0.133 C  
HETATM    6  C   UNL     1      -8.668  10.133  66.027  1.00  0.00    -0.153 C  
HETATM    7  C   UNL     1      -9.113   7.616  66.112  1.00  0.00    -0.144 C  
HETATM    8  C   UNL     1     -10.119  10.512  65.768  1.00  0.00    -0.329 C  
BRANCH   7   9
HETATM    9  O   UNL     1      -9.120   7.769  67.543  1.00  0.00    -0.129 OA 
BRANCH   9  10
HETATM   10  C   UNL     1     -10.005   6.989  68.218  1.00  0.00    -0.153 C  
HETATM   11  O   UNL     1     -11.145   6.744  67.851  1.00  0.00    -0.238 OA 
BRANCH  10  12
HETATM   12  C   UNL     1      -9.343   6.296  69.380  1.00  0.00    -0.145 C  
BRANCH  12  13
HETATM   13  C   UNL     1      -9.468   7.050  70.701  1.00  0.00    -0.165 C  
HETATM   14  O   UNL     1     -12.070   6.549  70.776  1.00  0.00    -0.362 OA 
HETATM   15  S   UNL     1     -10.893   6.537  71.609  1.00  0.00    -0.249 S  
HETATM   16  O   UNL     1     -10.467   4.992  71.821  1.00  0.00    -0.211 OA 
HETATM   17  O   UNL     1     -10.874   7.103  72.939  1.00  0.00    -0.272 OA 
BRANCH  13  18
HETATM   18  C   UNL     1      -9.589   8.520  70.455  1.00  0.00    -0.170 C  
HETATM   19  O   UNL     1      -8.659   9.310  70.541  1.00  0.00    -0.198 OA 
BRANCH  18  20
HETATM   20  O   UNL     1     -10.896   8.879  70.309  1.00  0.00    -0.230 OA 
BRANCH  20  21
HETATM   21  C   UNL     1     -11.257  10.125  70.930  1.00  0.00    -0.307 C  
HETATM   22  C   UNL     1     -12.730  10.532  70.735  1.00  0.00    -0.471 C  
HETATM   23  C   UNL     1     -13.711   9.445  71.230  1.00  0.00    -0.248 C  
HETATM   24  C   UNL     1     -13.032  11.899  71.391  1.00  0.00    -0.385 C  
HETATM   25  C   UNL     1     -13.670   9.165  72.726  1.00  0.00    -0.285 C  
BRANCH  24  26
HETATM   26  C   UNL     1     -12.172  13.046  70.850  1.00  0.00    -0.310 C  
BRANCH  26  27
HETATM   27  C   UNL     1     -12.642  14.401  71.382  1.00  0.00    -0.426 C  
HETATM   28  C   UNL     1     -13.933  14.254  72.176  1.00  0.00    -0.618 C  
ENDBRANCH  26  27
ENDBRANCH  24  26
ENDBRANCH  20  21
ENDBRANCH  18  20
ENDBRANCH  13  18
ENDBRANCH  12  13
ENDBRANCH  10  12
ENDBRANCH   9  10
ENDBRANCH   7   9
ENDBRANCH   3   4
ENDBRANCH   2   3
TORSDOF 11
ENDMDL
MODEL      289
REMARK 921   NORMALIZED FREE ENERGY PREDICTED BY IDOCK:   -2.86 KCAL/MOL
REMARK 922        TOTAL FREE ENERGY PREDICTED BY IDOCK:   -6.94 KCAL/MOL
REMARK 923 INTER-LIGAND FREE ENERGY PREDICTED BY IDOCK:   -6.51 KCAL/MOL
REMARK 924 INTRA-LIGAND FREE ENERGY PREDICTED BY IDOCK:   -0.43 KCAL/MOL
REMARK 927      BINDING AFFINITY PREDICTED BY RF-SCORE:    0.00 PKD
ROOT
HETATM    1  C   UNL     1      -6.853  20.127  69.784  1.00  0.00    -0.155 C  
HETATM    2  C   UNL     1      -7.245  19.093  68.739  1.00  0.00    -0.368 C  
ENDROOT
BRANCH   2   3
HETATM    3  C   UNL     1      -7.224  17.683  69.327  1.00  0.00    -0.079 C  
BRANCH   3   4
HETATM    4  C   UNL     1      -7.716  16.630  68.327  1.00  0.00    -0.183 C  
HETATM    5  C   UNL     1      -8.688  15.602  68.947  1.00  0.00    -0.215 C  
HETATM    6  C   UNL     1      -9.923  16.227  69.636  1.00  0.00    -0.137 C  
HETATM    7  C   UNL     1      -9.094  14.548  67.894  1.00  0.00    -0.191 C  
HETATM    8  C   UNL     1     -10.897  16.920  68.694  1.00  0.00    -0.314 C  
BRANCH   7   9
HETATM    9  O   UNL     1     -10.020  13.624  68.494  1.00  0.00    -0.231 OA 
BRANCH   9  10
HETATM   10  C   UNL     1     -10.999  13.153  67.678  1.00  0.00    -0.262 C  
HETATM   11  O   UNL     1     -11.964  12.498  68.045  1.00  0.00    -0.342 OA 
BRANCH  10  12
HETATM   12  C   UNL     1     -10.857  13.706  66.284  1.00  0.00    -0.282 C  
BRANCH  12  13
HETATM   13  C   UNL     1     -10.219  12.734  65.296  1.00  0.00    -0.279 C  
HETATM   14  O   UNL     1     -12.573  11.601  64.843  1.00  0.00     0.008 OA 
HETATM   15  S   UNL     1     -11.406  12.095  64.155  1.00  0.00    -0.413 S  
HETATM   16  O   UNL     1     -11.812  13.498  63.462  1.00  0.00    -0.401 OA 
HETATM   17  O   UNL     1     -10.747  11.350  63.106  1.00  0.00    -0.304 OA 
BRANCH  13  18
HETATM   18  C   UNL     1      -9.613  11.573  66.020  1.00  0.00    -0.228 C  
HETATM   19  O   UNL     1      -8.454  11.536  66.411  1.00  0.00    -0.175 OA 
BRANCH  18  20
HETATM   20  O   UNL     1     -10.462  10.507  66.018  1.00  0.00    -0.225 OA 
BRANCH  20  21
HETATM   21  C   UNL     1     -10.277   9.581  67.102  1.00  0.00    -0.242 C  
HETATM   22  C   UNL     1     -10.092   8.116  66.667  1.00  0.00    -0.344 C  
HETATM   23  C   UNL     1      -8.919   7.940  65.677  1.00  0.00    -0.077 C  
HETATM   24  C   UNL     1      -9.944   7.176  67.886  1.00  0.00    -0.186 C  
HETATM   25  C   UNL     1      -7.541   8.263  66.238  1.00  0.00    -0.096 C  
BRANCH  24  26
HETATM   26  C   UNL     1     -11.138   7.214  68.844  1.00  0.00    -0.035 C  
BRANCH  26  27
HETATM   27  C   UNL     1     -11.079   6.075  69.863  1.00  0.00    -0.469 C  
HETATM   28  C   UNL     1     -10.145   4.970  69.388  1.00  0.00    -0.288 C  
ENDBRANCH  26  27
ENDBRANCH  24  26
ENDBRANCH  20  21
ENDBRANCH  18  20
ENDBRANCH  13  18
ENDBRANCH  12  13
ENDBRANCH  10  12
ENDBRANCH   9  10
ENDBRANCH   7   9
ENDBRANCH   3   4
ENDBRANCH   2   3
TORSDOF 11
ENDMDL
MODEL      290
REMARK 921   NORMALIZED FREE ENERGY PREDICTED BY IDOCK:   -2.86 KCAL/MOL
REMARK 922        TOTAL FREE ENERGY PREDICTED BY IDOCK:   -6.94 KCAL/MOL
REMARK 923 INTER-LIGAND FREE ENERGY PREDICTED BY IDOCK:   -7.57 KCAL/MOL
REMARK 924 INTRA-LIGAND FREE ENERGY PREDICTED BY IDOCK:    0.63 KCAL/MOL
REMARK 927      BINDING AFFINITY PREDICTED BY RF-SCORE:    0.00 PKD
ROOT
HETATM    1  C   UNL     1      -6.009  19.501  69.160  1.00  0.00    -0.288 C  
HETATM    2  C   UNL     1      -6.128  20.801  68.377  1.00  0.00    -0.379 C  
ENDROOT
BRANCH   2   3
HETATM    3  C   UNL     1      -7.438  20.849  67.591  1.00  0.00    -0.239 C  
BRANCH   3   4
HETATM    4  C   UNL     1      -7.614  19.626  66.683  1.00  0.00    -0.278 C  
HETATM    5  C   UNL     1      -8.942  18.873  66.919  1.00  0.00    -0.306 C  
HETATM    6  C   UNL     1     -10.206  19.755  66.792  1.00  0.00    -0.582 C  
HETATM    7  C   UNL     1      -9.020  17.629  66.009  1.00  0.00    -0.005 C  
HETATM    8  C   UNL     1     -10.486  20.271  65.388  1.00  0.00    -0.020 C  
BRANCH   7   9
HETATM    9  O   UNL     1     -10.279  16.968  66.233  1.00  0.00    -0.311 OA 
BRANCH   9  10
HETATM   10  C   UNL     1     -10.652  16.068  65.284  1.00  0.00    -0.402 C  
HETATM   11  O   UNL     1     -11.310  16.331  64.288  1.00  0.00    -0.741 OA 
BRANCH  10  12
HETATM   12  C   UNL     1      -9.984  14.736  65.507  1.00  0.00    -0.390 C  
BRANCH  12  13
HETATM   13  C   UNL     1     -10.503  13.981  66.727  1.00  0.00    -0.277 C  
HETATM   14  O   UNL     1     -12.946  13.936  65.698  1.00  0.00    -0.599 OA 
HETATM   15  S   UNL     1     -11.983  13.091  66.358  1.00  0.00    -0.368 S  
HETATM   16  O   UNL     1     -11.364  12.101  65.240  1.00  0.00    -0.324 OA 
HETATM   17  O   UNL     1     -12.335  12.221  67.458  1.00  0.00    -0.330 OA 
BRANCH  13  18
HETATM   18  C   UNL     1     -10.809  14.932  67.840  1.00  0.00    -0.276 C  
HETATM   19  O   UNL     1     -11.917  15.407  68.053  1.00  0.00    -0.227 OA 
BRANCH  18  20
HETATM   20  O   UNL     1      -9.664  15.336  68.459  1.00  0.00    -0.200 OA 
BRANCH  20  21
HETATM   21  C   UNL     1      -8.755  14.276  68.805  1.00  0.00    -0.096 C  
HETATM   22  C   UNL     1      -7.752  13.907  67.697  1.00  0.00    -0.193 C  
HETATM   23  C   UNL     1      -6.920  15.122  67.228  1.00  0.00    -0.123 C  
HETATM   24  C   UNL     1      -6.840  12.734  68.124  1.00  0.00    -0.094 C  
HETATM   25  C   UNL     1      -5.998  15.723  68.280  1.00  0.00    -0.114 C  
BRANCH  24  26
HETATM   26  C   UNL     1      -7.605  11.456  68.483  1.00  0.00    -0.129 C  
BRANCH  26  27
HETATM   27  C   UNL     1      -7.969  10.649  67.237  1.00  0.00    -0.116 C  
HETATM   28  C   UNL     1      -9.381  10.089  67.345  1.00  0.00    -0.167 C  
ENDBRANCH  26  27
ENDBRANCH  24  26
ENDBRANCH  20  21
ENDBRANCH  18  20
ENDBRANCH  13  18
ENDBRANCH  12  13
ENDBRANCH  10  12
ENDBRANCH   9  10
ENDBRANCH   7   9
ENDBRANCH   3   4
ENDBRANCH   2   3
TORSDOF 11
ENDMDL
MODEL      291
REMARK 921   NORMALIZED FREE ENERGY PREDICTED BY IDOCK:   -2.85 KCAL/MOL
REMARK 922        TOTAL FREE ENERGY PREDICTED BY IDOCK:   -6.93 KCAL/MOL
REMARK 923 INTER-LIGAND FREE ENERGY PREDICTED BY IDOCK:   -5.10 KCAL/MOL
REMARK 924 INTRA-LIGAND FREE ENERGY PREDICTED BY IDOCK:   -1.84 KCAL/MOL
REMARK 927      BINDING AFFINITY PREDICTED BY RF-SCORE:    0.00 PKD
ROOT
HETATM    1  C   UNL     1      -6.646   4.924  63.702  1.00  0.00    -0.037 C  
HETATM    2  C   UNL     1      -5.533   5.865  64.142  1.00  0.00    -0.017 C  
ENDROOT
BRANCH   2   3
HETATM    3  C   UNL     1      -6.069   7.278  64.372  1.00  0.00    -0.037 C  
BRANCH   3   4
HETATM    4  C   UNL     1      -7.121   7.325  65.486  1.00  0.00    -0.064 C  
HETATM    5  C   UNL     1      -6.515   7.267  66.906  1.00  0.00    -0.055 C  
HETATM    6  C   UNL     1      -5.459   8.359  67.192  1.00  0.00    -0.038 C  
HETATM    7  C   UNL     1      -7.636   7.264  67.967  1.00  0.00    -0.115 C  
HETATM    8  C   UNL     1      -6.005   9.779  67.238  1.00  0.00    -0.051 C  
BRANCH   7   9
HETATM    9  O   UNL     1      -7.037   7.238  69.275  1.00  0.00    -0.074 OA 
BRANCH   9  10
HETATM   10  C   UNL     1      -7.695   7.934  70.240  1.00  0.00    -0.088 C  
HETATM   11  O   UNL     1      -7.161   8.649  71.075  1.00  0.00    -0.062 OA 
BRANCH  10  12
HETATM   12  C   UNL     1      -9.185   7.876  70.033  1.00  0.00    -0.153 C  
BRANCH  12  13
HETATM   13  C   UNL     1      -9.993   8.450  71.193  1.00  0.00    -0.194 C  
HETATM   14  O   UNL     1     -11.654   6.386  71.096  1.00  0.00    -0.314 OA 
HETATM   15  S   UNL     1     -10.910   7.193  72.030  1.00  0.00    -0.228 S  
HETATM   16  O   UNL     1      -9.652   6.311  72.534  1.00  0.00    -0.145 OA 
HETATM   17  O   UNL     1     -11.493   7.718  73.244  1.00  0.00    -0.295 OA 
BRANCH  13  18
HETATM   18  C   UNL     1     -10.968   9.470  70.698  1.00  0.00    -0.306 C  
HETATM   19  O   UNL     1     -12.172   9.429  70.909  1.00  0.00    -0.286 OA 
BRANCH  18  20
HETATM   20  O   UNL     1     -10.363  10.337  69.837  1.00  0.00    -0.255 OA 
BRANCH  20  21
HETATM   21  C   UNL     1     -11.225  10.889  68.826  1.00  0.00    -0.270 C  
HETATM   22  C   UNL     1     -10.493  11.395  67.570  1.00  0.00    -0.233 C  
HETATM   23  C   UNL     1      -9.622  10.301  66.915  1.00  0.00    -0.211 C  
HETATM   24  C   UNL     1     -11.478  12.014  66.550  1.00  0.00    -0.413 C  
HETATM   25  C   UNL     1     -10.388   9.108  66.357  1.00  0.00    -0.235 C  
BRANCH  24  26
HETATM   26  C   UNL     1     -12.285  13.190  67.107  1.00  0.00    -0.250 C  
BRANCH  26  27
HETATM   27  C   UNL     1     -11.376  14.335  67.556  1.00  0.00    -0.346 C  
HETATM   28  C   UNL     1     -11.552  14.618  69.042  1.00  0.00    -0.328 C  
ENDBRANCH  26  27
ENDBRANCH  24  26
ENDBRANCH  20  21
ENDBRANCH  18  20
ENDBRANCH  13  18
ENDBRANCH  12  13
ENDBRANCH  10  12
ENDBRANCH   9  10
ENDBRANCH   7   9
ENDBRANCH   3   4
ENDBRANCH   2   3
TORSDOF 11
ENDMDL
MODEL      292
REMARK 921   NORMALIZED FREE ENERGY PREDICTED BY IDOCK:   -2.85 KCAL/MOL
REMARK 922        TOTAL FREE ENERGY PREDICTED BY IDOCK:   -6.93 KCAL/MOL
REMARK 923 INTER-LIGAND FREE ENERGY PREDICTED BY IDOCK:   -5.90 KCAL/MOL
REMARK 924 INTRA-LIGAND FREE ENERGY PREDICTED BY IDOCK:   -1.04 KCAL/MOL
REMARK 927      BINDING AFFINITY PREDICTED BY RF-SCORE:    0.00 PKD
ROOT
HETATM    1  C   UNL     1     -12.025  13.588  66.891  1.00  0.00    -0.447 C  
HETATM    2  C   UNL     1     -11.058  13.383  68.049  1.00  0.00    -0.281 C  
ENDROOT
BRANCH   2   3
HETATM    3  C   UNL     1     -11.753  12.704  69.229  1.00  0.00    -0.379 C  
BRANCH   3   4
HETATM    4  C   UNL     1     -11.833  11.182  69.057  1.00  0.00    -0.418 C  
HETATM    5  C   UNL     1     -11.395  10.399  70.314  1.00  0.00    -0.406 C  
HETATM    6  C   UNL     1     -12.161  10.781  71.602  1.00  0.00    -0.184 C  
HETATM    7  C   UNL     1     -11.453   8.880  70.044  1.00  0.00     0.033 C  
HETATM    8  C   UNL     1     -13.635  10.404  71.603  1.00  0.00    -0.211 C  
BRANCH   7   9
HETATM    9  O   UNL     1     -11.067   8.180  71.242  1.00  0.00    -0.239 OA 
BRANCH   9  10
HETATM   10  C   UNL     1     -11.051   6.824  71.155  1.00  0.00    -0.270 C  
HETATM   11  O   UNL     1     -11.553   6.173  70.251  1.00  0.00    -0.362 OA 
BRANCH  10  12
HETATM   12  C   UNL     1     -10.161   6.223  72.211  1.00  0.00    -0.209 C  
BRANCH  12  13
HETATM   13  C   UNL     1      -8.687   6.170  71.820  1.00  0.00    -0.137 C  
HETATM   14  O   UNL     1      -8.321   8.625  72.751  1.00  0.00    -0.388 OA 
HETATM   15  S   UNL     1      -7.724   7.313  72.761  1.00  0.00    -0.088 S  
HETATM   16  O   UNL     1      -7.996   6.671  74.220  1.00  0.00    -0.107 OA 
HETATM   17  O   UNL     1      -6.314   7.096  72.528  1.00  0.00    -0.051 OA 
BRANCH  13  18
HETATM   18  C   UNL     1      -8.516   6.513  70.374  1.00  0.00    -0.131 C  
HETATM   19  O   UNL     1      -8.566   5.698  69.463  1.00  0.00    -0.108 OA 
BRANCH  18  20
HETATM   20  O   UNL     1      -8.117   7.809  70.230  1.00  0.00    -0.108 OA 
BRANCH  20  21
HETATM   21  C   UNL     1      -7.923   8.237  68.871  1.00  0.00    -0.113 C  
HETATM   22  C   UNL     1      -8.216   9.728  68.623  1.00  0.00    -0.106 C  
HETATM   23  C   UNL     1      -7.386  10.652  69.542  1.00  0.00    -0.141 C  
HETATM   24  C   UNL     1      -8.028  10.103  67.134  1.00  0.00    -0.109 C  
HETATM   25  C   UNL     1      -5.880  10.601  69.326  1.00  0.00    -0.041 C  
BRANCH  24  26
HETATM   26  C   UNL     1      -8.919   9.304  66.179  1.00  0.00    -0.202 C  
BRANCH  26  27
HETATM   27  C   UNL     1     -10.220  10.046  65.869  1.00  0.00    -0.275 C  
HETATM   28  C   UNL     1     -10.116  10.792  64.545  1.00  0.00    -0.415 C  
ENDBRANCH  26  27
ENDBRANCH  24  26
ENDBRANCH  20  21
ENDBRANCH  18  20
ENDBRANCH  13  18
ENDBRANCH  12  13
ENDBRANCH  10  12
ENDBRANCH   9  10
ENDBRANCH   7   9
ENDBRANCH   3   4
ENDBRANCH   2   3
TORSDOF 11
ENDMDL
MODEL      293
REMARK 921   NORMALIZED FREE ENERGY PREDICTED BY IDOCK:   -2.84 KCAL/MOL
REMARK 922        TOTAL FREE ENERGY PREDICTED BY IDOCK:   -6.92 KCAL/MOL
REMARK 923 INTER-LIGAND FREE ENERGY PREDICTED BY IDOCK:   -6.30 KCAL/MOL
REMARK 924 INTRA-LIGAND FREE ENERGY PREDICTED BY IDOCK:   -0.62 KCAL/MOL
REMARK 927      BINDING AFFINITY PREDICTED BY RF-SCORE:    0.00 PKD
ROOT
HETATM    1  C   UNL     1      -9.171   2.860  67.259  1.00  0.00    -0.205 C  
HETATM    2  C   UNL     1      -7.815   3.254  66.689  1.00  0.00    -0.080 C  
ENDROOT
BRANCH   2   3
HETATM    3  C   UNL     1      -7.335   4.578  67.282  1.00  0.00    -0.074 C  
BRANCH   3   4
HETATM    4  C   UNL     1      -7.669   5.772  66.379  1.00  0.00    -0.099 C  
HETATM    5  C   UNL     1      -8.127   7.023  67.161  1.00  0.00    -0.118 C  
HETATM    6  C   UNL     1      -7.130   7.499  68.242  1.00  0.00    -0.084 C  
HETATM    7  C   UNL     1      -8.495   8.159  66.183  1.00  0.00    -0.136 C  
HETATM    8  C   UNL     1      -5.814   8.040  67.703  1.00  0.00    -0.042 C  
BRANCH   7   9
HETATM    9  O   UNL     1      -8.890   9.317  66.942  1.00  0.00    -0.125 OA 
BRANCH   9  10
HETATM   10  C   UNL     1      -9.243  10.409  66.214  1.00  0.00    -0.166 C  
HETATM   11  O   UNL     1      -8.473  11.091  65.555  1.00  0.00    -0.159 OA 
BRANCH  10  12
HETATM   12  C   UNL     1     -10.740  10.564  66.158  1.00  0.00    -0.115 C  
BRANCH  12  13
HETATM   13  C   UNL     1     -11.291  11.602  67.131  1.00  0.00    -0.306 C  
HETATM   14  O   UNL     1     -10.499  13.563  65.533  1.00  0.00    -0.283 OA 
HETATM   15  S   UNL     1     -11.627  13.136  66.323  1.00  0.00    -0.375 S  
HETATM   16  O   UNL     1     -12.755  12.594  65.298  1.00  0.00    -0.652 OA 
HETATM   17  O   UNL     1     -12.341  14.027  67.209  1.00  0.00    -0.351 OA 
BRANCH  13  18
HETATM   18  C   UNL     1     -10.305  11.871  68.224  1.00  0.00    -0.201 C  
HETATM   19  O   UNL     1      -9.232  12.435  68.058  1.00  0.00    -0.190 OA 
BRANCH  18  20
HETATM   20  O   UNL     1     -10.679  11.244  69.375  1.00  0.00    -0.213 OA 
BRANCH  20  21
HETATM   21  C   UNL     1     -11.158   9.898  69.206  1.00  0.00    -0.181 C  
HETATM   22  C   UNL     1     -11.096   9.034  70.479  1.00  0.00    -0.297 C  
HETATM   23  C   UNL     1     -11.858   9.672  71.661  1.00  0.00    -0.457 C  
HETATM   24  C   UNL     1     -11.584   7.591  70.210  1.00  0.00    -0.114 C  
HETATM   25  C   UNL     1     -13.362   9.812  71.466  1.00  0.00    -0.468 C  
BRANCH  24  26
HETATM   26  C   UNL     1     -10.783   6.860  69.129  1.00  0.00    -0.262 C  
BRANCH  26  27
HETATM   27  C   UNL     1     -10.515   5.405  69.514  1.00  0.00    -0.343 C  
HETATM   28  C   UNL     1      -9.378   5.310  70.522  1.00  0.00    -0.205 C  
ENDBRANCH  26  27
ENDBRANCH  24  26
ENDBRANCH  20  21
ENDBRANCH  18  20
ENDBRANCH  13  18
ENDBRANCH  12  13
ENDBRANCH  10  12
ENDBRANCH   9  10
ENDBRANCH   7   9
ENDBRANCH   3   4
ENDBRANCH   2   3
TORSDOF 11
ENDMDL
MODEL      294
REMARK 921   NORMALIZED FREE ENERGY PREDICTED BY IDOCK:   -2.83 KCAL/MOL
REMARK 922        TOTAL FREE ENERGY PREDICTED BY IDOCK:   -6.90 KCAL/MOL
REMARK 923 INTER-LIGAND FREE ENERGY PREDICTED BY IDOCK:   -5.69 KCAL/MOL
REMARK 924 INTRA-LIGAND FREE ENERGY PREDICTED BY IDOCK:   -1.22 KCAL/MOL
REMARK 927      BINDING AFFINITY PREDICTED BY RF-SCORE:    0.00 PKD
ROOT
HETATM    1  C   UNL     1     -12.900  15.836  72.051  1.00  0.00    -0.511 C  
HETATM    2  C   UNL     1     -12.463  14.428  71.672  1.00  0.00    -0.427 C  
ENDROOT
BRANCH   2   3
HETATM    3  C   UNL     1     -12.388  14.267  70.154  1.00  0.00    -0.413 C  
BRANCH   3   4
HETATM    4  C   UNL     1     -11.673  12.974  69.743  1.00  0.00    -0.346 C  
HETATM    5  C   UNL     1     -11.931  12.570  68.275  1.00  0.00    -0.274 C  
HETATM    6  C   UNL     1     -11.579  13.666  67.242  1.00  0.00    -0.387 C  
HETATM    7  C   UNL     1     -11.224  11.236  67.956  1.00  0.00    -0.287 C  
HETATM    8  C   UNL     1     -10.096  13.986  67.131  1.00  0.00    -0.259 C  
BRANCH   7   9
HETATM    9  O   UNL     1     -11.459  10.903  66.575  1.00  0.00    -0.173 OA 
BRANCH   9  10
HETATM   10  C   UNL     1     -10.488  10.171  65.968  1.00  0.00    -0.095 C  
HETATM   11  O   UNL     1     -10.271  10.155  64.766  1.00  0.00    -0.296 OA 
BRANCH  10  12
HETATM   12  C   UNL     1      -9.577   9.531  66.982  1.00  0.00    -0.214 C  
BRANCH  12  13
HETATM   13  C   UNL     1      -8.956   8.218  66.512  1.00  0.00    -0.156 C  
HETATM   14  O   UNL     1      -9.577   7.065  68.817  1.00  0.00    -0.140 OA 
HETATM   15  S   UNL     1      -9.614   6.836  67.394  1.00  0.00    -0.140 S  
HETATM   16  O   UNL     1     -11.152   6.993  66.921  1.00  0.00    -0.359 OA 
HETATM   17  O   UNL     1      -9.174   5.598  66.792  1.00  0.00    -0.123 OA 
BRANCH  13  18
HETATM   18  C   UNL     1      -7.476   8.232  66.727  1.00  0.00    -0.087 C  
HETATM   19  O   UNL     1      -6.651   8.207  65.825  1.00  0.00    -0.051 OA 
BRANCH  18  20
HETATM   20  O   UNL     1      -7.180   8.092  68.050  1.00  0.00    -0.089 OA 
BRANCH  20  21
HETATM   21  C   UNL     1      -6.383   9.150  68.610  1.00  0.00    -0.049 C  
HETATM   22  C   UNL     1      -7.123  10.034  69.632  1.00  0.00    -0.104 C  
HETATM   23  C   UNL     1      -7.720   9.213  70.796  1.00  0.00    -0.162 C  
HETATM   24  C   UNL     1      -6.219  11.174  70.155  1.00  0.00    -0.147 C  
HETATM   25  C   UNL     1      -6.703   8.511  71.685  1.00  0.00    -0.079 C  
BRANCH  24  26
HETATM   26  C   UNL     1      -5.694  12.100  69.055  1.00  0.00    -0.062 C  
BRANCH  26  27
HETATM   27  C   UNL     1      -5.953  13.571  69.385  1.00  0.00    -0.097 C  
HETATM   28  C   UNL     1      -5.445  13.911  70.780  1.00  0.00    -0.163 C  
ENDBRANCH  26  27
ENDBRANCH  24  26
ENDBRANCH  20  21
ENDBRANCH  18  20
ENDBRANCH  13  18
ENDBRANCH  12  13
ENDBRANCH  10  12
ENDBRANCH   9  10
ENDBRANCH   7   9
ENDBRANCH   3   4
ENDBRANCH   2   3
TORSDOF 11
ENDMDL
MODEL      295
REMARK 921   NORMALIZED FREE ENERGY PREDICTED BY IDOCK:   -2.83 KCAL/MOL
REMARK 922        TOTAL FREE ENERGY PREDICTED BY IDOCK:   -6.90 KCAL/MOL
REMARK 923 INTER-LIGAND FREE ENERGY PREDICTED BY IDOCK:   -6.18 KCAL/MOL
REMARK 924 INTRA-LIGAND FREE ENERGY PREDICTED BY IDOCK:   -0.72 KCAL/MOL
REMARK 927      BINDING AFFINITY PREDICTED BY RF-SCORE:    0.00 PKD
ROOT
HETATM    1  C   UNL     1      -9.986  15.685  69.505  1.00  0.00    -0.285 C  
HETATM    2  C   UNL     1      -9.873  15.738  67.988  1.00  0.00    -0.217 C  
ENDROOT
BRANCH   2   3
HETATM    3  C   UNL     1     -10.512  14.506  67.347  1.00  0.00    -0.264 C  
BRANCH   3   4
HETATM    4  C   UNL     1     -10.427  13.272  68.253  1.00  0.00    -0.257 C  
HETATM    5  C   UNL     1      -9.623  12.109  67.631  1.00  0.00    -0.190 C  
HETATM    6  C   UNL     1      -8.189  12.487  67.195  1.00  0.00    -0.168 C  
HETATM    7  C   UNL     1      -9.629  10.889  68.578  1.00  0.00    -0.187 C  
HETATM    8  C   UNL     1      -7.243  12.830  68.337  1.00  0.00    -0.115 C  
BRANCH   7   9
HETATM    9  O   UNL     1      -8.849   9.835  67.983  1.00  0.00    -0.119 OA 
BRANCH   9  10
HETATM   10  C   UNL     1      -9.538   8.950  67.216  1.00  0.00    -0.164 C  
HETATM   11  O   UNL     1     -10.738   9.004  66.988  1.00  0.00    -0.242 OA 
BRANCH  10  12
HETATM   12  C   UNL     1      -8.606   7.999  66.513  1.00  0.00    -0.148 C  
BRANCH  12  13
HETATM   13  C   UNL     1      -8.413   6.671  67.239  1.00  0.00    -0.120 C  
HETATM   14  O   UNL     1     -10.874   5.927  66.592  1.00  0.00    -0.301 OA 
HETATM   15  S   UNL     1      -9.520   5.435  66.635  1.00  0.00    -0.154 S  
HETATM   16  O   UNL     1      -8.976   5.387  65.113  1.00  0.00    -0.147 OA 
HETATM   17  O   UNL     1      -9.178   4.141  67.182  1.00  0.00    -0.133 OA 
BRANCH  13  18
HETATM   18  C   UNL     1      -8.669   6.834  68.704  1.00  0.00    -0.125 C  
HETATM   19  O   UNL     1      -7.806   7.114  69.525  1.00  0.00    -0.114 OA 
BRANCH  18  20
HETATM   20  O   UNL     1      -9.939   6.450  69.018  1.00  0.00    -0.142 OA 
BRANCH  20  21
HETATM   21  C   UNL     1     -10.567   7.221  70.056  1.00  0.00    -0.233 C  
HETATM   22  C   UNL     1     -11.449   6.401  71.016  1.00  0.00    -0.394 C  
HETATM   23  C   UNL     1     -10.675   5.240  71.679  1.00  0.00    -0.227 C  
HETATM   24  C   UNL     1     -12.125   7.302  72.075  1.00  0.00    -0.327 C  
HETATM   25  C   UNL     1      -9.538   5.660  72.600  1.00  0.00    -0.164 C  
BRANCH  24  26
HETATM   26  C   UNL     1     -13.009   8.401  71.478  1.00  0.00    -0.319 C  
BRANCH  26  27
HETATM   27  C   UNL     1     -12.563   9.791  71.932  1.00  0.00    -0.479 C  
HETATM   28  C   UNL     1     -12.823  10.827  70.845  1.00  0.00    -0.443 C  
ENDBRANCH  26  27
ENDBRANCH  24  26
ENDBRANCH  20  21
ENDBRANCH  18  20
ENDBRANCH  13  18
ENDBRANCH  12  13
ENDBRANCH  10  12
ENDBRANCH   9  10
ENDBRANCH   7   9
ENDBRANCH   3   4
ENDBRANCH   2   3
TORSDOF 11
ENDMDL
MODEL      296
REMARK 921   NORMALIZED FREE ENERGY PREDICTED BY IDOCK:   -2.82 KCAL/MOL
REMARK 922        TOTAL FREE ENERGY PREDICTED BY IDOCK:   -6.89 KCAL/MOL
REMARK 923 INTER-LIGAND FREE ENERGY PREDICTED BY IDOCK:   -5.86 KCAL/MOL
REMARK 924 INTRA-LIGAND FREE ENERGY PREDICTED BY IDOCK:   -1.02 KCAL/MOL
REMARK 927      BINDING AFFINITY PREDICTED BY RF-SCORE:    0.00 PKD
ROOT
HETATM    1  C   UNL     1     -12.270  13.862  69.921  1.00  0.00    -0.393 C  
HETATM    2  C   UNL     1     -11.199  14.811  69.401  1.00  0.00    -0.308 C  
ENDROOT
BRANCH   2   3
HETATM    3  C   UNL     1     -11.427  15.139  67.926  1.00  0.00    -0.344 C  
BRANCH   3   4
HETATM    4  C   UNL     1     -10.448  14.394  67.009  1.00  0.00    -0.268 C  
HETATM    5  C   UNL     1     -11.021  13.077  66.441  1.00  0.00    -0.301 C  
HETATM    6  C   UNL     1     -12.361  13.238  65.688  1.00  0.00    -0.521 C  
HETATM    7  C   UNL     1      -9.961  12.363  65.575  1.00  0.00    -0.243 C  
HETATM    8  C   UNL     1     -12.273  14.025  64.388  1.00  0.00    -0.457 C  
BRANCH   7   9
HETATM    9  O   UNL     1     -10.534  11.157  65.039  1.00  0.00    -0.286 OA 
BRANCH   9  10
HETATM   10  C   UNL     1      -9.820  10.019  65.246  1.00  0.00    -0.318 C  
HETATM   11  O   UNL     1      -9.391   9.291  64.363  1.00  0.00    -0.087 OA 
BRANCH  10  12
HETATM   12  C   UNL     1      -9.447   9.868  66.697  1.00  0.00    -0.220 C  
BRANCH  12  13
HETATM   13  C   UNL     1     -10.302   8.852  67.451  1.00  0.00    -0.269 C  
HETATM   14  O   UNL     1      -9.009   9.393  69.702  1.00  0.00    -0.148 OA 
HETATM   15  S   UNL     1     -10.340   9.196  69.183  1.00  0.00    -0.214 S  
HETATM   16  O   UNL     1     -11.044  10.649  69.098  1.00  0.00    -0.220 OA 
HETATM   17  O   UNL     1     -11.317   8.359  69.842  1.00  0.00    -0.107 OA 
BRANCH  13  18
HETATM   18  C   UNL     1      -9.754   7.472  67.273  1.00  0.00    -0.167 C  
HETATM   19  O   UNL     1     -10.301   6.595  66.618  1.00  0.00    -0.201 OA 
BRANCH  18  20
HETATM   20  O   UNL     1      -8.675   7.273  68.083  1.00  0.00    -0.128 OA 
BRANCH  20  21
HETATM   21  C   UNL     1      -8.318   5.895  68.290  1.00  0.00    -0.112 C  
HETATM   22  C   UNL     1      -7.316   5.661  69.436  1.00  0.00    -0.070 C  
HETATM   23  C   UNL     1      -7.814   6.237  70.780  1.00  0.00    -0.106 C  
HETATM   24  C   UNL     1      -6.946   4.165  69.569  1.00  0.00    -0.046 C  
HETATM   25  C   UNL     1      -9.071   5.585  71.340  1.00  0.00    -0.157 C  
BRANCH  24  26
HETATM   26  C   UNL     1      -6.330   3.567  68.301  1.00  0.00    -0.036 C  
BRANCH  26  27
HETATM   27  C   UNL     1      -7.145   2.380  67.786  1.00  0.00    -0.048 C  
HETATM   28  C   UNL     1      -8.261   2.849  66.861  1.00  0.00    -0.085 C  
ENDBRANCH  26  27
ENDBRANCH  24  26
ENDBRANCH  20  21
ENDBRANCH  18  20
ENDBRANCH  13  18
ENDBRANCH  12  13
ENDBRANCH  10  12
ENDBRANCH   9  10
ENDBRANCH   7   9
ENDBRANCH   3   4
ENDBRANCH   2   3
TORSDOF 11
ENDMDL
MODEL      297
REMARK 921   NORMALIZED FREE ENERGY PREDICTED BY IDOCK:   -2.82 KCAL/MOL
REMARK 922        TOTAL FREE ENERGY PREDICTED BY IDOCK:   -6.88 KCAL/MOL
REMARK 923 INTER-LIGAND FREE ENERGY PREDICTED BY IDOCK:   -6.35 KCAL/MOL
REMARK 924 INTRA-LIGAND FREE ENERGY PREDICTED BY IDOCK:   -0.53 KCAL/MOL
REMARK 927      BINDING AFFINITY PREDICTED BY RF-SCORE:    0.00 PKD
ROOT
HETATM    1  C   UNL     1      -7.680   3.872  71.701  1.00  0.00    -0.061 C  
HETATM    2  C   UNL     1      -8.960   3.360  71.056  1.00  0.00    -0.161 C  
ENDROOT
BRANCH   2   3
HETATM    3  C   UNL     1     -10.191   4.009  71.688  1.00  0.00    -0.110 C  
BRANCH   3   4
HETATM    4  C   UNL     1     -10.605   5.295  70.964  1.00  0.00    -0.240 C  
HETATM    5  C   UNL     1     -11.089   6.408  71.919  1.00  0.00    -0.311 C  
HETATM    6  C   UNL     1     -10.078   6.782  73.028  1.00  0.00    -0.212 C  
HETATM    7  C   UNL     1     -11.537   7.647  71.114  1.00  0.00    -0.280 C  
HETATM    8  C   UNL     1      -8.804   7.450  72.531  1.00  0.00    -0.159 C  
BRANCH   7   9
HETATM    9  O   UNL     1     -11.955   8.673  72.032  1.00  0.00    -0.323 OA 
BRANCH   9  10
HETATM   10  C   UNL     1     -12.037   9.929  71.519  1.00  0.00    -0.410 C  
HETATM   11  O   UNL     1     -12.789  10.803  71.923  1.00  0.00    -0.436 OA 
BRANCH  10  12
HETATM   12  C   UNL     1     -10.942  10.179  70.516  1.00  0.00    -0.380 C  
BRANCH  12  13
HETATM   13  C   UNL     1     -11.430  10.798  69.210  1.00  0.00    -0.298 C  
HETATM   14  O   UNL     1      -9.072  10.354  68.083  1.00  0.00    -0.137 OA 
HETATM   15  S   UNL     1     -10.485  10.231  67.830  1.00  0.00    -0.245 S  
HETATM   16  O   UNL     1     -10.860   8.662  67.944  1.00  0.00    -0.138 OA 
HETATM   17  O   UNL     1     -11.095  10.659  66.591  1.00  0.00    -0.143 OA 
BRANCH  13  18
HETATM   18  C   UNL     1     -11.312  12.288  69.260  1.00  0.00    -0.256 C  
HETATM   19  O   UNL     1     -11.931  13.001  70.038  1.00  0.00    -0.330 OA 
BRANCH  18  20
HETATM   20  O   UNL     1     -10.573  12.749  68.212  1.00  0.00    -0.224 OA 
BRANCH  20  21
HETATM   21  C   UNL     1      -9.428  13.540  68.577  1.00  0.00    -0.131 C  
HETATM   22  C   UNL     1      -8.551  13.980  67.390  1.00  0.00    -0.211 C  
HETATM   23  C   UNL     1      -9.353  14.756  66.322  1.00  0.00    -0.310 C  
HETATM   24  C   UNL     1      -7.319  14.786  67.863  1.00  0.00    -0.162 C  
HETATM   25  C   UNL     1      -9.927  16.089  66.782  1.00  0.00    -0.265 C  
BRANCH  24  26
HETATM   26  C   UNL     1      -6.415  14.019  68.832  1.00  0.00    -0.096 C  
BRANCH  26  27
HETATM   27  C   UNL     1      -5.714  14.960  69.813  1.00  0.00    -0.106 C  
HETATM   28  C   UNL     1      -6.169  16.399  69.603  1.00  0.00    -0.210 C  
ENDBRANCH  26  27
ENDBRANCH  24  26
ENDBRANCH  20  21
ENDBRANCH  18  20
ENDBRANCH  13  18
ENDBRANCH  12  13
ENDBRANCH  10  12
ENDBRANCH   9  10
ENDBRANCH   7   9
ENDBRANCH   3   4
ENDBRANCH   2   3
TORSDOF 11
ENDMDL
MODEL      298
REMARK 921   NORMALIZED FREE ENERGY PREDICTED BY IDOCK:   -2.80 KCAL/MOL
REMARK 922        TOTAL FREE ENERGY PREDICTED BY IDOCK:   -6.84 KCAL/MOL
REMARK 923 INTER-LIGAND FREE ENERGY PREDICTED BY IDOCK:   -5.76 KCAL/MOL
REMARK 924 INTRA-LIGAND FREE ENERGY PREDICTED BY IDOCK:   -1.09 KCAL/MOL
REMARK 927      BINDING AFFINITY PREDICTED BY RF-SCORE:    0.00 PKD
ROOT
HETATM    1  C   UNL     1     -11.186   6.199  69.992  1.00  0.00    -0.471 C  
HETATM    2  C   UNL     1     -10.131   7.045  70.693  1.00  0.00    -0.201 C  
ENDROOT
BRANCH   2   3
HETATM    3  C   UNL     1     -10.780   8.138  71.541  1.00  0.00    -0.286 C  
BRANCH   3   4
HETATM    4  C   UNL     1     -10.217   9.529  71.223  1.00  0.00    -0.245 C  
HETATM    5  C   UNL     1     -10.662  10.070  69.847  1.00  0.00    -0.328 C  
HETATM    6  C   UNL     1     -12.193  10.111  69.642  1.00  0.00     0.083 C  
HETATM    7  C   UNL     1     -10.013  11.445  69.578  1.00  0.00     0.408 C  
HETATM    8  C   UNL     1     -12.929  11.108  70.525  1.00  0.00    -0.106 C  
BRANCH   7   9
HETATM    9  O   UNL     1     -10.469  11.934  68.303  1.00  0.00    -0.192 OA 
BRANCH   9  10
HETATM   10  C   UNL     1      -9.509  12.099  67.355  1.00  0.00    -0.179 C  
HETATM   11  O   UNL     1      -9.722  12.251  66.161  1.00  0.00    -0.239 OA 
BRANCH  10  12
HETATM   12  C   UNL     1      -8.151  12.273  67.981  1.00  0.00    -0.156 C  
BRANCH  12  13
HETATM   13  C   UNL     1      -7.550  13.661  67.775  1.00  0.00    -0.164 C  
HETATM   14  O   UNL     1      -5.390  12.960  69.145  1.00  0.00    -0.068 OA 
HETATM   15  S   UNL     1      -5.791  13.636  67.936  1.00  0.00    -0.108 S  
HETATM   16  O   UNL     1      -5.478  12.641  66.701  1.00  0.00    -0.167 OA 
HETATM   17  O   UNL     1      -5.230  14.905  67.530  1.00  0.00    -0.331 OA 
BRANCH  13  18
HETATM   18  C   UNL     1      -8.086  14.620  68.791  1.00  0.00    -0.152 C  
HETATM   19  O   UNL     1      -7.504  14.923  69.824  1.00  0.00    -0.172 OA 
BRANCH  18  20
HETATM   20  O   UNL     1      -9.373  14.959  68.500  1.00  0.00    -0.183 OA 
BRANCH  20  21
HETATM   21  C   UNL     1      -9.543  16.274  67.943  1.00  0.00    -0.227 C  
HETATM   22  C   UNL     1      -9.063  16.417  66.487  1.00  0.00    -0.308 C  
HETATM   23  C   UNL     1      -9.741  15.401  65.541  1.00  0.00    -0.318 C  
HETATM   24  C   UNL     1      -9.236  17.865  65.972  1.00  0.00    -0.035 C  
HETATM   25  C   UNL     1     -11.246  15.568  65.379  1.00  0.00    -0.228 C  
BRANCH  24  26
HETATM   26  C   UNL     1      -8.482  18.909  66.800  1.00  0.00    -0.304 C  
BRANCH  26  27
HETATM   27  C   UNL     1      -9.359  20.124  67.107  1.00  0.00    -0.521 C  
HETATM   28  C   UNL     1     -10.089  19.946  68.431  1.00  0.00    -0.557 C  
ENDBRANCH  26  27
ENDBRANCH  24  26
ENDBRANCH  20  21
ENDBRANCH  18  20
ENDBRANCH  13  18
ENDBRANCH  12  13
ENDBRANCH  10  12
ENDBRANCH   9  10
ENDBRANCH   7   9
ENDBRANCH   3   4
ENDBRANCH   2   3
TORSDOF 11
ENDMDL
MODEL      299
REMARK 921   NORMALIZED FREE ENERGY PREDICTED BY IDOCK:   -2.79 KCAL/MOL
REMARK 922        TOTAL FREE ENERGY PREDICTED BY IDOCK:   -6.83 KCAL/MOL
REMARK 923 INTER-LIGAND FREE ENERGY PREDICTED BY IDOCK:   -5.21 KCAL/MOL
REMARK 924 INTRA-LIGAND FREE ENERGY PREDICTED BY IDOCK:   -1.62 KCAL/MOL
REMARK 927      BINDING AFFINITY PREDICTED BY RF-SCORE:    0.00 PKD
ROOT
HETATM    1  C   UNL     1      -8.759  10.314  62.667  1.00  0.00    -0.224 C  
HETATM    2  C   UNL     1      -8.595   9.028  63.465  1.00  0.00    -0.146 C  
ENDROOT
BRANCH   2   3
HETATM    3  C   UNL     1      -7.123   8.633  63.575  1.00  0.00    -0.089 C  
BRANCH   3   4
HETATM    4  C   UNL     1      -6.275   9.733  64.226  1.00  0.00    -0.115 C  
HETATM    5  C   UNL     1      -6.746  10.108  65.649  1.00  0.00    -0.116 C  
HETATM    6  C   UNL     1      -6.826   8.915  66.629  1.00  0.00    -0.076 C  
HETATM    7  C   UNL     1      -5.879  11.254  66.213  1.00  0.00    -0.114 C  
HETATM    8  C   UNL     1      -5.484   8.296  66.992  1.00  0.00    -0.037 C  
BRANCH   7   9
HETATM    9  O   UNL     1      -6.324  11.560  67.548  1.00  0.00    -0.061 OA 
BRANCH   9  10
HETATM   10  C   UNL     1      -7.048  12.702  67.683  1.00  0.00    -0.139 C  
HETATM   11  O   UNL     1      -6.819  13.751  67.098  1.00  0.00    -0.141 OA 
BRANCH  10  12
HETATM   12  C   UNL     1      -8.294  12.464  68.495  1.00  0.00    -0.081 C  
BRANCH  12  13
HETATM   13  C   UNL     1      -9.368  11.669  67.758  1.00  0.00    -0.178 C  
HETATM   14  O   UNL     1     -11.218  13.411  68.515  1.00  0.00    -0.252 OA 
HETATM   15  S   UNL     1     -10.763  12.677  67.360  1.00  0.00    -0.233 S  
HETATM   16  O   UNL     1     -10.001  13.725  66.393  1.00  0.00    -0.281 OA 
HETATM   17  O   UNL     1     -11.666  11.966  66.484  1.00  0.00    -0.537 OA 
BRANCH  13  18
HETATM   18  C   UNL     1      -9.853  10.535  68.603  1.00  0.00    -0.178 C  
HETATM   19  O   UNL     1     -10.064  10.615  69.806  1.00  0.00    -0.162 OA 
BRANCH  18  20
HETATM   20  O   UNL     1      -9.849   9.369  67.896  1.00  0.00    -0.154 OA 
BRANCH  20  21
HETATM   21  C   UNL     1      -9.589   8.188  68.673  1.00  0.00    -0.149 C  
HETATM   22  C   UNL     1     -10.670   7.097  68.557  1.00  0.00    -0.191 C  
HETATM   23  C   UNL     1     -10.917   6.667  67.095  1.00  0.00    -0.478 C  
HETATM   24  C   UNL     1     -10.344   5.879  69.453  1.00  0.00    -0.313 C  
HETATM   25  C   UNL     1      -9.737   5.995  66.406  1.00  0.00    -0.158 C  
BRANCH  24  26
HETATM   26  C   UNL     1     -10.209   6.224  70.939  1.00  0.00    -0.236 C  
BRANCH  26  27
HETATM   27  C   UNL     1     -10.631   5.054  71.829  1.00  0.00    -0.204 C  
HETATM   28  C   UNL     1      -9.436   4.489  72.585  1.00  0.00    -0.166 C  
ENDBRANCH  26  27
ENDBRANCH  24  26
ENDBRANCH  20  21
ENDBRANCH  18  20
ENDBRANCH  13  18
ENDBRANCH  12  13
ENDBRANCH  10  12
ENDBRANCH   9  10
ENDBRANCH   7   9
ENDBRANCH   3   4
ENDBRANCH   2   3
TORSDOF 11
ENDMDL
MODEL      300
REMARK 921   NORMALIZED FREE ENERGY PREDICTED BY IDOCK:   -2.77 KCAL/MOL
REMARK 922        TOTAL FREE ENERGY PREDICTED BY IDOCK:   -6.80 KCAL/MOL
REMARK 923 INTER-LIGAND FREE ENERGY PREDICTED BY IDOCK:   -5.53 KCAL/MOL
REMARK 924 INTRA-LIGAND FREE ENERGY PREDICTED BY IDOCK:   -1.28 KCAL/MOL
REMARK 927      BINDING AFFINITY PREDICTED BY RF-SCORE:    0.00 PKD
ROOT
HETATM    1  C   UNL     1     -11.945  14.774  70.947  1.00  0.00    -0.384 C  
HETATM    2  C   UNL     1     -12.303  13.331  70.620  1.00  0.00    -0.416 C  
ENDROOT
BRANCH   2   3
HETATM    3  C   UNL     1     -12.036  13.019  69.148  1.00  0.00    -0.320 C  
BRANCH   3   4
HETATM    4  C   UNL     1     -11.760  11.529  68.912  1.00  0.00    -0.403 C  
HETATM    5  C   UNL     1     -11.019  11.244  67.587  1.00  0.00    -0.312 C  
HETATM    6  C   UNL     1      -9.689  12.014  67.423  1.00  0.00    -0.185 C  
HETATM    7  C   UNL     1     -10.828   9.724  67.398  1.00  0.00    -0.197 C  
HETATM    8  C   UNL     1      -8.588  11.600  68.390  1.00  0.00    -0.156 C  
BRANCH   7   9
HETATM    9  O   UNL     1     -10.111   9.495  66.171  1.00  0.00    -0.284 OA 
BRANCH   9  10
HETATM   10  C   UNL     1      -9.148   8.538  66.218  1.00  0.00    -0.185 C  
HETATM   11  O   UNL     1      -8.357   8.294  65.319  1.00  0.00    -0.153 OA 
BRANCH  10  12
HETATM   12  C   UNL     1      -9.041   7.941  67.597  1.00  0.00    -0.139 C  
BRANCH  12  13
HETATM   13  C   UNL     1      -8.710   6.452  67.602  1.00  0.00    -0.114 C  
HETATM   14  O   UNL     1     -10.974   5.922  68.876  1.00  0.00    -0.314 OA 
HETATM   15  S   UNL     1     -10.164   5.464  67.774  1.00  0.00    -0.160 S  
HETATM   16  O   UNL     1     -10.899   5.926  66.411  1.00  0.00    -0.214 OA 
HETATM   17  O   UNL     1      -9.854   4.068  67.563  1.00  0.00    -0.163 OA 
BRANCH  13  18
HETATM   18  C   UNL     1      -7.798   6.121  68.740  1.00  0.00    -0.101 C  
HETATM   19  O   UNL     1      -7.269   5.030  68.902  1.00  0.00    -0.056 OA 
BRANCH  18  20
HETATM   20  O   UNL     1      -7.787   7.130  69.658  1.00  0.00    -0.113 OA 
BRANCH  20  21
HETATM   21  C   UNL     1      -8.248   6.762  70.969  1.00  0.00    -0.119 C  
HETATM   22  C   UNL     1      -7.147   6.239  71.910  1.00  0.00    -0.085 C  
HETATM   23  C   UNL     1      -5.985   7.244  72.072  1.00  0.00    -0.037 C  
HETATM   24  C   UNL     1      -7.724   5.822  73.283  1.00  0.00    -0.099 C  
HETATM   25  C   UNL     1      -6.354   8.561  72.742  1.00  0.00    -0.095 C  
BRANCH  24  26
HETATM   26  C   UNL     1      -8.798   4.734  73.197  1.00  0.00    -0.111 C  
BRANCH  26  27
HETATM   27  C   UNL     1      -9.985   5.042  74.110  1.00  0.00    -0.215 C  
HETATM   28  C   UNL     1     -11.303   4.751  73.404  1.00  0.00    -0.397 C  
ENDBRANCH  26  27
ENDBRANCH  24  26
ENDBRANCH  20  21
ENDBRANCH  18  20
ENDBRANCH  13  18
ENDBRANCH  12  13
ENDBRANCH  10  12
ENDBRANCH   9  10
ENDBRANCH   7   9
ENDBRANCH   3   4
ENDBRANCH   2   3
TORSDOF 11
ENDMDL
MODEL      301
REMARK 921   NORMALIZED FREE ENERGY PREDICTED BY IDOCK:   -2.77 KCAL/MOL
REMARK 922        TOTAL FREE ENERGY PREDICTED BY IDOCK:   -6.79 KCAL/MOL
REMARK 923 INTER-LIGAND FREE ENERGY PREDICTED BY IDOCK:   -5.02 KCAL/MOL
REMARK 924 INTRA-LIGAND FREE ENERGY PREDICTED BY IDOCK:   -1.77 KCAL/MOL
REMARK 927      BINDING AFFINITY PREDICTED BY RF-SCORE:    0.00 PKD
ROOT
HETATM    1  C   UNL     1     -12.637  13.375  65.232  1.00  0.00    -0.518 C  
HETATM    2  C   UNL     1     -11.931  12.388  64.313  1.00  0.00    -0.489 C  
ENDROOT
BRANCH   2   3
HETATM    3  C   UNL     1     -10.426  12.372  64.579  1.00  0.00    -0.352 C  
BRANCH   3   4
HETATM    4  C   UNL     1     -10.036  11.335  65.639  1.00  0.00    -0.292 C  
HETATM    5  C   UNL     1      -9.899   9.904  65.076  1.00  0.00    -0.323 C  
HETATM    6  C   UNL     1      -8.914   9.776  63.891  1.00  0.00    -0.277 C  
HETATM    7  C   UNL     1      -9.558   8.913  66.210  1.00  0.00    -0.260 C  
HETATM    8  C   UNL     1      -7.454  10.020  64.245  1.00  0.00    -0.137 C  
BRANCH   7   9
HETATM    9  O   UNL     1      -9.410   7.596  65.649  1.00  0.00     0.061 OA 
BRANCH   9  10
HETATM   10  C   UNL     1      -8.387   6.853  66.146  1.00  0.00    -0.130 C  
HETATM   11  O   UNL     1      -7.201   7.122  66.025  1.00  0.00    -0.071 OA 
BRANCH  10  12
HETATM   12  C   UNL     1      -8.898   5.755  67.042  1.00  0.00    -0.112 C  
BRANCH  12  13
HETATM   13  C   UNL     1      -7.803   4.847  67.593  1.00  0.00    -0.094 C  
HETATM   14  O   UNL     1      -9.562   2.896  67.955  1.00  0.00    -0.195 OA 
HETATM   15  S   UNL     1      -8.237   3.141  67.441  1.00  0.00    -0.084 S  
HETATM   16  O   UNL     1      -8.328   3.086  65.828  1.00  0.00    -0.096 OA 
HETATM   17  O   UNL     1      -7.107   2.302  67.769  1.00  0.00    -0.046 OA 
BRANCH  13  18
HETATM   18  C   UNL     1      -7.568   5.129  69.042  1.00  0.00    -0.077 C  
HETATM   19  O   UNL     1      -6.581   4.758  69.664  1.00  0.00    -0.034 OA 
BRANCH  18  20
HETATM   20  O   UNL     1      -8.674   5.687  69.611  1.00  0.00    -0.108 OA 
BRANCH  20  21
HETATM   21  C   UNL     1      -8.442   6.925  70.305  1.00  0.00    -0.139 C  
HETATM   22  C   UNL     1      -9.224   8.127  69.744  1.00  0.00    -0.151 C  
HETATM   23  C   UNL     1     -10.747   7.873  69.708  1.00  0.00    -0.233 C  
HETATM   24  C   UNL     1      -8.890   9.428  70.511  1.00  0.00    -0.287 C  
HETATM   25  C   UNL     1     -11.409   7.692  71.067  1.00  0.00    -0.289 C  
BRANCH  24  26
HETATM   26  C   UNL     1      -7.405   9.801  70.477  1.00  0.00    -0.126 C  
BRANCH  26  27
HETATM   27  C   UNL     1      -7.151  11.021  69.591  1.00  0.00    -0.089 C  
HETATM   28  C   UNL     1      -6.954  10.606  68.139  1.00  0.00    -0.073 C  
ENDBRANCH  26  27
ENDBRANCH  24  26
ENDBRANCH  20  21
ENDBRANCH  18  20
ENDBRANCH  13  18
ENDBRANCH  12  13
ENDBRANCH  10  12
ENDBRANCH   9  10
ENDBRANCH   7   9
ENDBRANCH   3   4
ENDBRANCH   2   3
TORSDOF 11
ENDMDL
MODEL      302
REMARK 921   NORMALIZED FREE ENERGY PREDICTED BY IDOCK:   -2.77 KCAL/MOL
REMARK 922        TOTAL FREE ENERGY PREDICTED BY IDOCK:   -6.79 KCAL/MOL
REMARK 923 INTER-LIGAND FREE ENERGY PREDICTED BY IDOCK:   -6.05 KCAL/MOL
REMARK 924 INTRA-LIGAND FREE ENERGY PREDICTED BY IDOCK:   -0.75 KCAL/MOL
REMARK 927      BINDING AFFINITY PREDICTED BY RF-SCORE:    0.00 PKD
ROOT
HETATM    1  C   UNL     1     -11.392   4.890  72.958  1.00  0.00    -0.354 C  
HETATM    2  C   UNL     1     -10.288   5.606  73.724  1.00  0.00    -0.270 C  
ENDROOT
BRANCH   2   3
HETATM    3  C   UNL     1      -8.909   5.107  73.292  1.00  0.00    -0.118 C  
BRANCH   3   4
HETATM    4  C   UNL     1      -8.562   5.530  71.859  1.00  0.00    -0.131 C  
HETATM    5  C   UNL     1      -9.005   6.970  71.520  1.00  0.00    -0.139 C  
HETATM    6  C   UNL     1      -8.462   8.048  72.487  1.00  0.00    -0.217 C  
HETATM    7  C   UNL     1      -8.670   7.300  70.050  1.00  0.00    -0.141 C  
HETATM    8  C   UNL     1      -6.956   8.256  72.430  1.00  0.00    -0.104 C  
BRANCH   7   9
HETATM    9  O   UNL     1      -9.069   8.656  69.775  1.00  0.00    -0.146 OA 
BRANCH   9  10
HETATM   10  C   UNL     1      -8.134   9.437  69.172  1.00  0.00    -0.107 C  
HETATM   11  O   UNL     1      -7.669  10.465  69.642  1.00  0.00    -0.153 OA 
BRANCH  10  12
HETATM   12  C   UNL     1      -7.591   8.774  67.933  1.00  0.00    -0.097 C  
BRANCH  12  13
HETATM   13  C   UNL     1      -8.401   9.062  66.673  1.00  0.00    -0.118 C  
HETATM   14  O   UNL     1      -7.887  11.653  66.896  1.00  0.00    -0.157 OA 
HETATM   15  S   UNL     1      -7.920  10.588  65.925  1.00  0.00    -0.154 S  
HETATM   16  O   UNL     1      -6.388  10.190  65.594  1.00  0.00    -0.086 OA 
HETATM   17  O   UNL     1      -8.544  10.733  64.630  1.00  0.00    -0.154 OA 
BRANCH  13  18
HETATM   18  C   UNL     1      -9.859   9.153  66.996  1.00  0.00    -0.207 C  
HETATM   19  O   UNL     1     -10.636   8.210  66.938  1.00  0.00    -0.329 OA 
BRANCH  18  20
HETATM   20  O   UNL     1     -10.231  10.451  67.182  1.00  0.00    -0.201 OA 
BRANCH  20  21
HETATM   21  C   UNL     1     -11.378  10.639  68.028  1.00  0.00    -0.278 C  
HETATM   22  C   UNL     1     -11.130  11.546  69.248  1.00  0.00    -0.305 C  
HETATM   23  C   UNL     1     -10.594  12.938  68.846  1.00  0.00    -0.154 C  
HETATM   24  C   UNL     1     -12.392  11.665  70.133  1.00  0.00    -0.297 C  
HETATM   25  C   UNL     1     -11.552  13.792  68.026  1.00  0.00    -0.368 C  
BRANCH  24  26
HETATM   26  C   UNL     1     -12.901  10.322  70.666  1.00  0.00    -0.362 C  
BRANCH  26  27
HETATM   27  C   UNL     1     -11.830   9.598  71.482  1.00  0.00    -0.483 C  
HETATM   28  C   UNL     1     -12.433   8.435  72.258  1.00  0.00    -0.417 C  
ENDBRANCH  26  27
ENDBRANCH  24  26
ENDBRANCH  20  21
ENDBRANCH  18  20
ENDBRANCH  13  18
ENDBRANCH  12  13
ENDBRANCH  10  12
ENDBRANCH   9  10
ENDBRANCH   7   9
ENDBRANCH   3   4
ENDBRANCH   2   3
TORSDOF 11
ENDMDL
MODEL      303
REMARK 921   NORMALIZED FREE ENERGY PREDICTED BY IDOCK:   -2.76 KCAL/MOL
REMARK 922        TOTAL FREE ENERGY PREDICTED BY IDOCK:   -6.78 KCAL/MOL
REMARK 923 INTER-LIGAND FREE ENERGY PREDICTED BY IDOCK:   -6.68 KCAL/MOL
REMARK 924 INTRA-LIGAND FREE ENERGY PREDICTED BY IDOCK:   -0.10 KCAL/MOL
REMARK 927      BINDING AFFINITY PREDICTED BY RF-SCORE:    0.00 PKD
ROOT
HETATM    1  C   UNL     1     -11.151   3.743  73.392  1.00  0.00    -0.308 C  
HETATM    2  C   UNL     1      -9.702   3.279  73.354  1.00  0.00    -0.150 C  
ENDROOT
BRANCH   2   3
HETATM    3  C   UNL     1      -9.313   2.809  71.952  1.00  0.00    -0.187 C  
BRANCH   3   4
HETATM    4  C   UNL     1      -9.775   3.787  70.865  1.00  0.00    -0.248 C  
HETATM    5  C   UNL     1      -9.131   5.186  70.984  1.00  0.00    -0.178 C  
HETATM    6  C   UNL     1      -7.585   5.177  71.001  1.00  0.00    -0.087 C  
HETATM    7  C   UNL     1      -9.685   6.125  69.891  1.00  0.00    -0.163 C  
HETATM    8  C   UNL     1      -6.935   4.740  69.696  1.00  0.00    -0.053 C  
BRANCH   7   9
HETATM    9  O   UNL     1      -9.045   7.408  70.012  1.00  0.00    -0.148 OA 
BRANCH   9  10
HETATM   10  C   UNL     1      -9.710   8.333  70.754  1.00  0.00    -0.172 C  
HETATM   11  O   UNL     1      -9.379   8.707  71.869  1.00  0.00    -0.244 OA 
BRANCH  10  12
HETATM   12  C   UNL     1     -10.799   8.993  69.951  1.00  0.00    -0.228 C  
BRANCH  12  13
HETATM   13  C   UNL     1     -10.856  10.509  70.115  1.00  0.00    -0.227 C  
HETATM   14  O   UNL     1     -13.480  10.482  69.739  1.00  0.00     0.203 OA 
HETATM   15  S   UNL     1     -12.468  11.050  70.594  1.00  0.00    -0.370 S  
HETATM   16  O   UNL     1     -12.542  10.275  72.010  1.00  0.00    -0.371 OA 
HETATM   17  O   UNL     1     -12.445  12.451  70.949  1.00  0.00    -0.371 OA 
BRANCH  13  18
HETATM   18  C   UNL     1     -10.511  11.190  68.829  1.00  0.00    -0.203 C  
HETATM   19  O   UNL     1      -9.391  11.591  68.542  1.00  0.00    -0.184 OA 
BRANCH  18  20
HETATM   20  O   UNL     1     -11.637  11.463  68.111  1.00  0.00    -0.341 OA 
BRANCH  20  21
HETATM   21  C   UNL     1     -11.805  12.845  67.748  1.00  0.00    -0.339 C  
HETATM   22  C   UNL     1     -10.960  13.296  66.543  1.00  0.00    -0.299 C  
HETATM   23  C   UNL     1     -11.218  12.434  65.288  1.00  0.00    -0.359 C  
HETATM   24  C   UNL     1     -11.160  14.800  66.241  1.00  0.00    -0.341 C  
HETATM   25  C   UNL     1     -12.627  12.521  64.717  1.00  0.00    -0.493 C  
BRANCH  24  26
HETATM   26  C   UNL     1     -10.801  15.718  67.414  1.00  0.00    -0.306 C  
BRANCH  26  27
HETATM   27  C   UNL     1     -10.114  16.997  66.936  1.00  0.00    -0.298 C  
HETATM   28  C   UNL     1      -8.787  17.202  67.655  1.00  0.00    -0.218 C  
ENDBRANCH  26  27
ENDBRANCH  24  26
ENDBRANCH  20  21
ENDBRANCH  18  20
ENDBRANCH  13  18
ENDBRANCH  12  13
ENDBRANCH  10  12
ENDBRANCH   9  10
ENDBRANCH   7   9
ENDBRANCH   3   4
ENDBRANCH   2   3
TORSDOF 11
ENDMDL
MODEL      304
REMARK 921   NORMALIZED FREE ENERGY PREDICTED BY IDOCK:   -2.75 KCAL/MOL
REMARK 922        TOTAL FREE ENERGY PREDICTED BY IDOCK:   -6.76 KCAL/MOL
REMARK 923 INTER-LIGAND FREE ENERGY PREDICTED BY IDOCK:   -6.01 KCAL/MOL
REMARK 924 INTRA-LIGAND FREE ENERGY PREDICTED BY IDOCK:   -0.75 KCAL/MOL
REMARK 927      BINDING AFFINITY PREDICTED BY RF-SCORE:    0.00 PKD
ROOT
HETATM    1  C   UNL     1      -8.173   4.160  64.628  1.00  0.00    -0.098 C  
HETATM    2  C   UNL     1      -8.538   4.364  66.092  1.00  0.00    -0.113 C  
ENDROOT
BRANCH   2   3
HETATM    3  C   UNL     1      -9.162   5.741  66.314  1.00  0.00    -0.168 C  
BRANCH   3   4
HETATM    4  C   UNL     1      -8.304   6.626  67.226  1.00  0.00    -0.120 C  
HETATM    5  C   UNL     1      -8.848   8.064  67.374  1.00  0.00    -0.134 C  
HETATM    6  C   UNL     1     -10.312   8.145  67.862  1.00  0.00    -0.280 C  
HETATM    7  C   UNL     1      -7.903   8.905  68.259  1.00  0.00    -0.101 C  
HETATM    8  C   UNL     1     -10.536   7.672  69.291  1.00  0.00    -0.220 C  
BRANCH   7   9
HETATM    9  O   UNL     1      -8.452  10.228  68.400  1.00  0.00    -0.117 OA 
BRANCH   9  10
HETATM   10  C   UNL     1      -8.122  11.112  67.422  1.00  0.00    -0.132 C  
HETATM   11  O   UNL     1      -6.983  11.367  67.061  1.00  0.00    -0.116 OA 
BRANCH  10  12
HETATM   12  C   UNL     1      -9.348  11.598  66.693  1.00  0.00    -0.203 C  
BRANCH  12  13
HETATM   13  C   UNL     1      -9.997  12.825  67.327  1.00  0.00    -0.219 C  
HETATM   14  O   UNL     1     -12.280  11.508  67.610  1.00  0.00    -0.513 OA 
HETATM   15  S   UNL     1     -11.385  12.382  68.325  1.00  0.00    -0.310 S  
HETATM   16  O   UNL     1     -10.591  11.480  69.407  1.00  0.00    -0.145 OA 
HETATM   17  O   UNL     1     -11.849  13.525  69.079  1.00  0.00    -0.305 OA 
BRANCH  13  18
HETATM   18  C   UNL     1     -10.479  13.767  66.269  1.00  0.00    -0.291 C  
HETATM   19  O   UNL     1     -11.638  13.829  65.881  1.00  0.00    -0.317 OA 
BRANCH  18  20
HETATM   20  O   UNL     1      -9.430  14.405  65.677  1.00  0.00    -0.194 OA 
BRANCH  20  21
HETATM   21  C   UNL     1      -8.587  15.148  66.575  1.00  0.00    -0.191 C  
HETATM   22  C   UNL     1      -8.670  16.677  66.410  1.00  0.00    -0.345 C  
HETATM   23  C   UNL     1     -10.114  17.207  66.555  1.00  0.00    -0.313 C  
HETATM   24  C   UNL     1      -7.706  17.405  67.375  1.00  0.00    -0.209 C  
HETATM   25  C   UNL     1     -10.740  17.018  67.930  1.00  0.00    -0.348 C  
BRANCH  24  26
HETATM   26  C   UNL     1      -6.237  17.011  67.194  1.00  0.00    -0.209 C  
BRANCH  26  27
HETATM   27  C   UNL     1      -5.581  16.654  68.528  1.00  0.00    -0.121 C  
HETATM   28  C   UNL     1      -6.524  16.939  69.690  1.00  0.00    -0.181 C  
ENDBRANCH  26  27
ENDBRANCH  24  26
ENDBRANCH  20  21
ENDBRANCH  18  20
ENDBRANCH  13  18
ENDBRANCH  12  13
ENDBRANCH  10  12
ENDBRANCH   9  10
ENDBRANCH   7   9
ENDBRANCH   3   4
ENDBRANCH   2   3
TORSDOF 11
ENDMDL
MODEL      305
REMARK 921   NORMALIZED FREE ENERGY PREDICTED BY IDOCK:   -2.74 KCAL/MOL
REMARK 922        TOTAL FREE ENERGY PREDICTED BY IDOCK:   -6.75 KCAL/MOL
REMARK 923 INTER-LIGAND FREE ENERGY PREDICTED BY IDOCK:   -5.90 KCAL/MOL
REMARK 924 INTRA-LIGAND FREE ENERGY PREDICTED BY IDOCK:   -0.86 KCAL/MOL
REMARK 927      BINDING AFFINITY PREDICTED BY RF-SCORE:    0.00 PKD
ROOT
HETATM    1  C   UNL     1      -9.399   3.175  67.712  1.00  0.00    -0.252 C  
HETATM    2  C   UNL     1      -7.967   2.669  67.603  1.00  0.00    -0.067 C  
ENDROOT
BRANCH   2   3
HETATM    3  C   UNL     1      -6.967   3.785  67.904  1.00  0.00    -0.051 C  
BRANCH   3   4
HETATM    4  C   UNL     1      -7.645   5.028  68.492  1.00  0.00    -0.078 C  
HETATM    5  C   UNL     1      -7.172   6.349  67.845  1.00  0.00    -0.087 C  
HETATM    6  C   UNL     1      -7.326   6.396  66.307  1.00  0.00    -0.080 C  
HETATM    7  C   UNL     1      -7.858   7.553  68.525  1.00  0.00    -0.122 C  
HETATM    8  C   UNL     1      -8.764   6.404  65.810  1.00  0.00    -0.135 C  
BRANCH   7   9
HETATM    9  O   UNL     1      -7.418   8.763  67.882  1.00  0.00    -0.091 OA 
BRANCH   9  10
HETATM   10  C   UNL     1      -7.505   9.895  68.629  1.00  0.00    -0.075 C  
HETATM   11  O   UNL     1      -6.945  10.950  68.370  1.00  0.00    -0.066 OA 
BRANCH  10  12
HETATM   12  C   UNL     1      -8.538   9.752  69.715  1.00  0.00    -0.215 C  
BRANCH  12  13
HETATM   13  C   UNL     1      -9.809  10.560  69.468  1.00  0.00    -0.142 C  
HETATM   14  O   UNL     1     -11.277   8.359  69.645  1.00  0.00    -0.080 OA 
HETATM   15  S   UNL     1     -11.237   9.729  70.092  1.00  0.00    -0.272 S  
HETATM   16  O   UNL     1     -10.812   9.715  71.652  1.00  0.00    -0.290 OA 
HETATM   17  O   UNL     1     -12.390  10.599  70.040  1.00  0.00    -0.311 OA 
BRANCH  13  18
HETATM   18  C   UNL     1     -10.014  10.778  68.002  1.00  0.00    -0.164 C  
HETATM   19  O   UNL     1     -10.210   9.880  67.195  1.00  0.00    -0.202 OA 
BRANCH  18  20
HETATM   20  O   UNL     1      -9.771  12.078  67.670  1.00  0.00    -0.181 OA 
BRANCH  20  21
HETATM   21  C   UNL     1     -10.677  13.032  68.251  1.00  0.00    -0.245 C  
HETATM   22  C   UNL     1     -10.750  14.378  67.506  1.00  0.00    -0.271 C  
HETATM   23  C   UNL     1     -11.120  14.207  66.016  1.00  0.00    -0.314 C  
HETATM   24  C   UNL     1     -11.707  15.366  68.212  1.00  0.00    -0.313 C  
HETATM   25  C   UNL     1     -12.510  13.641  65.753  1.00  0.00    -0.524 C  
BRANCH  24  26
HETATM   26  C   UNL     1     -11.318  15.674  69.661  1.00  0.00    -0.331 C  
BRANCH  26  27
HETATM   27  C   UNL     1     -12.524  15.590  70.597  1.00  0.00    -0.483 C  
HETATM   28  C   UNL     1     -12.112  15.072  71.969  1.00  0.00    -0.454 C  
ENDBRANCH  26  27
ENDBRANCH  24  26
ENDBRANCH  20  21
ENDBRANCH  18  20
ENDBRANCH  13  18
ENDBRANCH  12  13
ENDBRANCH  10  12
ENDBRANCH   9  10
ENDBRANCH   7   9
ENDBRANCH   3   4
ENDBRANCH   2   3
TORSDOF 11
ENDMDL
MODEL      306
REMARK 921   NORMALIZED FREE ENERGY PREDICTED BY IDOCK:   -2.74 KCAL/MOL
REMARK 922        TOTAL FREE ENERGY PREDICTED BY IDOCK:   -6.74 KCAL/MOL
REMARK 923 INTER-LIGAND FREE ENERGY PREDICTED BY IDOCK:   -6.95 KCAL/MOL
REMARK 924 INTRA-LIGAND FREE ENERGY PREDICTED BY IDOCK:    0.21 KCAL/MOL
REMARK 927      BINDING AFFINITY PREDICTED BY RF-SCORE:    0.00 PKD
ROOT
HETATM    1  C   UNL     1      -9.977   4.714  67.702  1.00  0.00    -0.161 C  
HETATM    2  C   UNL     1     -10.037   5.842  68.723  1.00  0.00    -0.220 C  
ENDROOT
BRANCH   2   3
HETATM    3  C   UNL     1      -8.635   6.238  69.186  1.00  0.00    -0.120 C  
BRANCH   3   4
HETATM    4  C   UNL     1      -8.422   7.756  69.157  1.00  0.00    -0.138 C  
HETATM    5  C   UNL     1      -9.694   8.561  69.502  1.00  0.00    -0.176 C  
HETATM    6  C   UNL     1     -10.336   8.188  70.858  1.00  0.00    -0.218 C  
HETATM    7  C   UNL     1      -9.413  10.075  69.399  1.00  0.00    -0.223 C  
HETATM    8  C   UNL     1      -9.504   8.550  72.079  1.00  0.00    -0.364 C  
BRANCH   7   9
HETATM    9  O   UNL     1     -10.608  10.795  69.753  1.00  0.00    -0.226 OA 
BRANCH   9  10
HETATM   10  C   UNL     1     -11.313  11.319  68.715  1.00  0.00    -0.270 C  
HETATM   11  O   UNL     1     -12.531  11.403  68.666  1.00  0.00    -0.396 OA 
BRANCH  10  12
HETATM   12  C   UNL     1     -10.398  11.968  67.711  1.00  0.00    -0.210 C  
BRANCH  12  13
HETATM   13  C   UNL     1     -10.927  11.931  66.279  1.00  0.00    -0.302 C  
HETATM   14  O   UNL     1      -8.513  11.317  65.372  1.00  0.00    -0.039 OA 
HETATM   15  S   UNL     1      -9.899  10.947  65.233  1.00  0.00    -0.286 S  
HETATM   16  O   UNL     1     -10.101   9.538  66.000  1.00  0.00    -0.295 OA 
HETATM   17  O   UNL     1     -10.529  10.753  63.947  1.00  0.00    -0.338 OA 
BRANCH  13  18
HETATM   18  C   UNL     1     -10.975  13.311  65.703  1.00  0.00    -0.277 C  
HETATM   19  O   UNL     1     -10.551  13.607  64.594  1.00  0.00    -0.398 OA 
BRANCH  18  20
HETATM   20  O   UNL     1     -11.379  14.212  66.642  1.00  0.00    -0.322 OA 
BRANCH  20  21
HETATM   21  C   UNL     1     -10.412  14.496  67.668  1.00  0.00    -0.246 C  
HETATM   22  C   UNL     1     -10.661  15.806  68.436  1.00  0.00    -0.281 C  
HETATM   23  C   UNL     1     -12.068  15.856  69.073  1.00  0.00    -0.116 C  
HETATM   24  C   UNL     1      -9.559  16.066  69.489  1.00  0.00    -0.200 C  
HETATM   25  C   UNL     1     -12.328  14.818  70.156  1.00  0.00    -0.381 C  
BRANCH  24  26
HETATM   26  C   UNL     1      -8.148  16.151  68.899  1.00  0.00    -0.228 C  
BRANCH  26  27
HETATM   27  C   UNL     1      -7.905  17.496  68.215  1.00  0.00    -0.253 C  
HETATM   28  C   UNL     1      -6.798  18.270  68.919  1.00  0.00    -0.270 C  
ENDBRANCH  26  27
ENDBRANCH  24  26
ENDBRANCH  20  21
ENDBRANCH  18  20
ENDBRANCH  13  18
ENDBRANCH  12  13
ENDBRANCH  10  12
ENDBRANCH   9  10
ENDBRANCH   7   9
ENDBRANCH   3   4
ENDBRANCH   2   3
TORSDOF 11
ENDMDL
MODEL      307
REMARK 921   NORMALIZED FREE ENERGY PREDICTED BY IDOCK:   -2.72 KCAL/MOL
REMARK 922        TOTAL FREE ENERGY PREDICTED BY IDOCK:   -6.72 KCAL/MOL
REMARK 923 INTER-LIGAND FREE ENERGY PREDICTED BY IDOCK:   -5.89 KCAL/MOL
REMARK 924 INTRA-LIGAND FREE ENERGY PREDICTED BY IDOCK:   -0.83 KCAL/MOL
REMARK 927      BINDING AFFINITY PREDICTED BY RF-SCORE:    0.00 PKD
ROOT
HETATM    1  C   UNL     1      -9.720  20.174  67.137  1.00  0.00    -0.576 C  
HETATM    2  C   UNL     1      -9.074  19.034  67.914  1.00  0.00    -0.339 C  
ENDROOT
BRANCH   2   3
HETATM    3  C   UNL     1     -10.122  18.024  68.378  1.00  0.00    -0.392 C  
BRANCH   3   4
HETATM    4  C   UNL     1     -10.589  17.108  67.239  1.00  0.00    -0.270 C  
HETATM    5  C   UNL     1     -10.032  15.671  67.340  1.00  0.00    -0.232 C  
HETATM    6  C   UNL     1     -10.332  14.964  68.682  1.00  0.00    -0.237 C  
HETATM    7  C   UNL     1     -10.501  14.830  66.134  1.00  0.00    -0.304 C  
HETATM    8  C   UNL     1     -11.802  14.654  68.925  1.00  0.00    -0.344 C  
BRANCH   7   9
HETATM    9  O   UNL     1      -9.990  13.492  66.272  1.00  0.00    -0.285 OA 
BRANCH   9  10
HETATM   10  C   UNL     1     -10.461  12.583  65.378  1.00  0.00    -0.282 C  
HETATM   11  O   UNL     1     -11.546  12.646  64.820  1.00  0.00    -0.307 OA 
BRANCH  10  12
HETATM   12  C   UNL     1      -9.395  11.586  65.005  1.00  0.00    -0.107 C  
BRANCH  12  13
HETATM   13  C   UNL     1      -9.073  10.584  66.110  1.00  0.00    -0.162 C  
HETATM   14  O   UNL     1      -6.517  10.583  65.404  1.00  0.00    -0.122 OA 
HETATM   15  S   UNL     1      -7.368  10.648  66.567  1.00  0.00    -0.140 S  
HETATM   16  O   UNL     1      -7.345  12.175  67.096  1.00  0.00    -0.148 OA 
HETATM   17  O   UNL     1      -7.132   9.851  67.750  1.00  0.00    -0.085 OA 
BRANCH  13  18
HETATM   18  C   UNL     1      -9.371   9.190  65.657  1.00  0.00    -0.235 C  
HETATM   19  O   UNL     1      -9.257   8.805  64.501  1.00  0.00     0.122 OA 
BRANCH  18  20
HETATM   20  O   UNL     1      -9.956   8.472  66.657  1.00  0.00    -0.248 OA 
BRANCH  20  21
HETATM   21  C   UNL     1      -9.679   7.061  66.633  1.00  0.00    -0.166 C  
HETATM   22  C   UNL     1      -8.806   6.562  67.800  1.00  0.00    -0.113 C  
HETATM   23  C   UNL     1      -9.410   6.912  69.178  1.00  0.00    -0.140 C  
HETATM   24  C   UNL     1      -8.514   5.048  67.683  1.00  0.00    -0.104 C  
HETATM   25  C   UNL     1     -10.742   6.245  69.492  1.00  0.00    -0.365 C  
BRANCH  24  26
HETATM   26  C   UNL     1      -7.801   4.655  66.386  1.00  0.00    -0.099 C  
BRANCH  26  27
HETATM   27  C   UNL     1      -8.794   4.214  65.310  1.00  0.00    -0.129 C  
HETATM   28  C   UNL     1      -8.087   3.445  64.201  1.00  0.00    -0.086 C  
ENDBRANCH  26  27
ENDBRANCH  24  26
ENDBRANCH  20  21
ENDBRANCH  18  20
ENDBRANCH  13  18
ENDBRANCH  12  13
ENDBRANCH  10  12
ENDBRANCH   9  10
ENDBRANCH   7   9
ENDBRANCH   3   4
ENDBRANCH   2   3
TORSDOF 11
ENDMDL
MODEL      308
REMARK 921   NORMALIZED FREE ENERGY PREDICTED BY IDOCK:   -2.72 KCAL/MOL
REMARK 922        TOTAL FREE ENERGY PREDICTED BY IDOCK:   -6.71 KCAL/MOL
REMARK 923 INTER-LIGAND FREE ENERGY PREDICTED BY IDOCK:   -5.92 KCAL/MOL
REMARK 924 INTRA-LIGAND FREE ENERGY PREDICTED BY IDOCK:   -0.80 KCAL/MOL
REMARK 927      BINDING AFFINITY PREDICTED BY RF-SCORE:    0.00 PKD
ROOT
HETATM    1  C   UNL     1     -11.142  16.697  65.366  1.00  0.00     0.014 C  
HETATM    2  C   UNL     1     -10.401  18.016  65.542  1.00  0.00     0.104 C  
ENDROOT
BRANCH   2   3
HETATM    3  C   UNL     1     -10.583  18.562  66.957  1.00  0.00    -0.421 C  
BRANCH   3   4
HETATM    4  C   UNL     1     -10.504  17.458  68.019  1.00  0.00    -0.383 C  
HETATM    5  C   UNL     1      -9.320  16.489  67.809  1.00  0.00    -0.210 C  
HETATM    6  C   UNL     1      -7.939  17.178  67.725  1.00  0.00    -0.190 C  
HETATM    7  C   UNL     1      -9.341  15.380  68.883  1.00  0.00    -0.218 C  
HETATM    8  C   UNL     1      -7.471  17.829  69.019  1.00  0.00    -0.170 C  
BRANCH   7   9
HETATM    9  O   UNL     1      -8.212  14.512  68.677  1.00  0.00    -0.145 OA 
BRANCH   9  10
HETATM   10  C   UNL     1      -8.359  13.569  67.709  1.00  0.00    -0.181 C  
HETATM   11  O   UNL     1      -7.446  12.928  67.209  1.00  0.00    -0.147 OA 
BRANCH  10  12
HETATM   12  C   UNL     1      -9.813  13.264  67.464  1.00  0.00    -0.220 C  
BRANCH  12  13
HETATM   13  C   UNL     1     -10.048  12.028  66.599  1.00  0.00    -0.198 C  
HETATM   14  O   UNL     1     -12.366  13.012  65.771  1.00  0.00    -0.452 OA 
HETATM   15  S   UNL     1     -11.176  12.363  65.282  1.00  0.00    -0.329 S  
HETATM   16  O   UNL     1     -10.292  13.485  64.524  1.00  0.00    -0.423 OA 
HETATM   17  O   UNL     1     -11.218  11.251  64.359  1.00  0.00    -0.271 OA 
BRANCH  13  18
HETATM   18  C   UNL     1     -10.623  10.917  67.419  1.00  0.00    -0.243 C  
HETATM   19  O   UNL     1     -11.801  10.837  67.738  1.00  0.00    -0.538 OA 
BRANCH  18  20
HETATM   20  O   UNL     1      -9.633  10.118  67.910  1.00  0.00    -0.147 OA 
BRANCH  20  21
HETATM   21  C   UNL     1      -9.048   9.219  66.953  1.00  0.00    -0.131 C  
HETATM   22  C   UNL     1      -8.694   7.829  67.515  1.00  0.00    -0.125 C  
HETATM   23  C   UNL     1      -9.912   7.127  68.156  1.00  0.00    -0.172 C  
HETATM   24  C   UNL     1      -8.030   6.935  66.443  1.00  0.00    -0.106 C  
HETATM   25  C   UNL     1     -11.043   6.784  67.196  1.00  0.00    -0.404 C  
BRANCH  24  26
HETATM   26  C   UNL     1      -6.744   7.525  65.857  1.00  0.00    -0.046 C  
BRANCH  26  27
HETATM   27  C   UNL     1      -6.821   7.641  64.334  1.00  0.00    -0.058 C  
HETATM   28  C   UNL     1      -7.819   6.642  63.763  1.00  0.00    -0.107 C  
ENDBRANCH  26  27
ENDBRANCH  24  26
ENDBRANCH  20  21
ENDBRANCH  18  20
ENDBRANCH  13  18
ENDBRANCH  12  13
ENDBRANCH  10  12
ENDBRANCH   9  10
ENDBRANCH   7   9
ENDBRANCH   3   4
ENDBRANCH   2   3
TORSDOF 11
ENDMDL
MODEL      309
REMARK 921   NORMALIZED FREE ENERGY PREDICTED BY IDOCK:   -2.72 KCAL/MOL
REMARK 922        TOTAL FREE ENERGY PREDICTED BY IDOCK:   -6.71 KCAL/MOL
REMARK 923 INTER-LIGAND FREE ENERGY PREDICTED BY IDOCK:   -5.48 KCAL/MOL
REMARK 924 INTRA-LIGAND FREE ENERGY PREDICTED BY IDOCK:   -1.23 KCAL/MOL
REMARK 927      BINDING AFFINITY PREDICTED BY RF-SCORE:    0.00 PKD
ROOT
HETATM    1  C   UNL     1      -6.843   2.128  72.739  1.00  0.00    -0.023 C  
HETATM    2  C   UNL     1      -6.658   2.413  71.255  1.00  0.00    -0.023 C  
ENDROOT
BRANCH   2   3
HETATM    3  C   UNL     1      -7.986   2.786  70.599  1.00  0.00    -0.049 C  
BRANCH   3   4
HETATM    4  C   UNL     1      -7.961   4.200  70.004  1.00  0.00    -0.055 C  
HETATM    5  C   UNL     1      -9.087   5.111  70.541  1.00  0.00    -0.177 C  
HETATM    6  C   UNL     1      -9.125   5.236  72.081  1.00  0.00    -0.148 C  
HETATM    7  C   UNL     1      -9.026   6.494  69.856  1.00  0.00    -0.143 C  
HETATM    8  C   UNL     1      -7.936   5.962  72.692  1.00  0.00    -0.105 C  
BRANCH   7   9
HETATM    9  O   UNL     1     -10.068   7.327  70.398  1.00  0.00    -0.191 OA 
BRANCH   9  10
HETATM   10  C   UNL     1      -9.846   8.666  70.339  1.00  0.00    -0.183 C  
HETATM   11  O   UNL     1     -10.264   9.483  71.147  1.00  0.00    -0.301 OA 
BRANCH  10  12
HETATM   12  C   UNL     1      -8.849   9.005  69.263  1.00  0.00    -0.139 C  
BRANCH  12  13
HETATM   13  C   UNL     1      -9.435   9.819  68.112  1.00  0.00    -0.135 C  
HETATM   14  O   UNL     1      -7.957   8.474  66.369  1.00  0.00    -0.096 OA 
HETATM   15  S   UNL     1      -9.299   8.960  66.575  1.00  0.00    -0.214 S  
HETATM   16  O   UNL     1     -10.219   7.688  66.958  1.00  0.00    -0.243 OA 
HETATM   17  O   UNL     1     -10.044   9.649  65.545  1.00  0.00    -0.290 OA 
BRANCH  13  18
HETATM   18  C   UNL     1      -8.713  11.121  67.972  1.00  0.00    -0.141 C  
HETATM   19  O   UNL     1      -7.917  11.557  68.792  1.00  0.00    -0.145 OA 
BRANCH  18  20
HETATM   20  O   UNL     1      -9.197  11.829  66.913  1.00  0.00    -0.178 OA 
BRANCH  20  21
HETATM   21  C   UNL     1     -10.281  12.722  67.224  1.00  0.00    -0.232 C  
HETATM   22  C   UNL     1     -10.536  13.811  66.166  1.00  0.00    -0.291 C  
HETATM   23  C   UNL     1     -10.788  13.219  64.761  1.00  0.00    -0.374 C  
HETATM   24  C   UNL     1     -11.684  14.756  66.589  1.00  0.00    -0.293 C  
HETATM   25  C   UNL     1     -12.045  12.370  64.629  1.00  0.00    -0.487 C  
BRANCH  24  26
HETATM   26  C   UNL     1     -11.436  15.471  67.921  1.00  0.00    -0.276 C  
BRANCH  26  27
HETATM   27  C   UNL     1     -10.387  16.575  67.780  1.00  0.00    -0.291 C  
HETATM   28  C   UNL     1      -9.392  16.529  68.932  1.00  0.00    -0.256 C  
ENDBRANCH  26  27
ENDBRANCH  24  26
ENDBRANCH  20  21
ENDBRANCH  18  20
ENDBRANCH  13  18
ENDBRANCH  12  13
ENDBRANCH  10  12
ENDBRANCH   9  10
ENDBRANCH   7   9
ENDBRANCH   3   4
ENDBRANCH   2   3
TORSDOF 11
ENDMDL
MODEL      310
REMARK 921   NORMALIZED FREE ENERGY PREDICTED BY IDOCK:   -2.69 KCAL/MOL
REMARK 922        TOTAL FREE ENERGY PREDICTED BY IDOCK:   -6.67 KCAL/MOL
REMARK 923 INTER-LIGAND FREE ENERGY PREDICTED BY IDOCK:   -5.73 KCAL/MOL
REMARK 924 INTRA-LIGAND FREE ENERGY PREDICTED BY IDOCK:   -0.94 KCAL/MOL
REMARK 927      BINDING AFFINITY PREDICTED BY RF-SCORE:    0.00 PKD
ROOT
HETATM    1  C   UNL     1      -9.639   4.351  68.276  1.00  0.00    -0.199 C  
HETATM    2  C   UNL     1      -8.449   3.514  67.830  1.00  0.00    -0.108 C  
ENDROOT
BRANCH   2   3
HETATM    3  C   UNL     1      -7.181   4.363  67.745  1.00  0.00    -0.065 C  
BRANCH   3   4
HETATM    4  C   UNL     1      -7.404   5.789  68.264  1.00  0.00    -0.080 C  
HETATM    5  C   UNL     1      -7.124   6.878  67.205  1.00  0.00    -0.080 C  
HETATM    6  C   UNL     1      -7.924   6.711  65.892  1.00  0.00    -0.112 C  
HETATM    7  C   UNL     1      -7.317   8.282  67.817  1.00  0.00    -0.093 C  
HETATM    8  C   UNL     1      -9.426   6.912  66.031  1.00  0.00     0.029 C  
BRANCH   7   9
HETATM    9  O   UNL     1      -7.077   9.271  66.799  1.00  0.00    -0.081 OA 
BRANCH   9  10
HETATM   10  C   UNL     1      -7.307  10.560  67.160  1.00  0.00    -0.093 C  
HETATM   11  O   UNL     1      -6.773  11.536  66.654  1.00  0.00    -0.133 OA 
BRANCH  10  12
HETATM   12  C   UNL     1      -8.454  10.657  68.132  1.00  0.00    -0.122 C  
BRANCH  12  13
HETATM   13  C   UNL     1      -9.678  11.375  67.572  1.00  0.00    -0.178 C  
HETATM   14  O   UNL     1     -11.241   9.379  68.350  1.00  0.00    -0.006 OA 
HETATM   15  S   UNL     1     -11.166  10.819  68.345  1.00  0.00    -0.297 S  
HETATM   16  O   UNL     1     -10.813  11.288  69.851  1.00  0.00    -0.127 OA 
HETATM   17  O   UNL     1     -12.279  11.656  67.956  1.00  0.00    -0.551 OA 
BRANCH  13  18
HETATM   18  C   UNL     1      -9.807  11.124  66.103  1.00  0.00    -0.225 C  
HETATM   19  O   UNL     1      -9.988  10.019  65.608  1.00  0.00    -0.272 OA 
BRANCH  18  20
HETATM   20  O   UNL     1      -9.514  12.250  65.394  1.00  0.00    -0.124 OA 
BRANCH  20  21
HETATM   21  C   UNL     1      -9.760  13.486  66.087  1.00  0.00    -0.252 C  
HETATM   22  C   UNL     1     -10.367  14.599  65.213  1.00  0.00    -0.425 C  
HETATM   23  C   UNL     1     -11.681  14.160  64.530  1.00  0.00    -0.426 C  
HETATM   24  C   UNL     1     -10.561  15.907  66.014  1.00  0.00    -0.331 C  
HETATM   25  C   UNL     1     -12.835  13.856  65.475  1.00  0.00    -0.471 C  
BRANCH  24  26
HETATM   26  C   UNL     1      -9.266  16.461  66.616  1.00  0.00    -0.279 C  
BRANCH  26  27
HETATM   27  C   UNL     1      -9.489  17.821  67.277  1.00  0.00    -0.255 C  
HETATM   28  C   UNL     1     -10.152  17.661  68.639  1.00  0.00    -0.377 C  
ENDBRANCH  26  27
ENDBRANCH  24  26
ENDBRANCH  20  21
ENDBRANCH  18  20
ENDBRANCH  13  18
ENDBRANCH  12  13
ENDBRANCH  10  12
ENDBRANCH   9  10
ENDBRANCH   7   9
ENDBRANCH   3   4
ENDBRANCH   2   3
TORSDOF 11
ENDMDL
MODEL      311
REMARK 921   NORMALIZED FREE ENERGY PREDICTED BY IDOCK:   -2.68 KCAL/MOL
REMARK 922        TOTAL FREE ENERGY PREDICTED BY IDOCK:   -6.66 KCAL/MOL
REMARK 923 INTER-LIGAND FREE ENERGY PREDICTED BY IDOCK:   -6.55 KCAL/MOL
REMARK 924 INTRA-LIGAND FREE ENERGY PREDICTED BY IDOCK:   -0.11 KCAL/MOL
REMARK 927      BINDING AFFINITY PREDICTED BY RF-SCORE:    0.00 PKD
ROOT
HETATM    1  C   UNL     1     -11.660  11.807  63.625  1.00  0.00    -0.521 C  
HETATM    2  C   UNL     1     -11.029  13.130  64.037  1.00  0.00    -0.377 C  
ENDROOT
BRANCH   2   3
HETATM    3  C   UNL     1     -11.427  13.507  65.464  1.00  0.00    -0.320 C  
BRANCH   3   4
HETATM    4  C   UNL     1     -11.881  12.290  66.279  1.00  0.00    -0.387 C  
HETATM    5  C   UNL     1     -10.854  11.847  67.344  1.00  0.00    -0.289 C  
HETATM    6  C   UNL     1     -10.438  12.963  68.331  1.00  0.00    -0.260 C  
HETATM    7  C   UNL     1     -11.358  10.589  68.083  1.00  0.00    -0.254 C  
HETATM    8  C   UNL     1     -11.543  13.432  69.265  1.00  0.00    -0.365 C  
BRANCH   7   9
HETATM    9  O   UNL     1     -10.393  10.221  69.085  1.00  0.00    -0.196 OA 
BRANCH   9  10
HETATM   10  C   UNL     1      -9.686   9.087  68.838  1.00  0.00    -0.163 C  
HETATM   11  O   UNL     1      -8.535   9.053  68.428  1.00  0.00    -0.126 OA 
BRANCH  10  12
HETATM   12  C   UNL     1     -10.427   7.868  69.320  1.00  0.00    -0.221 C  
BRANCH  12  13
HETATM   13  C   UNL     1     -10.164   7.523  70.783  1.00  0.00    -0.194 C  
HETATM   14  O   UNL     1     -11.709   9.530  71.565  1.00  0.00    -0.355 OA 
HETATM   15  S   UNL     1     -11.441   8.140  71.835  1.00  0.00    -0.324 S  
HETATM   16  O   UNL     1     -12.663   7.283  71.212  1.00  0.00    -0.362 OA 
HETATM   17  O   UNL     1     -11.284   7.623  73.176  1.00  0.00    -0.391 OA 
BRANCH  13  18
HETATM   18  C   UNL     1      -8.871   8.123  71.238  1.00  0.00    -0.146 C  
HETATM   19  O   UNL     1      -8.779   9.186  71.835  1.00  0.00    -0.336 OA 
BRANCH  18  20
HETATM   20  O   UNL     1      -7.813   7.423  70.738  1.00  0.00    -0.093 OA 
BRANCH  20  21
HETATM   21  C   UNL     1      -7.519   6.194  71.424  1.00  0.00    -0.093 C  
HETATM   22  C   UNL     1      -7.880   4.921  70.636  1.00  0.00    -0.070 C  
HETATM   23  C   UNL     1      -7.200   4.874  69.250  1.00  0.00    -0.056 C  
HETATM   24  C   UNL     1      -7.578   3.643  71.452  1.00  0.00    -0.055 C  
HETATM   25  C   UNL     1      -5.679   4.792  69.274  1.00  0.00    -0.016 C  
BRANCH  24  26
HETATM   26  C   UNL     1      -8.324   3.574  72.788  1.00  0.00    -0.082 C  
BRANCH  26  27
HETATM   27  C   UNL     1      -9.817   3.851  72.614  1.00  0.00    -0.208 C  
HETATM   28  C   UNL     1     -10.449   4.270  73.935  1.00  0.00    -0.288 C  
ENDBRANCH  26  27
ENDBRANCH  24  26
ENDBRANCH  20  21
ENDBRANCH  18  20
ENDBRANCH  13  18
ENDBRANCH  12  13
ENDBRANCH  10  12
ENDBRANCH   9  10
ENDBRANCH   7   9
ENDBRANCH   3   4
ENDBRANCH   2   3
TORSDOF 11
ENDMDL
MODEL      312
REMARK 921   NORMALIZED FREE ENERGY PREDICTED BY IDOCK:   -2.67 KCAL/MOL
REMARK 922        TOTAL FREE ENERGY PREDICTED BY IDOCK:   -6.64 KCAL/MOL
REMARK 923 INTER-LIGAND FREE ENERGY PREDICTED BY IDOCK:   -5.13 KCAL/MOL
REMARK 924 INTRA-LIGAND FREE ENERGY PREDICTED BY IDOCK:   -1.51 KCAL/MOL
REMARK 927      BINDING AFFINITY PREDICTED BY RF-SCORE:    0.00 PKD
ROOT
HETATM    1  C   UNL     1     -12.296  12.620  63.373  1.00  0.00    -0.553 C  
HETATM    2  C   UNL     1     -11.102  12.840  64.292  1.00  0.00    -0.410 C  
ENDROOT
BRANCH   2   3
HETATM    3  C   UNL     1     -10.130  11.663  64.219  1.00  0.00    -0.328 C  
BRANCH   3   4
HETATM    4  C   UNL     1      -9.960  10.966  65.574  1.00  0.00    -0.315 C  
HETATM    5  C   UNL     1      -9.597   9.470  65.453  1.00  0.00    -0.342 C  
HETATM    6  C   UNL     1      -8.337   9.186  64.603  1.00  0.00    -0.179 C  
HETATM    7  C   UNL     1      -9.497   8.829  66.854  1.00  0.00    -0.177 C  
HETATM    8  C   UNL     1      -7.033   9.686  65.208  1.00  0.00    -0.101 C  
BRANCH   7   9
HETATM    9  O   UNL     1      -9.131   7.445  66.708  1.00  0.00    -0.138 OA 
BRANCH   9  10
HETATM   10  C   UNL     1     -10.064   6.540  67.103  1.00  0.00    -0.170 C  
HETATM   11  O   UNL     1     -11.272   6.724  67.081  1.00  0.00    -0.379 OA 
BRANCH  10  12
HETATM   12  C   UNL     1      -9.437   5.201  67.387  1.00  0.00    -0.144 C  
BRANCH  12  13
HETATM   13  C   UNL     1      -8.604   5.168  68.666  1.00  0.00    -0.087 C  
HETATM   14  O   UNL     1      -8.580   2.517  68.616  1.00  0.00    -0.064 OA 
HETATM   15  S   UNL     1      -7.713   3.651  68.820  1.00  0.00    -0.052 S  
HETATM   16  O   UNL     1      -6.799   3.803  67.495  1.00  0.00    -0.052 OA 
HETATM   17  O   UNL     1      -6.775   3.727  69.917  1.00  0.00    -0.033 OA 
BRANCH  13  18
HETATM   18  C   UNL     1      -9.484   5.303  69.868  1.00  0.00    -0.155 C  
HETATM   19  O   UNL     1     -10.690   5.100  69.863  1.00  0.00    -0.237 OA 
BRANCH  18  20
HETATM   20  O   UNL     1      -8.798   5.857  70.908  1.00  0.00    -0.136 OA 
BRANCH  20  21
HETATM   21  C   UNL     1      -7.908   6.927  70.546  1.00  0.00    -0.105 C  
HETATM   22  C   UNL     1      -8.358   8.321  71.023  1.00  0.00    -0.138 C  
HETATM   23  C   UNL     1      -8.583   8.375  72.550  1.00  0.00    -0.253 C  
HETATM   24  C   UNL     1      -7.378   9.423  70.561  1.00  0.00    -0.138 C  
HETATM   25  C   UNL     1      -7.339   8.155  73.399  1.00  0.00    -0.178 C  
BRANCH  24  26
HETATM   26  C   UNL     1      -7.207   9.500  69.040  1.00  0.00    -0.071 C  
BRANCH  26  27
HETATM   27  C   UNL     1      -6.689  10.870  68.601  1.00  0.00    -0.059 C  
HETATM   28  C   UNL     1      -7.838  11.850  68.412  1.00  0.00    -0.141 C  
ENDBRANCH  26  27
ENDBRANCH  24  26
ENDBRANCH  20  21
ENDBRANCH  18  20
ENDBRANCH  13  18
ENDBRANCH  12  13
ENDBRANCH  10  12
ENDBRANCH   9  10
ENDBRANCH   7   9
ENDBRANCH   3   4
ENDBRANCH   2   3
TORSDOF 11
ENDMDL
MODEL      313
REMARK 921   NORMALIZED FREE ENERGY PREDICTED BY IDOCK:   -2.67 KCAL/MOL
REMARK 922        TOTAL FREE ENERGY PREDICTED BY IDOCK:   -6.63 KCAL/MOL
REMARK 923 INTER-LIGAND FREE ENERGY PREDICTED BY IDOCK:   -5.02 KCAL/MOL
REMARK 924 INTRA-LIGAND FREE ENERGY PREDICTED BY IDOCK:   -1.60 KCAL/MOL
REMARK 927      BINDING AFFINITY PREDICTED BY RF-SCORE:    0.00 PKD
ROOT
HETATM    1  C   UNL     1      -9.535  17.072  67.339  1.00  0.00    -0.242 C  
HETATM    2  C   UNL     1     -10.177  15.901  66.608  1.00  0.00    -0.293 C  
ENDROOT
BRANCH   2   3
HETATM    3  C   UNL     1     -10.147  14.636  67.465  1.00  0.00    -0.224 C  
BRANCH   3   4
HETATM    4  C   UNL     1     -10.191  13.360  66.616  1.00  0.00    -0.274 C  
HETATM    5  C   UNL     1      -9.571  12.133  67.320  1.00  0.00    -0.185 C  
HETATM    6  C   UNL     1     -10.183  11.814  68.703  1.00  0.00    -0.211 C  
HETATM    7  C   UNL     1      -9.605  10.906  66.383  1.00  0.00    -0.197 C  
HETATM    8  C   UNL     1     -11.630  11.345  68.668  1.00  0.00    -0.384 C  
BRANCH   7   9
HETATM    9  O   UNL     1      -9.046   9.776  67.078  1.00  0.00    -0.136 OA 
BRANCH   9  10
HETATM   10  C   UNL     1      -9.683   8.590  66.887  1.00  0.00    -0.221 C  
HETATM   11  O   UNL     1     -10.887   8.460  66.721  1.00  0.00    -0.172 OA 
BRANCH  10  12
HETATM   12  C   UNL     1      -8.697   7.466  66.707  1.00  0.00    -0.136 C  
BRANCH  12  13
HETATM   13  C   UNL     1      -8.631   6.506  67.891  1.00  0.00    -0.117 C  
HETATM   14  O   UNL     1      -7.376   4.708  66.401  1.00  0.00    -0.078 OA 
HETATM   15  S   UNL     1      -7.328   5.330  67.701  1.00  0.00    -0.076 S  
HETATM   16  O   UNL     1      -6.095   6.376  67.689  1.00  0.00    -0.019 OA 
HETATM   17  O   UNL     1      -7.149   4.574  68.920  1.00  0.00    -0.051 OA 
BRANCH  13  18
HETATM   18  C   UNL     1      -9.913   5.747  68.022  1.00  0.00    -0.144 C  
HETATM   19  O   UNL     1     -10.369   5.013  67.156  1.00  0.00    -0.203 OA 
BRANCH  18  20
HETATM   20  O   UNL     1     -10.586   6.127  69.146  1.00  0.00    -0.219 OA 
BRANCH  20  21
HETATM   21  C   UNL     1      -9.752   6.534  70.244  1.00  0.00    -0.168 C  
HETATM   22  C   UNL     1      -9.780   8.044  70.543  1.00  0.00    -0.179 C  
HETATM   23  C   UNL     1     -11.211   8.565  70.805  1.00  0.00    -0.289 C  
HETATM   24  C   UNL     1      -8.828   8.411  71.704  1.00  0.00    -0.246 C  
HETATM   25  C   UNL     1     -11.891   8.000  72.045  1.00  0.00    -0.376 C  
BRANCH  24  26
HETATM   26  C   UNL     1      -7.367   8.030  71.449  1.00  0.00    -0.070 C  
BRANCH  26  27
HETATM   27  C   UNL     1      -6.495   9.264  71.217  1.00  0.00    -0.066 C  
HETATM   28  C   UNL     1      -6.530   9.687  69.754  1.00  0.00    -0.049 C  
ENDBRANCH  26  27
ENDBRANCH  24  26
ENDBRANCH  20  21
ENDBRANCH  18  20
ENDBRANCH  13  18
ENDBRANCH  12  13
ENDBRANCH  10  12
ENDBRANCH   9  10
ENDBRANCH   7   9
ENDBRANCH   3   4
ENDBRANCH   2   3
TORSDOF 11
ENDMDL
MODEL      314
REMARK 921   NORMALIZED FREE ENERGY PREDICTED BY IDOCK:   -2.65 KCAL/MOL
REMARK 922        TOTAL FREE ENERGY PREDICTED BY IDOCK:   -6.60 KCAL/MOL
REMARK 923 INTER-LIGAND FREE ENERGY PREDICTED BY IDOCK:   -5.32 KCAL/MOL
REMARK 924 INTRA-LIGAND FREE ENERGY PREDICTED BY IDOCK:   -1.29 KCAL/MOL
REMARK 927      BINDING AFFINITY PREDICTED BY RF-SCORE:    0.00 PKD
ROOT
HETATM    1  C   UNL     1      -9.330  11.370  63.090  1.00  0.00    -0.307 C  
HETATM    2  C   UNL     1      -9.602   9.972  62.552  1.00  0.00    -0.119 C  
ENDROOT
BRANCH   2   3
HETATM    3  C   UNL     1      -8.336   9.116  62.588  1.00  0.00    -0.192 C  
BRANCH   3   4
HETATM    4  C   UNL     1      -7.329   9.613  63.632  1.00  0.00    -0.115 C  
HETATM    5  C   UNL     1      -7.579   9.044  65.046  1.00  0.00    -0.103 C  
HETATM    6  C   UNL     1      -7.622   7.500  65.113  1.00  0.00    -0.096 C  
HETATM    7  C   UNL     1      -6.561   9.631  66.046  1.00  0.00    -0.079 C  
HETATM    8  C   UNL     1      -6.296   6.811  64.824  1.00  0.00    -0.039 C  
BRANCH   7   9
HETATM    9  O   UNL     1      -6.803   9.060  67.345  1.00  0.00    -0.075 OA 
BRANCH   9  10
HETATM   10  C   UNL     1      -7.267   9.918  68.292  1.00  0.00    -0.078 C  
HETATM   11  O   UNL     1      -6.867  11.061  68.459  1.00  0.00    -0.059 OA 
BRANCH  10  12
HETATM   12  C   UNL     1      -8.480   9.357  68.986  1.00  0.00    -0.129 C  
BRANCH  12  13
HETATM   13  C   UNL     1      -9.763   9.459  68.167  1.00  0.00    -0.145 C  
HETATM   14  O   UNL     1     -11.046  10.480  70.250  1.00  0.00    -0.298 OA 
HETATM   15  S   UNL     1     -10.863  10.670  68.833  1.00  0.00    -0.251 S  
HETATM   16  O   UNL     1      -9.906  11.958  68.639  1.00  0.00    -0.197 OA 
HETATM   17  O   UNL     1     -11.967  10.899  67.929  1.00  0.00    -0.585 OA 
BRANCH  13  18
HETATM   18  C   UNL     1     -10.483   8.148  68.156  1.00  0.00    -0.170 C  
HETATM   19  O   UNL     1     -10.578   7.425  67.173  1.00  0.00    -0.295 OA 
BRANCH  18  20
HETATM   20  O   UNL     1     -11.165   7.962  69.321  1.00  0.00     0.043 OA 
BRANCH  20  21
HETATM   21  C   UNL     1     -11.039   6.649  69.896  1.00  0.00    -0.348 C  
HETATM   22  C   UNL     1      -9.813   6.468  70.810  1.00  0.00    -0.201 C  
HETATM   23  C   UNL     1      -9.777   7.502  71.957  1.00  0.00    -0.195 C  
HETATM   24  C   UNL     1      -9.720   5.023  71.354  1.00  0.00    -0.231 C  
HETATM   25  C   UNL     1     -10.919   7.401  72.960  1.00  0.00    -0.422 C  
BRANCH  24  26
HETATM   26  C   UNL     1      -9.628   3.956  70.259  1.00  0.00    -0.271 C  
BRANCH  26  27
HETATM   27  C   UNL     1      -9.576   2.547  70.850  1.00  0.00    -0.192 C  
HETATM   28  C   UNL     1     -10.274   2.499  72.202  1.00  0.00    -0.171 C  
ENDBRANCH  26  27
ENDBRANCH  24  26
ENDBRANCH  20  21
ENDBRANCH  18  20
ENDBRANCH  13  18
ENDBRANCH  12  13
ENDBRANCH  10  12
ENDBRANCH   9  10
ENDBRANCH   7   9
ENDBRANCH   3   4
ENDBRANCH   2   3
TORSDOF 11
ENDMDL
MODEL      315
REMARK 921   NORMALIZED FREE ENERGY PREDICTED BY IDOCK:   -2.64 KCAL/MOL
REMARK 922        TOTAL FREE ENERGY PREDICTED BY IDOCK:   -6.59 KCAL/MOL
REMARK 923 INTER-LIGAND FREE ENERGY PREDICTED BY IDOCK:   -5.90 KCAL/MOL
REMARK 924 INTRA-LIGAND FREE ENERGY PREDICTED BY IDOCK:   -0.69 KCAL/MOL
REMARK 927      BINDING AFFINITY PREDICTED BY RF-SCORE:    0.00 PKD
ROOT
HETATM    1  C   UNL     1     -12.565   8.632  72.146  1.00  0.00    -0.451 C  
HETATM    2  C   UNL     1     -11.228   7.996  71.794  1.00  0.00    -0.317 C  
ENDROOT
BRANCH   2   3
HETATM    3  C   UNL     1     -11.428   6.694  71.019  1.00  0.00    -0.382 C  
BRANCH   3   4
HETATM    4  C   UNL     1     -11.031   6.830  69.544  1.00  0.00    -0.325 C  
HETATM    5  C   UNL     1      -9.565   7.273  69.342  1.00  0.00    -0.154 C  
HETATM    6  C   UNL     1      -8.524   6.368  70.040  1.00  0.00    -0.135 C  
HETATM    7  C   UNL     1      -9.259   7.439  67.838  1.00  0.00    -0.131 C  
HETATM    8  C   UNL     1      -8.415   4.962  69.470  1.00  0.00    -0.090 C  
BRANCH   7   9
HETATM    9  O   UNL     1      -7.881   7.823  67.683  1.00  0.00    -0.118 OA 
BRANCH   9  10
HETATM   10  C   UNL     1      -7.459   8.013  66.405  1.00  0.00    -0.087 C  
HETATM   11  O   UNL     1      -6.295   7.969  66.036  1.00  0.00    -0.045 OA 
BRANCH  10  12
HETATM   12  C   UNL     1      -8.625   8.090  65.454  1.00  0.00    -0.138 C  
BRANCH  12  13
HETATM   13  C   UNL     1      -8.930   9.502  64.963  1.00  0.00    -0.213 C  
HETATM   14  O   UNL     1      -6.674   9.538  63.572  1.00  0.00    -0.097 OA 
HETATM   15  S   UNL     1      -8.073   9.867  63.462  1.00  0.00    -0.168 S  
HETATM   16  O   UNL     1      -8.764   8.733  62.540  1.00  0.00    -0.203 OA 
HETATM   17  O   UNL     1      -8.539  11.118  62.907  1.00  0.00    -0.164 OA 
BRANCH  13  18
HETATM   18  C   UNL     1      -8.512  10.513  65.983  1.00  0.00    -0.156 C  
HETATM   19  O   UNL     1      -7.400  11.021  66.032  1.00  0.00    -0.118 OA 
BRANCH  18  20
HETATM   20  O   UNL     1      -9.466  10.648  66.947  1.00  0.00    -0.162 OA 
BRANCH  20  21
HETATM   21  C   UNL     1      -9.480  11.922  67.614  1.00  0.00    -0.182 C  
HETATM   22  C   UNL     1     -10.873  12.566  67.732  1.00  0.00    -0.254 C  
HETATM   23  C   UNL     1     -11.891  11.643  68.437  1.00  0.00    -0.346 C  
HETATM   24  C   UNL     1     -10.803  13.950  68.418  1.00  0.00    -0.269 C  
HETATM   25  C   UNL     1     -11.581  11.327  69.894  1.00  0.00    -0.413 C  
BRANCH  24  26
HETATM   26  C   UNL     1      -9.901  14.954  67.692  1.00  0.00    -0.217 C  
BRANCH  26  27
HETATM   27  C   UNL     1      -9.679  16.216  68.526  1.00  0.00    -0.217 C  
HETATM   28  C   UNL     1     -10.767  17.246  68.253  1.00  0.00    -0.349 C  
ENDBRANCH  26  27
ENDBRANCH  24  26
ENDBRANCH  20  21
ENDBRANCH  18  20
ENDBRANCH  13  18
ENDBRANCH  12  13
ENDBRANCH  10  12
ENDBRANCH   9  10
ENDBRANCH   7   9
ENDBRANCH   3   4
ENDBRANCH   2   3
TORSDOF 11
ENDMDL
MODEL      316
REMARK 921   NORMALIZED FREE ENERGY PREDICTED BY IDOCK:   -2.64 KCAL/MOL
REMARK 922        TOTAL FREE ENERGY PREDICTED BY IDOCK:   -6.59 KCAL/MOL
REMARK 923 INTER-LIGAND FREE ENERGY PREDICTED BY IDOCK:   -5.63 KCAL/MOL
REMARK 924 INTRA-LIGAND FREE ENERGY PREDICTED BY IDOCK:   -0.96 KCAL/MOL
REMARK 927      BINDING AFFINITY PREDICTED BY RF-SCORE:    0.00 PKD
ROOT
HETATM    1  C   UNL     1     -12.149  14.739  70.047  1.00  0.00    -0.380 C  
HETATM    2  C   UNL     1     -11.129  15.612  69.330  1.00  0.00    -0.303 C  
ENDROOT
BRANCH   2   3
HETATM    3  C   UNL     1     -11.438  15.702  67.836  1.00  0.00    -0.253 C  
BRANCH   3   4
HETATM    4  C   UNL     1     -10.516  14.808  66.999  1.00  0.00    -0.270 C  
HETATM    5  C   UNL     1     -11.157  13.457  66.613  1.00  0.00    -0.310 C  
HETATM    6  C   UNL     1     -12.510  13.581  65.875  1.00  0.00    -0.484 C  
HETATM    7  C   UNL     1     -10.152  12.595  65.820  1.00  0.00    -0.271 C  
HETATM    8  C   UNL     1     -12.426  14.195  64.485  1.00  0.00    -0.350 C  
BRANCH   7   9
HETATM    9  O   UNL     1     -10.788  11.357  65.452  1.00  0.00    -0.281 OA 
BRANCH   9  10
HETATM   10  C   UNL     1     -10.043  10.234  65.625  1.00  0.00    -0.271 C  
HETATM   11  O   UNL     1      -9.617   9.529  64.722  1.00  0.00    -0.216 OA 
BRANCH  10  12
HETATM   12  C   UNL     1      -9.633  10.070  67.065  1.00  0.00    -0.212 C  
BRANCH  12  13
HETATM   13  C   UNL     1     -10.603   9.228  67.890  1.00  0.00    -0.231 C  
HETATM   14  O   UNL     1      -9.782  10.413  70.115  1.00  0.00    -0.010 OA 
HETATM   15  S   UNL     1     -10.983  10.002  69.432  1.00  0.00    -0.236 S  
HETATM   16  O   UNL     1     -11.679  11.334  68.836  1.00  0.00    -0.289 OA 
HETATM   17  O   UNL     1     -12.057   9.300  70.097  1.00  0.00     0.067 OA 
BRANCH  13  18
HETATM   18  C   UNL     1     -10.010   7.888  68.188  1.00  0.00    -0.180 C  
HETATM   19  O   UNL     1     -10.650   6.845  68.219  1.00  0.00    -0.196 OA 
BRANCH  18  20
HETATM   20  O   UNL     1      -8.716   8.012  68.597  1.00  0.00    -0.131 OA 
BRANCH  20  21
HETATM   21  C   UNL     1      -8.477   7.663  69.972  1.00  0.00    -0.136 C  
HETATM   22  C   UNL     1      -7.088   7.056  70.244  1.00  0.00    -0.067 C  
HETATM   23  C   UNL     1      -5.941   7.978  69.775  1.00  0.00    -0.023 C  
HETATM   24  C   UNL     1      -6.922   6.665  71.731  1.00  0.00    -0.071 C  
HETATM   25  C   UNL     1      -5.837   9.309  70.507  1.00  0.00    -0.044 C  
BRANCH  24  26
HETATM   26  C   UNL     1      -7.961   5.653  72.224  1.00  0.00    -0.107 C  
BRANCH  26  27
HETATM   27  C   UNL     1      -8.457   5.995  73.629  1.00  0.00    -0.118 C  
HETATM   28  C   UNL     1      -8.596   7.501  73.804  1.00  0.00    -0.253 C  
ENDBRANCH  26  27
ENDBRANCH  24  26
ENDBRANCH  20  21
ENDBRANCH  18  20
ENDBRANCH  13  18
ENDBRANCH  12  13
ENDBRANCH  10  12
ENDBRANCH   9  10
ENDBRANCH   7   9
ENDBRANCH   3   4
ENDBRANCH   2   3
TORSDOF 11
ENDMDL
MODEL      317
REMARK 921   NORMALIZED FREE ENERGY PREDICTED BY IDOCK:   -2.64 KCAL/MOL
REMARK 922        TOTAL FREE ENERGY PREDICTED BY IDOCK:   -6.58 KCAL/MOL
REMARK 923 INTER-LIGAND FREE ENERGY PREDICTED BY IDOCK:   -5.30 KCAL/MOL
REMARK 924 INTRA-LIGAND FREE ENERGY PREDICTED BY IDOCK:   -1.28 KCAL/MOL
REMARK 927      BINDING AFFINITY PREDICTED BY RF-SCORE:    0.00 PKD
ROOT
HETATM    1  C   UNL     1     -10.637  13.537  64.275  1.00  0.00    -0.304 C  
HETATM    2  C   UNL     1     -11.134  13.779  65.693  1.00  0.00    -0.297 C  
ENDROOT
BRANCH   2   3
HETATM    3  C   UNL     1     -11.852  12.546  66.241  1.00  0.00    -0.453 C  
BRANCH   3   4
HETATM    4  C   UNL     1     -11.013  11.805  67.288  1.00  0.00    -0.318 C  
HETATM    5  C   UNL     1     -10.814  10.307  66.968  1.00  0.00    -0.248 C  
HETATM    6  C   UNL     1     -10.203  10.029  65.575  1.00  0.00    -0.248 C  
HETATM    7  C   UNL     1     -10.008   9.622  68.092  1.00  0.00    -0.159 C  
HETATM    8  C   UNL     1      -8.762  10.489  65.406  1.00  0.00    -0.195 C  
BRANCH   7   9
HETATM    9  O   UNL     1      -9.816   8.237  67.750  1.00  0.00    -0.156 OA 
BRANCH   9  10
HETATM   10  C   UNL     1     -10.647   7.355  68.365  1.00  0.00    -0.152 C  
HETATM   11  O   UNL     1     -11.124   6.359  67.841  1.00  0.00    -0.322 OA 
BRANCH  10  12
HETATM   12  C   UNL     1     -10.752   7.644  69.839  1.00  0.00    -0.253 C  
BRANCH  12  13
HETATM   13  C   UNL     1     -10.834   6.394  70.709  1.00  0.00    -0.267 C  
HETATM   14  O   UNL     1     -11.632   7.849  72.776  1.00  0.00    -0.383 OA 
HETATM   15  S   UNL     1     -11.929   6.625  72.076  1.00  0.00    -0.295 S  
HETATM   16  O   UNL     1     -13.282   6.872  71.225  1.00  0.00    -0.311 OA 
HETATM   17  O   UNL     1     -12.155   5.371  72.758  1.00  0.00    -0.182 OA 
BRANCH  13  18
HETATM   18  C   UNL     1      -9.486   6.049  71.260  1.00  0.00    -0.163 C  
HETATM   19  O   UNL     1      -9.036   6.498  72.305  1.00  0.00    -0.138 OA 
BRANCH  18  20
HETATM   20  O   UNL     1      -8.768   5.323  70.357  1.00  0.00    -0.122 OA 
BRANCH  20  21
HETATM   21  C   UNL     1      -7.628   6.002  69.802  1.00  0.00    -0.081 C  
HETATM   22  C   UNL     1      -6.391   6.027  70.719  1.00  0.00    -0.039 C  
HETATM   23  C   UNL     1      -5.948   4.611  71.148  1.00  0.00    -0.017 C  
HETATM   24  C   UNL     1      -5.223   6.810  70.076  1.00  0.00    -0.015 C  
HETATM   25  C   UNL     1      -5.466   3.711  70.019  1.00  0.00    -0.012 C  
BRANCH  24  26
HETATM   26  C   UNL     1      -5.566   8.265  69.740  1.00  0.00    -0.026 C  
BRANCH  26  27
HETATM   27  C   UNL     1      -5.922   9.063  70.994  1.00  0.00    -0.050 C  
HETATM   28  C   UNL     1      -5.530  10.526  70.837  1.00  0.00    -0.093 C  
ENDBRANCH  26  27
ENDBRANCH  24  26
ENDBRANCH  20  21
ENDBRANCH  18  20
ENDBRANCH  13  18
ENDBRANCH  12  13
ENDBRANCH  10  12
ENDBRANCH   9  10
ENDBRANCH   7   9
ENDBRANCH   3   4
ENDBRANCH   2   3
TORSDOF 11
ENDMDL
MODEL      318
REMARK 921   NORMALIZED FREE ENERGY PREDICTED BY IDOCK:   -2.63 KCAL/MOL
REMARK 922        TOTAL FREE ENERGY PREDICTED BY IDOCK:   -6.57 KCAL/MOL
REMARK 923 INTER-LIGAND FREE ENERGY PREDICTED BY IDOCK:   -6.24 KCAL/MOL
REMARK 924 INTRA-LIGAND FREE ENERGY PREDICTED BY IDOCK:   -0.33 KCAL/MOL
REMARK 927      BINDING AFFINITY PREDICTED BY RF-SCORE:    0.00 PKD
ROOT
HETATM    1  C   UNL     1     -12.482  11.977  63.262  1.00  0.00    -0.544 C  
HETATM    2  C   UNL     1     -11.269  12.776  63.719  1.00  0.00    -0.496 C  
ENDROOT
BRANCH   2   3
HETATM    3  C   UNL     1     -11.565  13.531  65.014  1.00  0.00    -0.345 C  
BRANCH   3   4
HETATM    4  C   UNL     1     -12.056  12.598  66.128  1.00  0.00    -0.399 C  
HETATM    5  C   UNL     1     -10.912  12.002  66.978  1.00  0.00    -0.323 C  
HETATM    6  C   UNL     1      -9.971  13.054  67.609  1.00  0.00    -0.215 C  
HETATM    7  C   UNL     1     -11.482  11.036  68.039  1.00  0.00    -0.290 C  
HETATM    8  C   UNL     1     -10.614  13.926  68.677  1.00  0.00    -0.265 C  
BRANCH   7   9
HETATM    9  O   UNL     1     -10.396  10.521  68.830  1.00  0.00    -0.171 OA 
BRANCH   9  10
HETATM   10  C   UNL     1      -9.975   9.268  68.513  1.00  0.00    -0.175 C  
HETATM   11  O   UNL     1      -8.915   9.002  67.965  1.00  0.00    -0.132 OA 
BRANCH  10  12
HETATM   12  C   UNL     1     -10.887   8.223  69.100  1.00  0.00    -0.036 C  
BRANCH  12  13
HETATM   13  C   UNL     1     -10.503   7.792  70.513  1.00  0.00    -0.217 C  
HETATM   14  O   UNL     1     -11.756   9.896  71.528  1.00  0.00    -0.380 OA 
HETATM   15  S   UNL     1     -11.596   8.476  71.720  1.00  0.00    -0.339 S  
HETATM   16  O   UNL     1     -12.954   7.764  71.207  1.00  0.00    -0.299 OA 
HETATM   17  O   UNL     1     -11.347   7.889  73.016  1.00  0.00    -0.408 OA 
BRANCH  13  18
HETATM   18  C   UNL     1      -9.118   8.249  70.842  1.00  0.00    -0.152 C  
HETATM   19  O   UNL     1      -8.842   9.370  71.247  1.00  0.00    -0.287 OA 
BRANCH  18  20
HETATM   20  O   UNL     1      -8.199   7.319  70.457  1.00  0.00    -0.120 OA 
BRANCH  20  21
HETATM   21  C   UNL     1      -8.618   5.952  70.610  1.00  0.00    -0.133 C  
HETATM   22  C   UNL     1      -7.696   5.097  71.500  1.00  0.00    -0.103 C  
HETATM   23  C   UNL     1      -7.509   5.705  72.908  1.00  0.00    -0.096 C  
HETATM   24  C   UNL     1      -8.184   3.632  71.581  1.00  0.00    -0.068 C  
HETATM   25  C   UNL     1      -8.770   5.773  73.759  1.00  0.00    -0.121 C  
BRANCH  24  26
HETATM   26  C   UNL     1      -8.272   2.934  70.221  1.00  0.00    -0.064 C  
BRANCH  26  27
HETATM   27  C   UNL     1      -6.966   2.219  69.870  1.00  0.00    -0.033 C  
HETATM   28  C   UNL     1      -6.265   2.909  68.707  1.00  0.00    -0.029 C  
ENDBRANCH  26  27
ENDBRANCH  24  26
ENDBRANCH  20  21
ENDBRANCH  18  20
ENDBRANCH  13  18
ENDBRANCH  12  13
ENDBRANCH  10  12
ENDBRANCH   9  10
ENDBRANCH   7   9
ENDBRANCH   3   4
ENDBRANCH   2   3
TORSDOF 11
ENDMDL
MODEL      319
REMARK 921   NORMALIZED FREE ENERGY PREDICTED BY IDOCK:   -2.60 KCAL/MOL
REMARK 922        TOTAL FREE ENERGY PREDICTED BY IDOCK:   -6.52 KCAL/MOL
REMARK 923 INTER-LIGAND FREE ENERGY PREDICTED BY IDOCK:   -4.87 KCAL/MOL
REMARK 924 INTRA-LIGAND FREE ENERGY PREDICTED BY IDOCK:   -1.65 KCAL/MOL
REMARK 927      BINDING AFFINITY PREDICTED BY RF-SCORE:    0.00 PKD
ROOT
HETATM    1  C   UNL     1     -11.323  12.162  64.105  1.00  0.00    -0.449 C  
HETATM    2  C   UNL     1     -10.659  11.011  63.362  1.00  0.00    -0.249 C  
ENDROOT
BRANCH   2   3
HETATM    3  C   UNL     1      -9.137  11.101  63.459  1.00  0.00    -0.132 C  
BRANCH   3   4
HETATM    4  C   UNL     1      -8.609  10.559  64.793  1.00  0.00    -0.173 C  
HETATM    5  C   UNL     1      -8.520   9.018  64.837  1.00  0.00    -0.195 C  
HETATM    6  C   UNL     1      -7.682   8.394  63.697  1.00  0.00    -0.144 C  
HETATM    7  C   UNL     1      -8.033   8.550  66.225  1.00  0.00    -0.102 C  
HETATM    8  C   UNL     1      -6.194   8.707  63.753  1.00  0.00    -0.073 C  
BRANCH   7   9
HETATM    9  O   UNL     1      -7.934   7.114  66.224  1.00  0.00    -0.103 OA 
BRANCH   9  10
HETATM   10  C   UNL     1      -7.142   6.574  67.188  1.00  0.00    -0.076 C  
HETATM   11  O   UNL     1      -5.922   6.521  67.144  1.00  0.00    -0.019 OA 
BRANCH  10  12
HETATM   12  C   UNL     1      -7.941   6.225  68.415  1.00  0.00    -0.105 C  
BRANCH  12  13
HETATM   13  C   UNL     1      -7.213   6.508  69.727  1.00  0.00    -0.078 C  
HETATM   14  O   UNL     1      -8.491   4.504  70.902  1.00  0.00    -0.086 OA 
HETATM   15  S   UNL     1      -7.177   5.082  70.769  1.00  0.00    -0.062 S  
HETATM   16  O   UNL     1      -6.324   4.122  69.787  1.00  0.00    -0.026 OA 
HETATM   17  O   UNL     1      -6.307   5.308  71.901  1.00  0.00    -0.035 OA 
BRANCH  13  18
HETATM   18  C   UNL     1      -7.897   7.605  70.480  1.00  0.00    -0.095 C  
HETATM   19  O   UNL     1      -7.568   7.981  71.596  1.00  0.00    -0.071 OA 
BRANCH  18  20
HETATM   20  O   UNL     1      -9.036   7.993  69.838  1.00  0.00    -0.143 OA 
BRANCH  20  21
HETATM   21  C   UNL     1      -9.629   9.205  70.334  1.00  0.00    -0.224 C  
HETATM   22  C   UNL     1     -11.165   9.170  70.437  1.00  0.00    -0.279 C  
HETATM   23  C   UNL     1     -11.669   7.996  71.305  1.00  0.00    -0.311 C  
HETATM   24  C   UNL     1     -11.732  10.520  70.934  1.00  0.00    -0.431 C  
HETATM   25  C   UNL     1     -11.271   8.056  72.774  1.00  0.00    -0.448 C  
BRANCH  24  26
HETATM   26  C   UNL     1     -11.367  11.709  70.040  1.00  0.00    -0.176 C  
BRANCH  26  27
HETATM   27  C   UNL     1     -11.915  11.537  68.623  1.00  0.00    -0.312 C  
HETATM   28  C   UNL     1     -10.893  11.988  67.588  1.00  0.00    -0.273 C  
ENDBRANCH  26  27
ENDBRANCH  24  26
ENDBRANCH  20  21
ENDBRANCH  18  20
ENDBRANCH  13  18
ENDBRANCH  12  13
ENDBRANCH  10  12
ENDBRANCH   9  10
ENDBRANCH   7   9
ENDBRANCH   3   4
ENDBRANCH   2   3
TORSDOF 11
ENDMDL
MODEL      320
REMARK 921   NORMALIZED FREE ENERGY PREDICTED BY IDOCK:   -2.58 KCAL/MOL
REMARK 922        TOTAL FREE ENERGY PREDICTED BY IDOCK:   -6.49 KCAL/MOL
REMARK 923 INTER-LIGAND FREE ENERGY PREDICTED BY IDOCK:   -5.28 KCAL/MOL
REMARK 924 INTRA-LIGAND FREE ENERGY PREDICTED BY IDOCK:   -1.21 KCAL/MOL
REMARK 927      BINDING AFFINITY PREDICTED BY RF-SCORE:    0.00 PKD
ROOT
HETATM    1  C   UNL     1     -11.076   2.474  73.457  1.00  0.00    -0.315 C  
HETATM    2  C   UNL     1     -10.110   2.971  74.524  1.00  0.00    -0.192 C  
ENDROOT
BRANCH   2   3
HETATM    3  C   UNL     1      -8.660   2.720  74.110  1.00  0.00    -0.072 C  
BRANCH   3   4
HETATM    4  C   UNL     1      -8.275   3.499  72.847  1.00  0.00    -0.081 C  
HETATM    5  C   UNL     1      -7.924   4.978  73.120  1.00  0.00    -0.104 C  
HETATM    6  C   UNL     1      -6.811   5.185  74.172  1.00  0.00    -0.077 C  
HETATM    7  C   UNL     1      -7.602   5.704  71.797  1.00  0.00    -0.096 C  
HETATM    8  C   UNL     1      -5.432   4.701  73.747  1.00  0.00    -0.009 C  
BRANCH   7   9
HETATM    9  O   UNL     1      -7.252   7.070  72.089  1.00  0.00    -0.075 OA 
BRANCH   9  10
HETATM   10  C   UNL     1      -8.242   7.984  71.913  1.00  0.00    -0.126 C  
HETATM   11  O   UNL     1      -8.445   8.946  72.639  1.00  0.00    -0.388 OA 
BRANCH  10  12
HETATM   12  C   UNL     1      -8.942   7.782  70.595  1.00  0.00    -0.145 C  
BRANCH  12  13
HETATM   13  C   UNL     1     -10.397   8.241  70.591  1.00  0.00    -0.199 C  
HETATM   14  O   UNL     1     -11.214   5.749  70.209  1.00  0.00    -0.304 OA 
HETATM   15  S   UNL     1     -11.496   6.920  71.000  1.00  0.00    -0.333 S  
HETATM   16  O   UNL     1     -10.944   6.638  72.493  1.00  0.00    -0.229 OA 
HETATM   17  O   UNL     1     -12.836   7.423  71.198  1.00  0.00    -0.326 OA 
BRANCH  13  18
HETATM   18  C   UNL     1     -10.782   8.751  69.239  1.00  0.00    -0.151 C  
HETATM   19  O   UNL     1     -11.336   9.824  69.041  1.00  0.00    -0.109 OA 
BRANCH  18  20
HETATM   20  O   UNL     1     -10.600   7.789  68.291  1.00  0.00    -0.190 OA 
BRANCH  20  21
HETATM   21  C   UNL     1     -10.382   8.283  66.958  1.00  0.00    -0.323 C  
HETATM   22  C   UNL     1      -8.910   8.277  66.508  1.00  0.00    -0.175 C  
HETATM   23  C   UNL     1      -8.268   6.876  66.614  1.00  0.00    -0.115 C  
HETATM   24  C   UNL     1      -8.748   8.862  65.086  1.00  0.00    -0.213 C  
HETATM   25  C   UNL     1      -8.866   5.816  65.699  1.00  0.00    -0.141 C  
BRANCH  24  26
HETATM   26  C   UNL     1      -9.256  10.300  64.948  1.00  0.00    -0.273 C  
BRANCH  26  27
HETATM   27  C   UNL     1      -9.648  10.623  63.506  1.00  0.00    -0.366 C  
HETATM   28  C   UNL     1      -9.261   9.486  62.570  1.00  0.00    -0.152 C  
ENDBRANCH  26  27
ENDBRANCH  24  26
ENDBRANCH  20  21
ENDBRANCH  18  20
ENDBRANCH  13  18
ENDBRANCH  12  13
ENDBRANCH  10  12
ENDBRANCH   9  10
ENDBRANCH   7   9
ENDBRANCH   3   4
ENDBRANCH   2   3
TORSDOF 11
ENDMDL
MODEL      321
REMARK 921   NORMALIZED FREE ENERGY PREDICTED BY IDOCK:   -2.58 KCAL/MOL
REMARK 922        TOTAL FREE ENERGY PREDICTED BY IDOCK:   -6.48 KCAL/MOL
REMARK 923 INTER-LIGAND FREE ENERGY PREDICTED BY IDOCK:   -6.19 KCAL/MOL
REMARK 924 INTRA-LIGAND FREE ENERGY PREDICTED BY IDOCK:   -0.29 KCAL/MOL
REMARK 927      BINDING AFFINITY PREDICTED BY RF-SCORE:    0.00 PKD
ROOT
HETATM    1  C   UNL     1      -8.641   4.667  65.827  1.00  0.00    -0.122 C  
HETATM    2  C   UNL     1      -8.886   3.235  66.279  1.00  0.00    -0.140 C  
ENDROOT
BRANCH   2   3
HETATM    3  C   UNL     1      -8.754   3.108  67.797  1.00  0.00    -0.134 C  
BRANCH   3   4
HETATM    4  C   UNL     1      -8.534   4.467  68.474  1.00  0.00    -0.102 C  
HETATM    5  C   UNL     1      -9.652   4.842  69.472  1.00  0.00    -0.240 C  
HETATM    6  C   UNL     1      -9.902   3.788  70.575  1.00  0.00    -0.147 C  
HETATM    7  C   UNL     1      -9.387   6.241  70.069  1.00  0.00    -0.155 C  
HETATM    8  C   UNL     1      -8.761   3.618  71.567  1.00  0.00    -0.129 C  
BRANCH   7   9
HETATM    9  O   UNL     1     -10.429   6.548  71.014  1.00  0.00    -0.213 OA 
BRANCH   9  10
HETATM   10  C   UNL     1     -11.245   7.582  70.680  1.00  0.00    -0.268 C  
HETATM   11  O   UNL     1     -12.453   7.611  70.867  1.00  0.00    -0.221 OA 
BRANCH  10  12
HETATM   12  C   UNL     1     -10.450   8.778  70.228  1.00  0.00    -0.231 C  
BRANCH  12  13
HETATM   13  C   UNL     1     -11.003   9.450  68.974  1.00  0.00    -0.067 C  
HETATM   14  O   UNL     1      -8.598   9.415  67.859  1.00  0.00    -0.120 OA 
HETATM   15  S   UNL     1      -9.982   9.138  67.566  1.00  0.00    -0.221 S  
HETATM   16  O   UNL     1     -10.154   7.531  67.530  1.00  0.00    -0.168 OA 
HETATM   17  O   UNL     1     -10.632   9.599  66.360  1.00  0.00    -0.150 OA 
BRANCH  13  18
HETATM   18  C   UNL     1     -11.077  10.931  69.162  1.00  0.00    -0.245 C  
HETATM   19  O   UNL     1     -11.538  11.475  70.157  1.00  0.00    -0.301 OA 
BRANCH  18  20
HETATM   20  O   UNL     1     -10.738  11.582  68.013  1.00  0.00    -0.186 OA 
BRANCH  20  21
HETATM   21  C   UNL     1     -11.254  12.919  67.898  1.00  0.00    -0.269 C  
HETATM   22  C   UNL     1     -10.701  13.716  66.702  1.00  0.00    -0.280 C  
HETATM   23  C   UNL     1     -10.931  12.993  65.356  1.00  0.00    -0.297 C  
HETATM   24  C   UNL     1     -11.265  15.155  66.669  1.00  0.00    -0.274 C  
HETATM   25  C   UNL     1     -12.389  12.818  64.953  1.00  0.00    -0.551 C  
BRANCH  24  26
HETATM   26  C   UNL     1     -10.959  15.967  67.931  1.00  0.00    -0.327 C  
BRANCH  26  27
HETATM   27  C   UNL     1      -9.839  16.979  67.691  1.00  0.00    -0.257 C  
HETATM   28  C   UNL     1     -10.266  18.033  66.679  1.00  0.00    -0.375 C  
ENDBRANCH  26  27
ENDBRANCH  24  26
ENDBRANCH  20  21
ENDBRANCH  18  20
ENDBRANCH  13  18
ENDBRANCH  12  13
ENDBRANCH  10  12
ENDBRANCH   9  10
ENDBRANCH   7   9
ENDBRANCH   3   4
ENDBRANCH   2   3
TORSDOF 11
ENDMDL
MODEL      322
REMARK 921   NORMALIZED FREE ENERGY PREDICTED BY IDOCK:   -2.57 KCAL/MOL
REMARK 922        TOTAL FREE ENERGY PREDICTED BY IDOCK:   -6.47 KCAL/MOL
REMARK 923 INTER-LIGAND FREE ENERGY PREDICTED BY IDOCK:   -6.48 KCAL/MOL
REMARK 924 INTRA-LIGAND FREE ENERGY PREDICTED BY IDOCK:    0.01 KCAL/MOL
REMARK 927      BINDING AFFINITY PREDICTED BY RF-SCORE:    0.00 PKD
ROOT
HETATM    1  C   UNL     1     -12.612  12.022  63.456  1.00  0.00    -0.625 C  
HETATM    2  C   UNL     1     -11.348  12.791  63.813  1.00  0.00    -0.520 C  
ENDROOT
BRANCH   2   3
HETATM    3  C   UNL     1     -11.534  13.580  65.109  1.00  0.00    -0.317 C  
BRANCH   3   4
HETATM    4  C   UNL     1     -12.118  12.718  66.234  1.00  0.00    -0.400 C  
HETATM    5  C   UNL     1     -11.099  12.389  67.347  1.00  0.00    -0.320 C  
HETATM    6  C   UNL     1     -10.430  13.627  67.985  1.00  0.00    -0.251 C  
HETATM    7  C   UNL     1     -11.746  11.477  68.411  1.00  0.00    -0.303 C  
HETATM    8  C   UNL     1     -11.366  14.514  68.793  1.00  0.00    -0.298 C  
BRANCH   7   9
HETATM    9  O   UNL     1     -10.781  11.212  69.446  1.00  0.00    -0.224 OA 
BRANCH   9  10
HETATM   10  C   UNL     1      -9.859  10.254  69.165  1.00  0.00    -0.216 C  
HETATM   11  O   UNL     1      -8.664  10.339  69.403  1.00  0.00    -0.163 OA 
BRANCH  10  12
HETATM   12  C   UNL     1     -10.521   8.983  68.702  1.00  0.00    -0.229 C  
BRANCH  12  13
HETATM   13  C   UNL     1     -10.145   7.755  69.526  1.00  0.00    -0.194 C  
HETATM   14  O   UNL     1     -10.173   9.200  71.748  1.00  0.00    -0.338 OA 
HETATM   15  S   UNL     1     -10.620   7.937  71.217  1.00  0.00    -0.213 S  
HETATM   16  O   UNL     1     -12.215   8.052  70.979  1.00  0.00    -0.280 OA 
HETATM   17  O   UNL     1     -10.449   6.689  71.926  1.00  0.00    -0.200 OA 
BRANCH  13  18
HETATM   18  C   UNL     1      -8.666   7.534  69.491  1.00  0.00    -0.137 C  
HETATM   19  O   UNL     1      -7.953   7.490  70.484  1.00  0.00    -0.095 OA 
BRANCH  18  20
HETATM   20  O   UNL     1      -8.202   7.574  68.209  1.00  0.00    -0.123 OA 
BRANCH  20  21
HETATM   21  C   UNL     1      -8.305   6.334  67.488  1.00  0.00    -0.113 C  
HETATM   22  C   UNL     1      -8.838   6.474  66.050  1.00  0.00    -0.154 C  
HETATM   23  C   UNL     1      -7.998   7.456  65.204  1.00  0.00    -0.128 C  
HETATM   24  C   UNL     1      -8.962   5.098  65.354  1.00  0.00    -0.157 C  
HETATM   25  C   UNL     1      -6.559   7.029  64.950  1.00  0.00    -0.043 C  
BRANCH  24  26
HETATM   26  C   UNL     1      -9.884   4.118  66.084  1.00  0.00    -0.207 C  
BRANCH  26  27
HETATM   27  C   UNL     1      -9.135   2.858  66.519  1.00  0.00    -0.153 C  
HETATM   28  C   UNL     1      -7.704   2.870  65.998  1.00  0.00    -0.077 C  
ENDBRANCH  26  27
ENDBRANCH  24  26
ENDBRANCH  20  21
ENDBRANCH  18  20
ENDBRANCH  13  18
ENDBRANCH  12  13
ENDBRANCH  10  12
ENDBRANCH   9  10
ENDBRANCH   7   9
ENDBRANCH   3   4
ENDBRANCH   2   3
TORSDOF 11
ENDMDL
MODEL      323
REMARK 921   NORMALIZED FREE ENERGY PREDICTED BY IDOCK:   -2.56 KCAL/MOL
REMARK 922        TOTAL FREE ENERGY PREDICTED BY IDOCK:   -6.45 KCAL/MOL
REMARK 923 INTER-LIGAND FREE ENERGY PREDICTED BY IDOCK:   -5.89 KCAL/MOL
REMARK 924 INTRA-LIGAND FREE ENERGY PREDICTED BY IDOCK:   -0.56 KCAL/MOL
REMARK 927      BINDING AFFINITY PREDICTED BY RF-SCORE:    0.00 PKD
ROOT
HETATM    1  C   UNL     1      -5.873   9.200  64.017  1.00  0.00    -0.071 C  
HETATM    2  C   UNL     1      -5.165   9.435  65.344  1.00  0.00    -0.036 C  
ENDROOT
BRANCH   2   3
HETATM    3  C   UNL     1      -5.330  10.882  65.806  1.00  0.00    -0.141 C  
BRANCH   3   4
HETATM    4  C   UNL     1      -6.713  11.142  66.416  1.00  0.00    -0.102 C  
HETATM    5  C   UNL     1      -7.030  10.235  67.625  1.00  0.00    -0.084 C  
HETATM    6  C   UNL     1      -5.983  10.296  68.760  1.00  0.00    -0.040 C  
HETATM    7  C   UNL     1      -8.455  10.518  68.147  1.00  0.00    -0.123 C  
HETATM    8  C   UNL     1      -5.911  11.629  69.491  1.00  0.00    -0.080 C  
BRANCH   7   9
HETATM    9  O   UNL     1      -8.708   9.679  69.288  1.00  0.00    -0.138 OA 
BRANCH   9  10
HETATM   10  C   UNL     1      -9.397   8.534  69.040  1.00  0.00    -0.146 C  
HETATM   11  O   UNL     1     -10.435   8.465  68.399  1.00  0.00    -0.208 OA 
BRANCH  10  12
HETATM   12  C   UNL     1      -8.617   7.324  69.483  1.00  0.00    -0.134 C  
BRANCH  12  13
HETATM   13  C   UNL     1      -8.959   6.851  70.893  1.00  0.00    -0.149 C  
HETATM   14  O   UNL     1     -11.347   6.041  70.075  1.00  0.00    -0.384 OA 
HETATM   15  S   UNL     1     -10.225   5.620  70.876  1.00  0.00    -0.235 S  
HETATM   16  O   UNL     1      -9.422   4.500  70.030  1.00  0.00    -0.140 OA 
HETATM   17  O   UNL     1     -10.380   5.038  72.190  1.00  0.00    -0.204 OA 
BRANCH  13  18
HETATM   18  C   UNL     1      -9.448   7.994  71.725  1.00  0.00    -0.169 C  
HETATM   19  O   UNL     1      -8.720   8.728  72.380  1.00  0.00    -0.392 OA 
BRANCH  18  20
HETATM   20  O   UNL     1     -10.809   7.990  71.798  1.00  0.00    -0.225 OA 
BRANCH  20  21
HETATM   21  C   UNL     1     -11.417   9.290  71.892  1.00  0.00    -0.311 C  
HETATM   22  C   UNL     1     -12.648   9.487  70.988  1.00  0.00    -0.331 C  
HETATM   23  C   UNL     1     -13.740   8.425  71.244  1.00  0.00    -0.185 C  
HETATM   24  C   UNL     1     -13.219  10.919  71.110  1.00  0.00    -0.219 C  
HETATM   25  C   UNL     1     -14.374   8.464  72.629  1.00  0.00    -0.164 C  
BRANCH  24  26
HETATM   26  C   UNL     1     -12.214  12.016  70.747  1.00  0.00    -0.382 C  
BRANCH  26  27
HETATM   27  C   UNL     1     -12.755  13.407  71.079  1.00  0.00    -0.387 C  
HETATM   28  C   UNL     1     -13.586  13.376  72.355  1.00  0.00    -0.708 C  
ENDBRANCH  26  27
ENDBRANCH  24  26
ENDBRANCH  20  21
ENDBRANCH  18  20
ENDBRANCH  13  18
ENDBRANCH  12  13
ENDBRANCH  10  12
ENDBRANCH   9  10
ENDBRANCH   7   9
ENDBRANCH   3   4
ENDBRANCH   2   3
TORSDOF 11
ENDMDL
MODEL      324
REMARK 921   NORMALIZED FREE ENERGY PREDICTED BY IDOCK:   -2.55 KCAL/MOL
REMARK 922        TOTAL FREE ENERGY PREDICTED BY IDOCK:   -6.44 KCAL/MOL
REMARK 923 INTER-LIGAND FREE ENERGY PREDICTED BY IDOCK:   -4.39 KCAL/MOL
REMARK 924 INTRA-LIGAND FREE ENERGY PREDICTED BY IDOCK:   -2.04 KCAL/MOL
REMARK 927      BINDING AFFINITY PREDICTED BY RF-SCORE:    0.00 PKD
ROOT
HETATM    1  C   UNL     1     -11.814  12.263  68.572  1.00  0.00    -0.359 C  
HETATM    2  C   UNL     1     -10.914  12.476  67.363  1.00  0.00    -0.297 C  
ENDROOT
BRANCH   2   3
HETATM    3  C   UNL     1      -9.439  12.397  67.756  1.00  0.00    -0.199 C  
BRANCH   3   4
HETATM    4  C   UNL     1      -8.591  11.700  66.686  1.00  0.00    -0.179 C  
HETATM    5  C   UNL     1      -8.091  10.303  67.113  1.00  0.00    -0.121 C  
HETATM    6  C   UNL     1      -9.211   9.331  67.550  1.00  0.00    -0.140 C  
HETATM    7  C   UNL     1      -7.203   9.692  66.008  1.00  0.00    -0.098 C  
HETATM    8  C   UNL     1     -10.154   8.902  66.435  1.00  0.00    -0.333 C  
BRANCH   7   9
HETATM    9  O   UNL     1      -6.778   8.381  66.425  1.00  0.00    -0.064 OA 
BRANCH   9  10
HETATM   10  C   UNL     1      -6.700   7.444  65.444  1.00  0.00    -0.048 C  
HETATM   11  O   UNL     1      -5.812   7.378  64.606  1.00  0.00    -0.036 OA 
BRANCH  10  12
HETATM   12  C   UNL     1      -7.738   6.370  65.634  1.00  0.00    -0.094 C  
BRANCH  12  13
HETATM   13  C   UNL     1      -7.386   5.355  66.718  1.00  0.00    -0.086 C  
HETATM   14  O   UNL     1      -8.406   3.394  65.255  1.00  0.00    -0.096 OA 
HETATM   15  S   UNL     1      -7.256   3.722  66.060  1.00  0.00    -0.072 S  
HETATM   16  O   UNL     1      -6.023   3.995  65.050  1.00  0.00    -0.021 OA 
HETATM   17  O   UNL     1      -6.717   2.819  67.052  1.00  0.00    -0.039 OA 
BRANCH  13  18
HETATM   18  C   UNL     1      -8.439   5.336  67.779  1.00  0.00    -0.105 C  
HETATM   19  O   UNL     1      -9.632   5.508  67.567  1.00  0.00    -0.115 OA 
BRANCH  18  20
HETATM   20  O   UNL     1      -7.874   5.287  69.019  1.00  0.00    -0.080 OA 
BRANCH  20  21
HETATM   21  C   UNL     1      -7.890   6.530  69.743  1.00  0.00    -0.115 C  
HETATM   22  C   UNL     1      -8.891   6.575  70.912  1.00  0.00    -0.147 C  
HETATM   23  C   UNL     1      -8.664   5.430  71.925  1.00  0.00    -0.136 C  
HETATM   24  C   UNL     1      -8.883   7.953  71.613  1.00  0.00    -0.163 C  
HETATM   25  C   UNL     1      -7.334   5.471  72.665  1.00  0.00    -0.095 C  
BRANCH  24  26
HETATM   26  C   UNL     1      -9.224   9.121  70.682  1.00  0.00    -0.310 C  
BRANCH  26  27
HETATM   27  C   UNL     1     -10.677   9.567  70.848  1.00  0.00    -0.403 C  
HETATM   28  C   UNL     1     -11.358   8.793  71.970  1.00  0.00    -0.441 C  
ENDBRANCH  26  27
ENDBRANCH  24  26
ENDBRANCH  20  21
ENDBRANCH  18  20
ENDBRANCH  13  18
ENDBRANCH  12  13
ENDBRANCH  10  12
ENDBRANCH   9  10
ENDBRANCH   7   9
ENDBRANCH   3   4
ENDBRANCH   2   3
TORSDOF 11
ENDMDL
MODEL      325
REMARK 921   NORMALIZED FREE ENERGY PREDICTED BY IDOCK:   -2.54 KCAL/MOL
REMARK 922        TOTAL FREE ENERGY PREDICTED BY IDOCK:   -6.43 KCAL/MOL
REMARK 923 INTER-LIGAND FREE ENERGY PREDICTED BY IDOCK:   -5.32 KCAL/MOL
REMARK 924 INTRA-LIGAND FREE ENERGY PREDICTED BY IDOCK:   -1.11 KCAL/MOL
REMARK 927      BINDING AFFINITY PREDICTED BY RF-SCORE:    0.00 PKD
ROOT
HETATM    1  C   UNL     1     -12.565  15.344  71.214  1.00  0.00    -0.477 C  
HETATM    2  C   UNL     1     -12.385  14.295  72.302  1.00  0.00    -0.216 C  
ENDROOT
BRANCH   2   3
HETATM    3  C   UNL     1     -13.224  13.052  72.010  1.00  0.00    -0.543 C  
BRANCH   3   4
HETATM    4  C   UNL     1     -12.717  12.286  70.782  1.00  0.00    -0.212 C  
HETATM    5  C   UNL     1     -11.912  11.017  71.140  1.00  0.00    -0.242 C  
HETATM    6  C   UNL     1     -12.663  10.022  72.053  1.00  0.00    -0.439 C  
HETATM    7  C   UNL     1     -11.392  10.334  69.856  1.00  0.00    -0.290 C  
HETATM    8  C   UNL     1     -13.869   9.350  71.410  1.00  0.00    -0.253 C  
BRANCH   7   9
HETATM    9  O   UNL     1     -10.672   9.143  70.222  1.00  0.00    -0.211 OA 
BRANCH   9  10
HETATM   10  C   UNL     1     -10.231   8.377  69.190  1.00  0.00    -0.211 C  
HETATM   11  O   UNL     1     -10.330   8.670  68.007  1.00  0.00    -0.214 OA 
BRANCH  10  12
HETATM   12  C   UNL     1      -9.421   7.209  69.687  1.00  0.00    -0.152 C  
BRANCH  12  13
HETATM   13  C   UNL     1      -7.915   7.379  69.505  1.00  0.00    -0.127 C  
HETATM   14  O   UNL     1      -7.473   6.245  71.861  1.00  0.00    -0.091 OA 
HETATM   15  S   UNL     1      -7.009   6.232  70.496  1.00  0.00    -0.065 S  
HETATM   16  O   UNL     1      -7.561   4.875  69.812  1.00  0.00    -0.055 OA 
HETATM   17  O   UNL     1      -5.606   6.266  70.150  1.00  0.00    -0.013 OA 
BRANCH  13  18
HETATM   18  C   UNL     1      -7.492   8.757  69.903  1.00  0.00    -0.053 C  
HETATM   19  O   UNL     1      -7.682   9.242  71.010  1.00  0.00    -0.223 OA 
BRANCH  18  20
HETATM   20  O   UNL     1      -7.041   9.454  68.822  1.00  0.00    -0.067 OA 
BRANCH  20  21
HETATM   21  C   UNL     1      -7.434  10.837  68.783  1.00  0.00    -0.109 C  
HETATM   22  C   UNL     1      -6.904  11.618  67.567  1.00  0.00    -0.104 C  
HETATM   23  C   UNL     1      -7.308  10.965  66.226  1.00  0.00    -0.127 C  
HETATM   24  C   UNL     1      -7.329  13.104  67.617  1.00  0.00    -0.155 C  
HETATM   25  C   UNL     1      -8.804  10.940  65.940  1.00  0.00    -0.197 C  
BRANCH  24  26
HETATM   26  C   UNL     1      -6.849  13.841  68.871  1.00  0.00    -0.110 C  
BRANCH  26  27
HETATM   27  C   UNL     1      -7.278  15.309  68.859  1.00  0.00    -0.137 C  
HETATM   28  C   UNL     1      -8.783  15.437  69.058  1.00  0.00    -0.231 C  
ENDBRANCH  26  27
ENDBRANCH  24  26
ENDBRANCH  20  21
ENDBRANCH  18  20
ENDBRANCH  13  18
ENDBRANCH  12  13
ENDBRANCH  10  12
ENDBRANCH   9  10
ENDBRANCH   7   9
ENDBRANCH   3   4
ENDBRANCH   2   3
TORSDOF 11
ENDMDL
MODEL      326
REMARK 921   NORMALIZED FREE ENERGY PREDICTED BY IDOCK:   -2.54 KCAL/MOL
REMARK 922        TOTAL FREE ENERGY PREDICTED BY IDOCK:   -6.42 KCAL/MOL
REMARK 923 INTER-LIGAND FREE ENERGY PREDICTED BY IDOCK:   -7.10 KCAL/MOL
REMARK 924 INTRA-LIGAND FREE ENERGY PREDICTED BY IDOCK:    0.68 KCAL/MOL
REMARK 927      BINDING AFFINITY PREDICTED BY RF-SCORE:    0.00 PKD
ROOT
HETATM    1  C   UNL     1     -11.336   5.992  72.196  1.00  0.00    -0.351 C  
HETATM    2  C   UNL     1      -9.894   5.546  72.391  1.00  0.00    -0.189 C  
ENDROOT
BRANCH   2   3
HETATM    3  C   UNL     1      -9.497   4.504  71.347  1.00  0.00    -0.219 C  
BRANCH   3   4
HETATM    4  C   UNL     1      -9.749   4.992  69.915  1.00  0.00    -0.266 C  
HETATM    5  C   UNL     1      -9.001   6.299  69.571  1.00  0.00    -0.134 C  
HETATM    6  C   UNL     1      -7.473   6.237  69.798  1.00  0.00    -0.081 C  
HETATM    7  C   UNL     1      -9.348   6.752  68.137  1.00  0.00    -0.122 C  
HETATM    8  C   UNL     1      -6.727   5.297  68.862  1.00  0.00    -0.053 C  
BRANCH   7   9
HETATM    9  O   UNL     1      -8.615   7.954  67.839  1.00  0.00    -0.125 OA 
BRANCH   9  10
HETATM   10  C   UNL     1      -9.347   9.098  67.789  1.00  0.00    -0.136 C  
HETATM   11  O   UNL     1     -10.338   9.266  67.093  1.00  0.00    -0.236 OA 
BRANCH  10  12
HETATM   12  C   UNL     1      -8.907  10.072  68.849  1.00  0.00    -0.148 C  
BRANCH  12  13
HETATM   13  C   UNL     1     -10.060  10.771  69.563  1.00  0.00    -0.084 C  
HETATM   14  O   UNL     1     -11.394   8.485  69.710  1.00  0.00    -0.059 OA 
HETATM   15  S   UNL     1     -11.028   9.632  70.504  1.00  0.00    -0.338 S  
HETATM   16  O   UNL     1      -9.868   9.159  71.526  1.00  0.00    -0.304 OA 
HETATM   17  O   UNL     1     -11.976  10.340  71.334  1.00  0.00    -0.368 OA 
BRANCH  13  18
HETATM   18  C   UNL     1     -10.968  11.429  68.573  1.00  0.00    -0.221 C  
HETATM   19  O   UNL     1     -12.025  10.951  68.186  1.00  0.00    -0.581 OA 
BRANCH  18  20
HETATM   20  O   UNL     1     -10.372  12.528  68.029  1.00  0.00    -0.210 OA 
BRANCH  20  21
HETATM   21  C   UNL     1     -10.418  12.596  66.593  1.00  0.00    -0.245 C  
HETATM   22  C   UNL     1     -11.586  13.426  66.030  1.00  0.00    -0.375 C  
HETATM   23  C   UNL     1     -11.603  14.869  66.582  1.00  0.00    -0.265 C  
HETATM   24  C   UNL     1     -11.596  13.416  64.484  1.00  0.00    -0.405 C  
HETATM   25  C   UNL     1     -10.408  15.728  66.191  1.00  0.00    -0.333 C  
BRANCH  24  26
HETATM   26  C   UNL     1     -11.704  12.014  63.876  1.00  0.00    -0.537 C  
BRANCH  26  27
HETATM   27  C   UNL     1     -10.446  11.644  63.089  1.00  0.00    -0.368 C  
HETATM   28  C   UNL     1      -9.742  10.450  63.721  1.00  0.00    -0.351 C  
ENDBRANCH  26  27
ENDBRANCH  24  26
ENDBRANCH  20  21
ENDBRANCH  18  20
ENDBRANCH  13  18
ENDBRANCH  12  13
ENDBRANCH  10  12
ENDBRANCH   9  10
ENDBRANCH   7   9
ENDBRANCH   3   4
ENDBRANCH   2   3
TORSDOF 11
ENDMDL
MODEL      327
REMARK 921   NORMALIZED FREE ENERGY PREDICTED BY IDOCK:   -2.53 KCAL/MOL
REMARK 922        TOTAL FREE ENERGY PREDICTED BY IDOCK:   -6.41 KCAL/MOL
REMARK 923 INTER-LIGAND FREE ENERGY PREDICTED BY IDOCK:   -5.15 KCAL/MOL
REMARK 924 INTRA-LIGAND FREE ENERGY PREDICTED BY IDOCK:   -1.26 KCAL/MOL
REMARK 927      BINDING AFFINITY PREDICTED BY RF-SCORE:    0.00 PKD
ROOT
HETATM    1  C   UNL     1     -11.048  15.800  69.709  1.00  0.00    -0.322 C  
HETATM    2  C   UNL     1     -12.401  15.395  69.140  1.00  0.00    -0.087 C  
ENDROOT
BRANCH   2   3
HETATM    3  C   UNL     1     -12.270  14.176  68.228  1.00  0.00    -0.196 C  
BRANCH   3   4
HETATM    4  C   UNL     1     -10.893  13.511  68.344  1.00  0.00    -0.286 C  
HETATM    5  C   UNL     1     -10.389  12.907  67.015  1.00  0.00    -0.245 C  
HETATM    6  C   UNL     1     -10.345  13.907  65.837  1.00  0.00    -0.318 C  
HETATM    7  C   UNL     1      -9.027  12.212  67.226  1.00  0.00    -0.184 C  
HETATM    8  C   UNL     1      -9.318  15.020  65.982  1.00  0.00    -0.304 C  
BRANCH   7   9
HETATM    9  O   UNL     1      -8.573  11.686  65.965  1.00  0.00    -0.120 OA 
BRANCH   9  10
HETATM   10  C   UNL     1      -9.014  10.439  65.651  1.00  0.00    -0.176 C  
HETATM   11  O   UNL     1     -10.135  10.175  65.240  1.00  0.00    -0.319 OA 
BRANCH  10  12
HETATM   12  C   UNL     1      -7.887   9.441  65.679  1.00  0.00    -0.099 C  
BRANCH  12  13
HETATM   13  C   UNL     1      -7.618   8.853  67.062  1.00  0.00    -0.094 C  
HETATM   14  O   UNL     1      -5.133   8.258  66.357  1.00  0.00    -0.026 OA 
HETATM   15  S   UNL     1      -5.892   8.839  67.436  1.00  0.00    -0.043 S  
HETATM   16  O   UNL     1      -5.650  10.436  67.390  1.00  0.00    -0.041 OA 
HETATM   17  O   UNL     1      -5.679   8.480  68.820  1.00  0.00    -0.039 OA 
BRANCH  13  18
HETATM   18  C   UNL     1      -8.112   7.443  67.136  1.00  0.00    -0.114 C  
HETATM   19  O   UNL     1      -8.719   6.879  66.236  1.00  0.00    -0.133 OA 
BRANCH  18  20
HETATM   20  O   UNL     1      -7.957   6.943  68.395  1.00  0.00    -0.118 OA 
BRANCH  20  21
HETATM   21  C   UNL     1      -9.055   7.197  69.288  1.00  0.00    -0.137 C  
HETATM   22  C   UNL     1      -9.168   6.204  70.459  1.00  0.00    -0.166 C  
HETATM   23  C   UNL     1      -7.872   6.132  71.297  1.00  0.00    -0.111 C  
HETATM   24  C   UNL     1     -10.395   6.513  71.349  1.00  0.00    -0.234 C  
HETATM   25  C   UNL     1      -7.498   7.416  72.026  1.00  0.00    -0.080 C  
BRANCH  24  26
HETATM   26  C   UNL     1     -11.728   6.476  70.596  1.00  0.00    -0.436 C  
BRANCH  26  27
HETATM   27  C   UNL     1     -12.702   7.530  71.125  1.00  0.00    -0.279 C  
HETATM   28  C   UNL     1     -12.076   8.326  72.262  1.00  0.00    -0.439 C  
ENDBRANCH  26  27
ENDBRANCH  24  26
ENDBRANCH  20  21
ENDBRANCH  18  20
ENDBRANCH  13  18
ENDBRANCH  12  13
ENDBRANCH  10  12
ENDBRANCH   9  10
ENDBRANCH   7   9
ENDBRANCH   3   4
ENDBRANCH   2   3
TORSDOF 11
ENDMDL
MODEL      328
REMARK 921   NORMALIZED FREE ENERGY PREDICTED BY IDOCK:   -2.52 KCAL/MOL
REMARK 922        TOTAL FREE ENERGY PREDICTED BY IDOCK:   -6.39 KCAL/MOL
REMARK 923 INTER-LIGAND FREE ENERGY PREDICTED BY IDOCK:   -5.57 KCAL/MOL
REMARK 924 INTRA-LIGAND FREE ENERGY PREDICTED BY IDOCK:   -0.81 KCAL/MOL
REMARK 927      BINDING AFFINITY PREDICTED BY RF-SCORE:    0.00 PKD
ROOT
HETATM    1  C   UNL     1     -11.618  14.836  66.783  1.00  0.00    -0.333 C  
HETATM    2  C   UNL     1     -11.055  13.979  67.908  1.00  0.00    -0.274 C  
ENDROOT
BRANCH   2   3
HETATM    3  C   UNL     1     -12.070  12.928  68.356  1.00  0.00    -0.169 C  
BRANCH   3   4
HETATM    4  C   UNL     1     -11.469  11.518  68.388  1.00  0.00    -0.364 C  
HETATM    5  C   UNL     1     -10.996  11.083  69.793  1.00  0.00    -0.258 C  
HETATM    6  C   UNL     1     -12.086  11.168  70.886  1.00  0.00    -0.427 C  
HETATM    7  C   UNL     1     -10.357   9.679  69.731  1.00  0.00    -0.241 C  
HETATM    8  C   UNL     1     -13.235  10.183  70.720  1.00  0.00    -0.290 C  
BRANCH   7   9
HETATM    9  O   UNL     1      -9.954   9.293  71.058  1.00  0.00    -0.270 OA 
BRANCH   9  10
HETATM   10  C   UNL     1      -8.917   8.418  71.131  1.00  0.00    -0.167 C  
HETATM   11  O   UNL     1      -7.811   8.599  70.643  1.00  0.00    -0.079 OA 
BRANCH  10  12
HETATM   12  C   UNL     1      -9.234   7.276  72.060  1.00  0.00    -0.149 C  
BRANCH  12  13
HETATM   13  C   UNL     1      -9.552   5.967  71.344  1.00  0.00    -0.164 C  
HETATM   14  O   UNL     1      -6.995   5.651  70.723  1.00  0.00    -0.054 OA 
HETATM   15  S   UNL     1      -8.130   4.925  71.234  1.00  0.00    -0.108 S  
HETATM   16  O   UNL     1      -7.894   4.717  72.820  1.00  0.00    -0.086 OA 
HETATM   17  O   UNL     1      -8.501   3.615  70.749  1.00  0.00    -0.068 OA 
BRANCH  13  18
HETATM   18  C   UNL     1     -10.030   6.233  69.952  1.00  0.00    -0.169 C  
HETATM   19  O   UNL     1     -11.196   6.458  69.657  1.00  0.00    -0.358 OA 
BRANCH  18  20
HETATM   20  O   UNL     1      -9.033   6.010  69.049  1.00  0.00    -0.123 OA 
BRANCH  20  21
HETATM   21  C   UNL     1      -9.206   6.664  67.780  1.00  0.00    -0.111 C  
HETATM   22  C   UNL     1      -8.188   7.782  67.494  1.00  0.00    -0.124 C  
HETATM   23  C   UNL     1      -6.728   7.286  67.585  1.00  0.00    -0.065 C  
HETATM   24  C   UNL     1      -8.463   8.467  66.134  1.00  0.00    -0.139 C  
HETATM   25  C   UNL     1      -6.329   6.244  66.549  1.00  0.00    -0.042 C  
BRANCH  24  26
HETATM   26  C   UNL     1      -9.859   9.089  66.028  1.00  0.00    -0.312 C  
BRANCH  26  27
HETATM   27  C   UNL     1      -9.855  10.331  65.137  1.00  0.00    -0.389 C  
HETATM   28  C   UNL     1      -9.320  11.540  65.893  1.00  0.00    -0.242 C  
ENDBRANCH  26  27
ENDBRANCH  24  26
ENDBRANCH  20  21
ENDBRANCH  18  20
ENDBRANCH  13  18
ENDBRANCH  12  13
ENDBRANCH  10  12
ENDBRANCH   9  10
ENDBRANCH   7   9
ENDBRANCH   3   4
ENDBRANCH   2   3
TORSDOF 11
ENDMDL
MODEL      329
REMARK 921   NORMALIZED FREE ENERGY PREDICTED BY IDOCK:   -2.52 KCAL/MOL
REMARK 922        TOTAL FREE ENERGY PREDICTED BY IDOCK:   -6.38 KCAL/MOL
REMARK 923 INTER-LIGAND FREE ENERGY PREDICTED BY IDOCK:   -4.73 KCAL/MOL
REMARK 924 INTRA-LIGAND FREE ENERGY PREDICTED BY IDOCK:   -1.66 KCAL/MOL
REMARK 927      BINDING AFFINITY PREDICTED BY RF-SCORE:    0.00 PKD
ROOT
HETATM    1  C   UNL     1     -12.094  11.712  69.142  1.00  0.00    -0.315 C  
HETATM    2  C   UNL     1     -11.379  12.072  67.847  1.00  0.00    -0.369 C  
ENDROOT
BRANCH   2   3
HETATM    3  C   UNL     1     -10.011  11.395  67.770  1.00  0.00    -0.192 C  
BRANCH   3   4
HETATM    4  C   UNL     1      -9.857  10.540  66.506  1.00  0.00    -0.255 C  
HETATM    5  C   UNL     1      -9.034   9.253  66.733  1.00  0.00    -0.154 C  
HETATM    6  C   UNL     1      -9.566   8.347  67.867  1.00  0.00    -0.180 C  
HETATM    7  C   UNL     1      -8.880   8.478  65.407  1.00  0.00    -0.130 C  
HETATM    8  C   UNL     1     -10.917   7.704  67.590  1.00  0.00    -0.059 C  
BRANCH   7   9
HETATM    9  O   UNL     1      -8.133   7.272  65.657  1.00  0.00    -0.118 OA 
BRANCH   9  10
HETATM   10  C   UNL     1      -7.720   6.593  64.555  1.00  0.00    -0.112 C  
HETATM   11  O   UNL     1      -6.725   6.862  63.898  1.00  0.00    -0.047 OA 
BRANCH  10  12
HETATM   12  C   UNL     1      -8.528   5.338  64.356  1.00  0.00    -0.126 C  
BRANCH  12  13
HETATM   13  C   UNL     1      -8.502   4.390  65.551  1.00  0.00    -0.116 C  
HETATM   14  O   UNL     1      -8.916   2.316  63.952  1.00  0.00    -0.090 OA 
HETATM   15  S   UNL     1      -8.100   2.741  65.062  1.00  0.00    -0.083 S  
HETATM   16  O   UNL     1      -6.621   3.043  64.486  1.00  0.00    -0.033 OA 
HETATM   17  O   UNL     1      -7.873   1.912  66.224  1.00  0.00    -0.072 OA 
BRANCH  13  18
HETATM   18  C   UNL     1      -9.840   4.353  66.220  1.00  0.00    -0.231 C  
HETATM   19  O   UNL     1     -10.849   4.875  65.766  1.00  0.00    -0.262 OA 
BRANCH  18  20
HETATM   20  O   UNL     1      -9.738   3.827  67.473  1.00  0.00    -0.186 OA 
BRANCH  20  21
HETATM   21  C   UNL     1      -9.296   4.749  68.484  1.00  0.00    -0.133 C  
HETATM   22  C   UNL     1      -9.497   4.257  69.930  1.00  0.00    -0.260 C  
HETATM   23  C   UNL     1      -8.813   2.895  70.187  1.00  0.00    -0.148 C  
HETATM   24  C   UNL     1      -9.041   5.317  70.959  1.00  0.00    -0.171 C  
HETATM   25  C   UNL     1      -7.295   2.899  70.079  1.00  0.00    -0.044 C  
BRANCH  24  26
HETATM   26  C   UNL     1      -9.774   6.656  70.833  1.00  0.00    -0.190 C  
BRANCH  26  27
HETATM   27  C   UNL     1     -10.837   6.820  71.920  1.00  0.00    -0.261 C  
HETATM   28  C   UNL     1     -12.166   7.256  71.319  1.00  0.00    -0.389 C  
ENDBRANCH  26  27
ENDBRANCH  24  26
ENDBRANCH  20  21
ENDBRANCH  18  20
ENDBRANCH  13  18
ENDBRANCH  12  13
ENDBRANCH  10  12
ENDBRANCH   9  10
ENDBRANCH   7   9
ENDBRANCH   3   4
ENDBRANCH   2   3
TORSDOF 11
ENDMDL
MODEL      330
REMARK 921   NORMALIZED FREE ENERGY PREDICTED BY IDOCK:   -2.51 KCAL/MOL
REMARK 922        TOTAL FREE ENERGY PREDICTED BY IDOCK:   -6.38 KCAL/MOL
REMARK 923 INTER-LIGAND FREE ENERGY PREDICTED BY IDOCK:   -4.70 KCAL/MOL
REMARK 924 INTRA-LIGAND FREE ENERGY PREDICTED BY IDOCK:   -1.68 KCAL/MOL
REMARK 927      BINDING AFFINITY PREDICTED BY RF-SCORE:    0.00 PKD
ROOT
HETATM    1  C   UNL     1      -6.112   8.800  73.140  1.00  0.00    -0.067 C  
HETATM    2  C   UNL     1      -5.339   7.586  72.645  1.00  0.00    -0.037 C  
ENDROOT
BRANCH   2   3
HETATM    3  C   UNL     1      -6.249   6.637  71.865  1.00  0.00    -0.042 C  
BRANCH   3   4
HETATM    4  C   UNL     1      -6.319   6.994  70.376  1.00  0.00    -0.042 C  
HETATM    5  C   UNL     1      -7.728   6.818  69.768  1.00  0.00    -0.113 C  
HETATM    6  C   UNL     1      -8.842   7.597  70.505  1.00  0.00    -0.149 C  
HETATM    7  C   UNL     1      -7.704   7.145  68.259  1.00  0.00    -0.120 C  
HETATM    8  C   UNL     1      -8.739   9.112  70.399  1.00  0.00    -0.245 C  
BRANCH   7   9
HETATM    9  O   UNL     1      -9.035   6.999  67.731  1.00  0.00    -0.123 OA 
BRANCH   9  10
HETATM   10  C   UNL     1      -9.446   7.979  66.884  1.00  0.00    -0.191 C  
HETATM   11  O   UNL     1     -10.612   8.230  66.615  1.00  0.00    -0.268 OA 
BRANCH  10  12
HETATM   12  C   UNL     1      -8.295   8.855  66.466  1.00  0.00    -0.115 C  
BRANCH  12  13
HETATM   13  C   UNL     1      -8.722  10.195  65.873  1.00  0.00    -0.146 C  
HETATM   14  O   UNL     1      -6.718  10.098  64.139  1.00  0.00    -0.128 OA 
HETATM   15  S   UNL     1      -8.127  10.391  64.221  1.00  0.00    -0.047 S  
HETATM   16  O   UNL     1      -8.918   9.146  63.559  1.00  0.00    -0.139 OA 
HETATM   17  O   UNL     1      -8.717  11.561  63.609  1.00  0.00     0.219 OA 
BRANCH  13  18
HETATM   18  C   UNL     1      -8.180  11.325  66.689  1.00  0.00    -0.164 C  
HETATM   19  O   UNL     1      -6.990  11.583  66.801  1.00  0.00    -0.137 OA 
BRANCH  18  20
HETATM   20  O   UNL     1      -9.170  11.904  67.427  1.00  0.00    -0.171 OA 
BRANCH  20  21
HETATM   21  C   UNL     1      -9.174  13.342  67.415  1.00  0.00    -0.216 C  
HETATM   22  C   UNL     1      -9.691  13.968  66.107  1.00  0.00    -0.300 C  
HETATM   23  C   UNL     1     -11.110  13.479  65.741  1.00  0.00    -0.295 C  
HETATM   24  C   UNL     1      -9.625  15.512  66.152  1.00  0.00    -0.362 C  
HETATM   25  C   UNL     1     -12.207  13.876  66.720  1.00  0.00    -0.438 C  
BRANCH  24  26
HETATM   26  C   UNL     1      -8.215  16.063  66.389  1.00  0.00    -0.309 C  
BRANCH  26  27
HETATM   27  C   UNL     1      -8.245  17.550  66.746  1.00  0.00    -0.273 C  
HETATM   28  C   UNL     1      -8.161  17.748  68.254  1.00  0.00    -0.283 C  
ENDBRANCH  26  27
ENDBRANCH  24  26
ENDBRANCH  20  21
ENDBRANCH  18  20
ENDBRANCH  13  18
ENDBRANCH  12  13
ENDBRANCH  10  12
ENDBRANCH   9  10
ENDBRANCH   7   9
ENDBRANCH   3   4
ENDBRANCH   2   3
TORSDOF 11
ENDMDL
MODEL      331
REMARK 921   NORMALIZED FREE ENERGY PREDICTED BY IDOCK:   -2.50 KCAL/MOL
REMARK 922        TOTAL FREE ENERGY PREDICTED BY IDOCK:   -6.36 KCAL/MOL
REMARK 923 INTER-LIGAND FREE ENERGY PREDICTED BY IDOCK:   -5.34 KCAL/MOL
REMARK 924 INTRA-LIGAND FREE ENERGY PREDICTED BY IDOCK:   -1.01 KCAL/MOL
REMARK 927      BINDING AFFINITY PREDICTED BY RF-SCORE:    0.00 PKD
ROOT
HETATM    1  C   UNL     1      -5.311  11.115  66.129  1.00  0.00    -0.141 C  
HETATM    2  C   UNL     1      -5.165  10.105  67.259  1.00  0.00    -0.041 C  
ENDROOT
BRANCH   2   3
HETATM    3  C   UNL     1      -5.227   8.674  66.727  1.00  0.00    -0.031 C  
BRANCH   3   4
HETATM    4  C   UNL     1      -5.885   7.713  67.725  1.00  0.00    -0.036 C  
HETATM    5  C   UNL     1      -7.376   8.020  67.981  1.00  0.00    -0.096 C  
HETATM    6  C   UNL     1      -8.247   8.061  66.705  1.00  0.00    -0.108 C  
HETATM    7  C   UNL     1      -7.950   7.047  69.033  1.00  0.00    -0.116 C  
HETATM    8  C   UNL     1      -8.411   6.722  66.000  1.00  0.00    -0.134 C  
BRANCH   7   9
HETATM    9  O   UNL     1      -9.345   7.341  69.228  1.00  0.00    -0.154 OA 
BRANCH   9  10
HETATM   10  C   UNL     1      -9.627   8.277  70.172  1.00  0.00    -0.167 C  
HETATM   11  O   UNL     1      -8.795   8.853  70.858  1.00  0.00    -0.180 OA 
BRANCH  10  12
HETATM   12  C   UNL     1     -11.080   8.668  70.134  1.00  0.00    -0.199 C  
BRANCH  12  13
HETATM   13  C   UNL     1     -11.325  10.159  70.344  1.00  0.00    -0.326 C  
HETATM   14  O   UNL     1     -13.900   9.705  70.781  1.00  0.00    -0.105 OA 
HETATM   15  S   UNL     1     -12.781  10.450  71.302  1.00  0.00    -0.469 S  
HETATM   16  O   UNL     1     -12.297   9.709  72.655  1.00  0.00     0.040 OA 
HETATM   17  O   UNL     1     -12.874  11.845  71.667  1.00  0.00    -0.374 OA 
BRANCH  13  18
HETATM   18  C   UNL     1     -11.500  10.852  69.030  1.00  0.00    -0.302 C  
HETATM   19  O   UNL     1     -11.217  10.355  67.949  1.00  0.00    -0.305 OA 
BRANCH  18  20
HETATM   20  O   UNL     1     -11.836  12.160  69.215  1.00  0.00    -0.304 OA 
BRANCH  20  21
HETATM   21  C   UNL     1     -10.781  13.101  68.949  1.00  0.00    -0.169 C  
HETATM   22  C   UNL     1     -11.232  14.372  68.204  1.00  0.00    -0.300 C  
HETATM   23  C   UNL     1     -12.367  15.115  68.943  1.00  0.00    -0.021 C  
HETATM   24  C   UNL     1     -10.040  15.313  67.915  1.00  0.00    -0.233 C  
HETATM   25  C   UNL     1     -11.993  15.682  70.306  1.00  0.00    -0.398 C  
BRANCH  24  26
HETATM   26  C   UNL     1      -8.933  14.668  67.077  1.00  0.00    -0.258 C  
BRANCH  26  27
HETATM   27  C   UNL     1      -7.596  15.386  67.262  1.00  0.00    -0.246 C  
HETATM   28  C   UNL     1      -7.782  16.693  68.020  1.00  0.00    -0.168 C  
ENDBRANCH  26  27
ENDBRANCH  24  26
ENDBRANCH  20  21
ENDBRANCH  18  20
ENDBRANCH  13  18
ENDBRANCH  12  13
ENDBRANCH  10  12
ENDBRANCH   9  10
ENDBRANCH   7   9
ENDBRANCH   3   4
ENDBRANCH   2   3
TORSDOF 11
ENDMDL
MODEL      332
REMARK 921   NORMALIZED FREE ENERGY PREDICTED BY IDOCK:   -2.47 KCAL/MOL
REMARK 922        TOTAL FREE ENERGY PREDICTED BY IDOCK:   -6.30 KCAL/MOL
REMARK 923 INTER-LIGAND FREE ENERGY PREDICTED BY IDOCK:   -5.55 KCAL/MOL
REMARK 924 INTRA-LIGAND FREE ENERGY PREDICTED BY IDOCK:   -0.74 KCAL/MOL
REMARK 927      BINDING AFFINITY PREDICTED BY RF-SCORE:    0.00 PKD
ROOT
HETATM    1  C   UNL     1      -7.779   4.668  65.172  1.00  0.00    -0.085 C  
HETATM    2  C   UNL     1      -8.265   5.447  63.957  1.00  0.00    -0.125 C  
ENDROOT
BRANCH   2   3
HETATM    3  C   UNL     1      -7.966   6.938  64.107  1.00  0.00    -0.078 C  
BRANCH   3   4
HETATM    4  C   UNL     1      -8.416   7.486  65.467  1.00  0.00    -0.129 C  
HETATM    5  C   UNL     1      -7.554   8.665  65.970  1.00  0.00    -0.093 C  
HETATM    6  C   UNL     1      -7.455   9.849  64.981  1.00  0.00    -0.134 C  
HETATM    7  C   UNL     1      -8.035   9.122  67.363  1.00  0.00    -0.103 C  
HETATM    8  C   UNL     1      -8.758  10.603  64.755  1.00  0.00    -0.170 C  
BRANCH   7   9
HETATM    9  O   UNL     1      -7.231  10.238  67.790  1.00  0.00    -0.085 OA 
BRANCH   9  10
HETATM   10  C   UNL     1      -7.874  11.186  68.520  1.00  0.00    -0.136 C  
HETATM   11  O   UNL     1      -7.372  11.832  69.428  1.00  0.00    -0.011 OA 
BRANCH  10  12
HETATM   12  C   UNL     1      -9.232  11.489  67.942  1.00  0.00    -0.168 C  
BRANCH  12  13
HETATM   13  C   UNL     1      -9.788  12.850  68.354  1.00  0.00    -0.197 C  
HETATM   14  O   UNL     1     -12.130  12.254  67.263  1.00  0.00    -0.548 OA 
HETATM   15  S   UNL     1     -11.551  12.826  68.453  1.00  0.00    -0.345 S  
HETATM   16  O   UNL     1     -11.685  11.726  69.630  1.00  0.00    -0.297 OA 
HETATM   17  O   UNL     1     -12.039  14.051  69.045  1.00  0.00    -0.346 OA 
BRANCH  13  18
HETATM   18  C   UNL     1      -9.402  13.896  67.358  1.00  0.00    -0.228 C  
HETATM   19  O   UNL     1      -8.539  13.747  66.503  1.00  0.00    -0.016 OA 
BRANCH  18  20
HETATM   20  O   UNL     1     -10.003  15.085  67.649  1.00  0.00    -0.224 OA 
BRANCH  20  21
HETATM   21  C   UNL     1      -9.117  16.115  68.119  1.00  0.00    -0.189 C  
HETATM   22  C   UNL     1      -8.746  17.170  67.061  1.00  0.00    -0.244 C  
HETATM   23  C   UNL     1      -9.989  17.849  66.446  1.00  0.00    -0.358 C  
HETATM   24  C   UNL     1      -7.757  18.217  67.626  1.00  0.00    -0.223 C  
HETATM   25  C   UNL     1     -10.825  18.675  67.415  1.00  0.00    -0.381 C  
BRANCH  24  26
HETATM   26  C   UNL     1      -6.447  17.613  68.140  1.00  0.00    -0.177 C  
BRANCH  26  27
HETATM   27  C   UNL     1      -5.814  18.485  69.225  1.00  0.00    -0.236 C  
HETATM   28  C   UNL     1      -5.125  17.627  70.278  1.00  0.00    -0.228 C  
ENDBRANCH  26  27
ENDBRANCH  24  26
ENDBRANCH  20  21
ENDBRANCH  18  20
ENDBRANCH  13  18
ENDBRANCH  12  13
ENDBRANCH  10  12
ENDBRANCH   9  10
ENDBRANCH   7   9
ENDBRANCH   3   4
ENDBRANCH   2   3
TORSDOF 11
ENDMDL
MODEL      333
REMARK 921   NORMALIZED FREE ENERGY PREDICTED BY IDOCK:   -2.46 KCAL/MOL
REMARK 922        TOTAL FREE ENERGY PREDICTED BY IDOCK:   -6.29 KCAL/MOL
REMARK 923 INTER-LIGAND FREE ENERGY PREDICTED BY IDOCK:   -4.73 KCAL/MOL
REMARK 924 INTRA-LIGAND FREE ENERGY PREDICTED BY IDOCK:   -1.55 KCAL/MOL
REMARK 927      BINDING AFFINITY PREDICTED BY RF-SCORE:    0.00 PKD
ROOT
HETATM    1  C   UNL     1     -10.570  16.700  68.834  1.00  0.00    -0.337 C  
HETATM    2  C   UNL     1     -11.551  15.663  68.306  1.00  0.00    -0.326 C  
ENDROOT
BRANCH   2   3
HETATM    3  C   UNL     1     -11.249  14.279  68.882  1.00  0.00    -0.289 C  
BRANCH   3   4
HETATM    4  C   UNL     1     -11.009  13.236  67.784  1.00  0.00    -0.278 C  
HETATM    5  C   UNL     1     -10.264  11.979  68.285  1.00  0.00    -0.207 C  
HETATM    6  C   UNL     1     -10.939  11.273  69.484  1.00  0.00    -0.249 C  
HETATM    7  C   UNL     1     -10.013  11.004  67.115  1.00  0.00    -0.187 C  
HETATM    8  C   UNL     1     -12.282  10.629  69.171  1.00  0.00    -0.041 C  
BRANCH   7   9
HETATM    9  O   UNL     1      -9.344   9.834  67.620  1.00  0.00    -0.139 OA 
BRANCH   9  10
HETATM   10  C   UNL     1      -9.507   8.698  66.891  1.00  0.00    -0.180 C  
HETATM   11  O   UNL     1     -10.345   8.541  66.016  1.00  0.00     0.069 OA 
BRANCH  10  12
HETATM   12  C   UNL     1      -8.394   7.719  67.155  1.00  0.00    -0.118 C  
BRANCH  12  13
HETATM   13  C   UNL     1      -8.319   7.245  68.604  1.00  0.00    -0.125 C  
HETATM   14  O   UNL     1      -5.728   6.751  68.340  1.00  0.00    -0.016 OA 
HETATM   15  S   UNL     1      -6.675   7.359  69.240  1.00  0.00    -0.042 S  
HETATM   16  O   UNL     1      -6.506   8.961  69.108  1.00  0.00    -0.042 OA 
HETATM   17  O   UNL     1      -6.667   7.111  70.664  1.00  0.00    -0.050 OA 
BRANCH  13  18
HETATM   18  C   UNL     1      -8.750   5.817  68.711  1.00  0.00    -0.108 C  
HETATM   19  O   UNL     1      -8.152   4.879  68.203  1.00  0.00    -0.086 OA 
BRANCH  18  20
HETATM   20  O   UNL     1      -9.983   5.727  69.286  1.00  0.00    -0.157 OA 
BRANCH  20  21
HETATM   21  C   UNL     1      -9.977   5.574  70.716  1.00  0.00    -0.201 C  
HETATM   22  C   UNL     1     -10.183   6.883  71.500  1.00  0.00    -0.210 C  
HETATM   23  C   UNL     1     -11.486   7.610  71.099  1.00  0.00    -0.296 C  
HETATM   24  C   UNL     1     -10.119   6.647  73.027  1.00  0.00    -0.204 C  
HETATM   25  C   UNL     1     -12.772   6.862  71.420  1.00  0.00    -0.384 C  
BRANCH  24  26
HETATM   26  C   UNL     1      -8.796   6.040  73.503  1.00  0.00    -0.125 C  
BRANCH  26  27
HETATM   27  C   UNL     1      -9.027   4.841  74.424  1.00  0.00    -0.111 C  
HETATM   28  C   UNL     1     -10.501   4.462  74.463  1.00  0.00    -0.295 C  
ENDBRANCH  26  27
ENDBRANCH  24  26
ENDBRANCH  20  21
ENDBRANCH  18  20
ENDBRANCH  13  18
ENDBRANCH  12  13
ENDBRANCH  10  12
ENDBRANCH   9  10
ENDBRANCH   7   9
ENDBRANCH   3   4
ENDBRANCH   2   3
TORSDOF 11
ENDMDL
MODEL      334
REMARK 921   NORMALIZED FREE ENERGY PREDICTED BY IDOCK:   -2.46 KCAL/MOL
REMARK 922        TOTAL FREE ENERGY PREDICTED BY IDOCK:   -6.28 KCAL/MOL
REMARK 923 INTER-LIGAND FREE ENERGY PREDICTED BY IDOCK:   -5.00 KCAL/MOL
REMARK 924 INTRA-LIGAND FREE ENERGY PREDICTED BY IDOCK:   -1.28 KCAL/MOL
REMARK 927      BINDING AFFINITY PREDICTED BY RF-SCORE:    0.00 PKD
ROOT
HETATM    1  C   UNL     1     -12.429  13.012  64.834  1.00  0.00    -0.512 C  
HETATM    2  C   UNL     1     -11.065  13.634  64.567  1.00  0.00    -0.396 C  
ENDROOT
BRANCH   2   3
HETATM    3  C   UNL     1     -10.049  13.202  65.623  1.00  0.00    -0.279 C  
BRANCH   3   4
HETATM    4  C   UNL     1     -10.719  12.810  66.946  1.00  0.00    -0.272 C  
HETATM    5  C   UNL     1     -10.410  11.362  67.385  1.00  0.00    -0.232 C  
HETATM    6  C   UNL     1      -8.903  11.035  67.492  1.00  0.00    -0.131 C  
HETATM    7  C   UNL     1     -11.161  11.028  68.692  1.00  0.00    -0.263 C  
HETATM    8  C   UNL     1      -8.168  11.769  68.604  1.00  0.00    -0.091 C  
BRANCH   7   9
HETATM    9  O   UNL     1     -10.831   9.685  69.088  1.00  0.00    -0.220 OA 
BRANCH   9  10
HETATM   10  C   UNL     1     -10.956   9.410  70.413  1.00  0.00    -0.266 C  
HETATM   11  O   UNL     1     -11.995   9.496  71.052  1.00  0.00    -0.296 OA 
BRANCH  10  12
HETATM   12  C   UNL     1      -9.698   8.792  70.962  1.00  0.00    -0.292 C  
BRANCH  12  13
HETATM   13  C   UNL     1      -9.712   7.266  70.972  1.00  0.00    -0.169 C  
HETATM   14  O   UNL     1      -8.836   7.245  73.474  1.00  0.00    -0.140 OA 
HETATM   15  S   UNL     1      -9.817   6.629  72.616  1.00  0.00    -0.170 S  
HETATM   16  O   UNL     1     -11.256   7.260  72.999  1.00  0.00    -0.311 OA 
HETATM   17  O   UNL     1     -10.044   5.202  72.591  1.00  0.00    -0.167 OA 
BRANCH  13  18
HETATM   18  C   UNL     1      -8.462   6.726  70.354  1.00  0.00    -0.135 C  
HETATM   19  O   UNL     1      -7.459   6.423  70.986  1.00  0.00    -0.082 OA 
BRANCH  18  20
HETATM   20  O   UNL     1      -8.528   6.794  68.994  1.00  0.00    -0.126 OA 
BRANCH  20  21
HETATM   21  C   UNL     1      -7.393   6.244  68.303  1.00  0.00    -0.086 C  
HETATM   22  C   UNL     1      -6.754   7.191  67.270  1.00  0.00    -0.064 C  
HETATM   23  C   UNL     1      -6.333   8.542  67.891  1.00  0.00    -0.057 C  
HETATM   24  C   UNL     1      -5.571   6.517  66.538  1.00  0.00    -0.014 C  
HETATM   25  C   UNL     1      -5.235   8.459  68.943  1.00  0.00    -0.032 C  
BRANCH  24  26
HETATM   26  C   UNL     1      -5.954   5.233  65.796  1.00  0.00    -0.025 C  
BRANCH  26  27
HETATM   27  C   UNL     1      -6.739   5.534  64.519  1.00  0.00    -0.043 C  
HETATM   28  C   UNL     1      -8.230   5.635  64.808  1.00  0.00    -0.134 C  
ENDBRANCH  26  27
ENDBRANCH  24  26
ENDBRANCH  20  21
ENDBRANCH  18  20
ENDBRANCH  13  18
ENDBRANCH  12  13
ENDBRANCH  10  12
ENDBRANCH   9  10
ENDBRANCH   7   9
ENDBRANCH   3   4
ENDBRANCH   2   3
TORSDOF 11
ENDMDL
MODEL      335
REMARK 921   NORMALIZED FREE ENERGY PREDICTED BY IDOCK:   -2.41 KCAL/MOL
REMARK 922        TOTAL FREE ENERGY PREDICTED BY IDOCK:   -6.21 KCAL/MOL
REMARK 923 INTER-LIGAND FREE ENERGY PREDICTED BY IDOCK:   -4.56 KCAL/MOL
REMARK 924 INTRA-LIGAND FREE ENERGY PREDICTED BY IDOCK:   -1.66 KCAL/MOL
REMARK 927      BINDING AFFINITY PREDICTED BY RF-SCORE:    0.00 PKD
ROOT
HETATM    1  C   UNL     1     -10.956  11.504  66.485  1.00  0.00    -0.346 C  
HETATM    2  C   UNL     1      -9.586  12.140  66.676  1.00  0.00    -0.226 C  
ENDROOT
BRANCH   2   3
HETATM    3  C   UNL     1      -8.879  11.562  67.901  1.00  0.00    -0.152 C  
BRANCH   3   4
HETATM    4  C   UNL     1      -9.858  10.894  68.874  1.00  0.00    -0.203 C  
HETATM    5  C   UNL     1      -9.729   9.355  68.913  1.00  0.00    -0.166 C  
HETATM    6  C   UNL     1      -8.306   8.842  69.233  1.00  0.00    -0.119 C  
HETATM    7  C   UNL     1     -10.781   8.755  69.871  1.00  0.00    -0.223 C  
HETATM    8  C   UNL     1      -7.820   9.146  70.642  1.00  0.00    -0.165 C  
BRANCH   7   9
HETATM    9  O   UNL     1     -10.616   7.326  69.907  1.00  0.00    -0.220 OA 
BRANCH   9  10
HETATM   10  C   UNL     1     -10.756   6.744  71.127  1.00  0.00    -0.229 C  
HETATM   11  O   UNL     1     -11.728   6.870  71.857  1.00  0.00    -0.273 OA 
BRANCH  10  12
HETATM   12  C   UNL     1      -9.648   5.759  71.390  1.00  0.00    -0.188 C  
BRANCH  12  13
HETATM   13  C   UNL     1     -10.004   4.319  71.031  1.00  0.00    -0.153 C  
HETATM   14  O   UNL     1      -8.243   3.413  72.793  1.00  0.00    -0.078 OA 
HETATM   15  S   UNL     1      -9.595   3.204  72.338  1.00  0.00    -0.140 S  
HETATM   16  O   UNL     1     -10.582   3.819  73.460  1.00  0.00    -0.160 OA 
HETATM   17  O   UNL     1     -10.131   1.889  72.066  1.00  0.00    -0.150 OA 
BRANCH  13  18
HETATM   18  C   UNL     1      -9.256   3.883  69.810  1.00  0.00    -0.143 C  
HETATM   19  O   UNL     1      -8.058   3.634  69.791  1.00  0.00    -0.053 OA 
BRANCH  18  20
HETATM   20  O   UNL     1     -10.043   3.982  68.702  1.00  0.00     0.056 OA 
BRANCH  20  21
HETATM   21  C   UNL     1      -9.431   3.529  67.481  1.00  0.00    -0.186 C  
HETATM   22  C   UNL     1      -9.552   4.514  66.303  1.00  0.00    -0.194 C  
HETATM   23  C   UNL     1      -8.980   5.909  66.641  1.00  0.00    -0.125 C  
HETATM   24  C   UNL     1      -8.912   3.942  65.017  1.00  0.00    -0.131 C  
HETATM   25  C   UNL     1      -7.482   5.948  66.914  1.00  0.00    -0.084 C  
BRANCH  24  26
HETATM   26  C   UNL     1      -9.526   2.615  64.560  1.00  0.00    -0.140 C  
BRANCH  26  27
HETATM   27  C   UNL     1     -10.492   2.814  63.392  1.00  0.00    -0.205 C  
HETATM   28  C   UNL     1     -10.041   3.967  62.505  1.00  0.00    -0.160 C  
ENDBRANCH  26  27
ENDBRANCH  24  26
ENDBRANCH  20  21
ENDBRANCH  18  20
ENDBRANCH  13  18
ENDBRANCH  12  13
ENDBRANCH  10  12
ENDBRANCH   9  10
ENDBRANCH   7   9
ENDBRANCH   3   4
ENDBRANCH   2   3
TORSDOF 11
ENDMDL
MODEL      336
REMARK 921   NORMALIZED FREE ENERGY PREDICTED BY IDOCK:   -2.41 KCAL/MOL
REMARK 922        TOTAL FREE ENERGY PREDICTED BY IDOCK:   -6.21 KCAL/MOL
REMARK 923 INTER-LIGAND FREE ENERGY PREDICTED BY IDOCK:   -5.08 KCAL/MOL
REMARK 924 INTRA-LIGAND FREE ENERGY PREDICTED BY IDOCK:   -1.13 KCAL/MOL
REMARK 927      BINDING AFFINITY PREDICTED BY RF-SCORE:    0.00 PKD
ROOT
HETATM    1  C   UNL     1      -7.121   4.311  65.727  1.00  0.00    -0.067 C  
HETATM    2  C   UNL     1      -5.784   5.038  65.669  1.00  0.00    -0.018 C  
ENDROOT
BRANCH   2   3
HETATM    3  C   UNL     1      -5.647   6.025  66.828  1.00  0.00    -0.013 C  
BRANCH   3   4
HETATM    4  C   UNL     1      -6.983   6.277  67.537  1.00  0.00    -0.068 C  
HETATM    5  C   UNL     1      -6.836   6.521  69.054  1.00  0.00    -0.066 C  
HETATM    6  C   UNL     1      -5.869   7.670  69.424  1.00  0.00    -0.027 C  
HETATM    7  C   UNL     1      -8.224   6.712  69.702  1.00  0.00    -0.127 C  
HETATM    8  C   UNL     1      -6.342   9.058  69.017  1.00  0.00    -0.043 C  
BRANCH   7   9
HETATM    9  O   UNL     1      -8.051   6.965  71.108  1.00  0.00    -0.108 OA 
BRANCH   9  10
HETATM   10  C   UNL     1      -8.864   7.913  71.644  1.00  0.00    -0.131 C  
HETATM   11  O   UNL     1      -8.610   8.573  72.641  1.00  0.00    -0.306 OA 
BRANCH  10  12
HETATM   12  C   UNL     1     -10.037   8.195  70.743  1.00  0.00    -0.211 C  
BRANCH  12  13
HETATM   13  C   UNL     1     -10.685   9.557  70.979  1.00  0.00    -0.340 C  
HETATM   14  O   UNL     1     -13.096   8.460  70.881  1.00  0.00     0.018 OA 
HETATM   15  S   UNL     1     -12.311   9.394  71.648  1.00  0.00    -0.407 S  
HETATM   16  O   UNL     1     -11.902   8.660  73.029  1.00  0.00    -0.071 OA 
HETATM   17  O   UNL     1     -12.818  10.684  72.060  1.00  0.00    -0.422 OA 
BRANCH  13  18
HETATM   18  C   UNL     1     -10.795  10.315  69.694  1.00  0.00    -0.271 C  
HETATM   19  O   UNL     1     -11.833  10.445  69.060  1.00  0.00    -0.170 OA 
BRANCH  18  20
HETATM   20  O   UNL     1      -9.561  10.675  69.240  1.00  0.00    -0.202 OA 
BRANCH  20  21
HETATM   21  C   UNL     1      -9.512  11.054  67.853  1.00  0.00    -0.165 C  
HETATM   22  C   UNL     1     -10.021  12.478  67.562  1.00  0.00    -0.201 C  
HETATM   23  C   UNL     1      -9.270  13.550  68.381  1.00  0.00    -0.159 C  
HETATM   24  C   UNL     1      -9.979  12.797  66.049  1.00  0.00    -0.277 C  
HETATM   25  C   UNL     1      -7.787  13.690  68.065  1.00  0.00    -0.150 C  
BRANCH  24  26
HETATM   26  C   UNL     1     -10.809  11.836  65.193  1.00  0.00    -0.351 C  
BRANCH  26  27
HETATM   27  C   UNL     1     -10.858  12.284  63.731  1.00  0.00    -0.495 C  
HETATM   28  C   UNL     1      -9.755  11.615  62.922  1.00  0.00    -0.233 C  
ENDBRANCH  26  27
ENDBRANCH  24  26
ENDBRANCH  20  21
ENDBRANCH  18  20
ENDBRANCH  13  18
ENDBRANCH  12  13
ENDBRANCH  10  12
ENDBRANCH   9  10
ENDBRANCH   7   9
ENDBRANCH   3   4
ENDBRANCH   2   3
TORSDOF 11
ENDMDL
MODEL      337
REMARK 921   NORMALIZED FREE ENERGY PREDICTED BY IDOCK:   -2.41 KCAL/MOL
REMARK 922        TOTAL FREE ENERGY PREDICTED BY IDOCK:   -6.20 KCAL/MOL
REMARK 923 INTER-LIGAND FREE ENERGY PREDICTED BY IDOCK:   -5.63 KCAL/MOL
REMARK 924 INTRA-LIGAND FREE ENERGY PREDICTED BY IDOCK:   -0.57 KCAL/MOL
REMARK 927      BINDING AFFINITY PREDICTED BY RF-SCORE:    0.00 PKD
ROOT
HETATM    1  C   UNL     1     -12.001  11.456  69.242  1.00  0.00    -0.400 C  
HETATM    2  C   UNL     1     -12.009  12.840  68.608  1.00  0.00    -0.272 C  
ENDROOT
BRANCH   2   3
HETATM    3  C   UNL     1     -11.611  12.770  67.134  1.00  0.00    -0.426 C  
BRANCH   3   4
HETATM    4  C   UNL     1     -10.090  12.708  66.947  1.00  0.00    -0.234 C  
HETATM    5  C   UNL     1      -9.550  11.270  66.785  1.00  0.00    -0.214 C  
HETATM    6  C   UNL     1     -10.210  10.467  65.641  1.00  0.00    -0.308 C  
HETATM    7  C   UNL     1      -8.012  11.288  66.656  1.00  0.00    -0.159 C  
HETATM    8  C   UNL     1      -9.906  10.981  64.241  1.00  0.00    -0.355 C  
BRANCH   7   9
HETATM    9  O   UNL     1      -7.544   9.939  66.478  1.00  0.00    -0.101 OA 
BRANCH   9  10
HETATM   10  C   UNL     1      -6.832   9.418  67.512  1.00  0.00    -0.076 C  
HETATM   11  O   UNL     1      -6.115   8.430  67.442  1.00  0.00    -0.049 OA 
BRANCH  10  12
HETATM   12  C   UNL     1      -6.876  10.325  68.713  1.00  0.00    -0.058 C  
BRANCH  12  13
HETATM   13  C   UNL     1      -7.656   9.751  69.893  1.00  0.00    -0.152 C  
HETATM   14  O   UNL     1      -5.569   8.274  70.593  1.00  0.00    -0.028 OA 
HETATM   15  S   UNL     1      -6.576   9.141  71.150  1.00  0.00    -0.074 S  
HETATM   16  O   UNL     1      -5.858  10.544  71.513  1.00  0.00    -0.318 OA 
HETATM   17  O   UNL     1      -7.327   8.802  72.338  1.00  0.00    -0.314 OA 
BRANCH  13  18
HETATM   18  C   UNL     1      -8.520   8.615  69.446  1.00  0.00    -0.126 C  
HETATM   19  O   UNL     1      -9.604   8.752  68.895  1.00  0.00    -0.155 OA 
BRANCH  18  20
HETATM   20  O   UNL     1      -8.027   7.427  69.897  1.00  0.00    -0.115 OA 
BRANCH  20  21
HETATM   21  C   UNL     1      -8.599   6.259  69.282  1.00  0.00    -0.124 C  
HETATM   22  C   UNL     1      -9.202   5.246  70.273  1.00  0.00    -0.185 C  
HETATM   23  C   UNL     1     -10.272   5.882  71.188  1.00  0.00    -0.266 C  
HETATM   24  C   UNL     1      -9.756   4.000  69.544  1.00  0.00    -0.227 C  
HETATM   25  C   UNL     1     -11.520   6.385  70.476  1.00  0.00    -0.444 C  
BRANCH  24  26
HETATM   26  C   UNL     1      -8.707   3.252  68.716  1.00  0.00    -0.145 C  
BRANCH  26  27
HETATM   27  C   UNL     1      -9.240   2.887  67.330  1.00  0.00    -0.219 C  
HETATM   28  C   UNL     1      -8.208   2.089  66.544  1.00  0.00    -0.084 C  
ENDBRANCH  26  27
ENDBRANCH  24  26
ENDBRANCH  20  21
ENDBRANCH  18  20
ENDBRANCH  13  18
ENDBRANCH  12  13
ENDBRANCH  10  12
ENDBRANCH   9  10
ENDBRANCH   7   9
ENDBRANCH   3   4
ENDBRANCH   2   3
TORSDOF 11
ENDMDL
MODEL      338
REMARK 921   NORMALIZED FREE ENERGY PREDICTED BY IDOCK:   -2.39 KCAL/MOL
REMARK 922        TOTAL FREE ENERGY PREDICTED BY IDOCK:   -6.17 KCAL/MOL
REMARK 923 INTER-LIGAND FREE ENERGY PREDICTED BY IDOCK:   -5.63 KCAL/MOL
REMARK 924 INTRA-LIGAND FREE ENERGY PREDICTED BY IDOCK:   -0.54 KCAL/MOL
REMARK 927      BINDING AFFINITY PREDICTED BY RF-SCORE:    0.00 PKD
ROOT
HETATM    1  C   UNL     1     -12.210  13.471  66.140  1.00  0.00    -0.484 C  
HETATM    2  C   UNL     1     -10.750  13.468  66.573  1.00  0.00    -0.287 C  
ENDROOT
BRANCH   2   3
HETATM    3  C   UNL     1      -9.916  12.546  65.684  1.00  0.00    -0.259 C  
BRANCH   3   4
HETATM    4  C   UNL     1      -9.163  11.484  66.495  1.00  0.00    -0.203 C  
HETATM    5  C   UNL     1      -9.452  10.039  66.032  1.00  0.00    -0.251 C  
HETATM    6  C   UNL     1      -9.179   9.784  64.532  1.00  0.00    -0.310 C  
HETATM    7  C   UNL     1      -8.702   9.031  66.929  1.00  0.00    -0.123 C  
HETATM    8  C   UNL     1      -7.714   9.862  64.127  1.00  0.00    -0.138 C  
BRANCH   7   9
HETATM    9  O   UNL     1      -8.969   7.699  66.455  1.00  0.00    -0.153 OA 
BRANCH   9  10
HETATM   10  C   UNL     1     -10.055   7.085  66.993  1.00  0.00    -0.229 C  
HETATM   11  O   UNL     1     -11.195   7.527  66.968  1.00  0.00    -0.073 OA 
BRANCH  10  12
HETATM   12  C   UNL     1      -9.719   5.692  67.455  1.00  0.00    -0.134 C  
BRANCH  12  13
HETATM   13  C   UNL     1      -8.406   5.597  68.226  1.00  0.00    -0.102 C  
HETATM   14  O   UNL     1      -9.084   3.204  69.145  1.00  0.00    -0.110 OA 
HETATM   15  S   UNL     1      -7.973   3.919  68.567  1.00  0.00    -0.067 S  
HETATM   16  O   UNL     1      -7.824   3.421  67.036  1.00  0.00    -0.079 OA 
HETATM   17  O   UNL     1      -6.633   3.842  69.104  1.00  0.00    -0.038 OA 
BRANCH  13  18
HETATM   18  C   UNL     1      -8.513   6.313  69.535  1.00  0.00    -0.129 C  
HETATM   19  O   UNL     1      -7.605   6.394  70.351  1.00  0.00    -0.092 OA 
BRANCH  18  20
HETATM   20  O   UNL     1      -9.800   6.697  69.770  1.00  0.00    -0.161 OA 
BRANCH  20  21
HETATM   21  C   UNL     1     -10.409   6.101  70.930  1.00  0.00    -0.215 C  
HETATM   22  C   UNL     1     -10.235   6.910  72.228  1.00  0.00    -0.207 C  
HETATM   23  C   UNL     1     -10.762   8.356  72.096  1.00  0.00    -0.407 C  
HETATM   24  C   UNL     1     -10.875   6.188  73.437  1.00  0.00    -0.243 C  
HETATM   25  C   UNL     1     -12.261   8.482  71.861  1.00  0.00    -0.411 C  
BRANCH  24  26
HETATM   26  C   UNL     1     -10.302   4.791  73.695  1.00  0.00    -0.254 C  
BRANCH  26  27
HETATM   27  C   UNL     1     -11.383   3.714  73.599  1.00  0.00    -0.218 C  
HETATM   28  C   UNL     1     -10.800   2.404  73.085  1.00  0.00    -0.257 C  
ENDBRANCH  26  27
ENDBRANCH  24  26
ENDBRANCH  20  21
ENDBRANCH  18  20
ENDBRANCH  13  18
ENDBRANCH  12  13
ENDBRANCH  10  12
ENDBRANCH   9  10
ENDBRANCH   7   9
ENDBRANCH   3   4
ENDBRANCH   2   3
TORSDOF 11
ENDMDL
MODEL      339
REMARK 921   NORMALIZED FREE ENERGY PREDICTED BY IDOCK:   -2.38 KCAL/MOL
REMARK 922        TOTAL FREE ENERGY PREDICTED BY IDOCK:   -6.15 KCAL/MOL
REMARK 923 INTER-LIGAND FREE ENERGY PREDICTED BY IDOCK:   -4.85 KCAL/MOL
REMARK 924 INTRA-LIGAND FREE ENERGY PREDICTED BY IDOCK:   -1.30 KCAL/MOL
REMARK 927      BINDING AFFINITY PREDICTED BY RF-SCORE:    0.00 PKD
ROOT
HETATM    1  C   UNL     1      -8.425   4.778  72.930  1.00  0.00    -0.111 C  
HETATM    2  C   UNL     1      -7.507   3.639  72.512  1.00  0.00    -0.055 C  
ENDROOT
BRANCH   2   3
HETATM    3  C   UNL     1      -8.107   2.849  71.349  1.00  0.00    -0.062 C  
BRANCH   3   4
HETATM    4  C   UNL     1      -9.288   3.581  70.700  1.00  0.00    -0.230 C  
HETATM    5  C   UNL     1      -8.956   4.176  69.315  1.00  0.00    -0.164 C  
HETATM    6  C   UNL     1      -8.405   3.151  68.297  1.00  0.00    -0.094 C  
HETATM    7  C   UNL     1     -10.175   4.939  68.754  1.00  0.00    -0.049 C  
HETATM    8  C   UNL     1      -9.403   2.092  67.853  1.00  0.00    -0.214 C  
BRANCH   7   9
HETATM    9  O   UNL     1      -9.841   5.456  67.452  1.00  0.00    -0.135 OA 
BRANCH   9  10
HETATM   10  C   UNL     1     -10.146   6.763  67.239  1.00  0.00    -0.182 C  
HETATM   11  O   UNL     1     -11.268   7.241  67.303  1.00  0.00    -0.190 OA 
BRANCH  10  12
HETATM   12  C   UNL     1      -8.898   7.597  67.107  1.00  0.00    -0.129 C  
BRANCH  12  13
HETATM   13  C   UNL     1      -8.476   7.853  65.663  1.00  0.00    -0.147 C  
HETATM   14  O   UNL     1      -5.985   8.317  66.443  1.00  0.00    -0.040 OA 
HETATM   15  S   UNL     1      -6.741   7.608  65.441  1.00  0.00    -0.045 S  
HETATM   16  O   UNL     1      -6.696   6.038  65.826  1.00  0.00    -0.046 OA 
HETATM   17  O   UNL     1      -6.402   7.646  64.037  1.00  0.00    -0.052 OA 
BRANCH  13  18
HETATM   18  C   UNL     1      -8.791   9.260  65.267  1.00  0.00    -0.198 C  
HETATM   19  O   UNL     1      -9.049   9.611  64.123  1.00  0.00    -0.241 OA 
BRANCH  18  20
HETATM   20  O   UNL     1      -8.571  10.115  66.306  1.00  0.00    -0.128 OA 
BRANCH  20  21
HETATM   21  C   UNL     1      -9.425  11.272  66.332  1.00  0.00    -0.200 C  
HETATM   22  C   UNL     1      -9.617  11.892  67.728  1.00  0.00    -0.190 C  
HETATM   23  C   UNL     1      -8.275  12.268  68.395  1.00  0.00    -0.146 C  
HETATM   24  C   UNL     1     -10.579  13.102  67.684  1.00  0.00    -0.235 C  
HETATM   25  C   UNL     1      -7.481  13.358  67.688  1.00  0.00    -0.182 C  
BRANCH  24  26
HETATM   26  C   UNL     1     -11.973  12.763  67.145  1.00  0.00    -0.351 C  
BRANCH  26  27
HETATM   27  C   UNL     1     -12.343  13.642  65.951  1.00  0.00    -0.516 C  
HETATM   28  C   UNL     1     -12.641  12.793  64.723  1.00  0.00    -0.518 C  
ENDBRANCH  26  27
ENDBRANCH  24  26
ENDBRANCH  20  21
ENDBRANCH  18  20
ENDBRANCH  13  18
ENDBRANCH  12  13
ENDBRANCH  10  12
ENDBRANCH   9  10
ENDBRANCH   7   9
ENDBRANCH   3   4
ENDBRANCH   2   3
TORSDOF 11
ENDMDL
MODEL      340
REMARK 921   NORMALIZED FREE ENERGY PREDICTED BY IDOCK:   -2.36 KCAL/MOL
REMARK 922        TOTAL FREE ENERGY PREDICTED BY IDOCK:   -6.12 KCAL/MOL
REMARK 923 INTER-LIGAND FREE ENERGY PREDICTED BY IDOCK:   -5.34 KCAL/MOL
REMARK 924 INTRA-LIGAND FREE ENERGY PREDICTED BY IDOCK:   -0.78 KCAL/MOL
REMARK 927      BINDING AFFINITY PREDICTED BY RF-SCORE:    0.00 PKD
ROOT
HETATM    1  C   UNL     1      -9.128  19.069  67.589  1.00  0.00    -0.327 C  
HETATM    2  C   UNL     1      -7.904  19.033  68.493  1.00  0.00    -0.375 C  
ENDROOT
BRANCH   2   3
HETATM    3  C   UNL     1      -7.209  17.674  68.421  1.00  0.00    -0.236 C  
BRANCH   3   4
HETATM    4  C   UNL     1      -7.992  16.583  69.162  1.00  0.00    -0.182 C  
HETATM    5  C   UNL     1      -8.549  15.486  68.228  1.00  0.00    -0.161 C  
HETATM    6  C   UNL     1      -7.482  14.800  67.344  1.00  0.00    -0.221 C  
HETATM    7  C   UNL     1      -9.367  14.458  69.038  1.00  0.00    -0.025 C  
HETATM    8  C   UNL     1      -6.470  13.955  68.105  1.00  0.00    -0.125 C  
BRANCH   7   9
HETATM    9  O   UNL     1      -9.846  13.437  68.145  1.00  0.00    -0.222 OA 
BRANCH   9  10
HETATM   10  C   UNL     1     -11.181  13.455  67.887  1.00  0.00    -0.275 C  
HETATM   11  O   UNL     1     -11.992  14.183  68.440  1.00  0.00    -0.347 OA 
BRANCH  10  12
HETATM   12  C   UNL     1     -11.514  12.605  66.689  1.00  0.00    -0.409 C  
BRANCH  12  13
HETATM   13  C   UNL     1     -10.294  11.995  66.006  1.00  0.00    -0.238 C  
HETATM   14  O   UNL     1     -11.701  11.585  63.796  1.00  0.00    -0.357 OA 
HETATM   15  S   UNL     1     -10.425  12.082  64.246  1.00  0.00    -0.359 S  
HETATM   16  O   UNL     1     -10.462  13.693  64.115  1.00  0.00    -0.305 OA 
HETATM   17  O   UNL     1      -9.176  11.697  63.629  1.00  0.00    -0.081 OA 
BRANCH  13  18
HETATM   18  C   UNL     1     -10.150  10.554  66.380  1.00  0.00    -0.228 C  
HETATM   19  O   UNL     1     -10.760   9.640  65.842  1.00  0.00     0.098 OA 
BRANCH  18  20
HETATM   20  O   UNL     1      -9.398  10.422  67.509  1.00  0.00    -0.147 OA 
BRANCH  20  21
HETATM   21  C   UNL     1      -8.472   9.322  67.497  1.00  0.00    -0.115 C  
HETATM   22  C   UNL     1      -7.739   9.119  66.158  1.00  0.00    -0.095 C  
HETATM   23  C   UNL     1      -6.986  10.388  65.700  1.00  0.00    -0.132 C  
HETATM   24  C   UNL     1      -6.796   7.894  66.207  1.00  0.00    -0.058 C  
HETATM   25  C   UNL     1      -5.843  10.827  66.605  1.00  0.00    -0.084 C  
BRANCH  24  26
HETATM   26  C   UNL     1      -7.509   6.579  66.536  1.00  0.00    -0.086 C  
BRANCH  26  27
HETATM   27  C   UNL     1      -8.779   6.404  65.703  1.00  0.00    -0.108 C  
HETATM   28  C   UNL     1      -8.629   5.251  64.719  1.00  0.00    -0.136 C  
ENDBRANCH  26  27
ENDBRANCH  24  26
ENDBRANCH  20  21
ENDBRANCH  18  20
ENDBRANCH  13  18
ENDBRANCH  12  13
ENDBRANCH  10  12
ENDBRANCH   9  10
ENDBRANCH   7   9
ENDBRANCH   3   4
ENDBRANCH   2   3
TORSDOF 11
ENDMDL
MODEL      341
REMARK 921   NORMALIZED FREE ENERGY PREDICTED BY IDOCK:   -2.25 KCAL/MOL
REMARK 922        TOTAL FREE ENERGY PREDICTED BY IDOCK:   -5.94 KCAL/MOL
REMARK 923 INTER-LIGAND FREE ENERGY PREDICTED BY IDOCK:   -5.97 KCAL/MOL
REMARK 924 INTRA-LIGAND FREE ENERGY PREDICTED BY IDOCK:    0.03 KCAL/MOL
REMARK 927      BINDING AFFINITY PREDICTED BY RF-SCORE:    0.00 PKD
ROOT
HETATM    1  C   UNL     1     -10.564   7.325  73.581  1.00  0.00    -0.353 C  
HETATM    2  C   UNL     1      -9.370   7.990  72.912  1.00  0.00    -0.338 C  
ENDROOT
BRANCH   2   3
HETATM    3  C   UNL     1      -9.817   8.893  71.763  1.00  0.00    -0.386 C  
BRANCH   3   4
HETATM    4  C   UNL     1     -10.068   8.107  70.471  1.00  0.00    -0.201 C  
HETATM    5  C   UNL     1      -8.961   8.297  69.412  1.00  0.00    -0.147 C  
HETATM    6  C   UNL     1      -7.536   7.963  69.912  1.00  0.00    -0.089 C  
HETATM    7  C   UNL     1      -9.312   7.519  68.125  1.00  0.00    -0.136 C  
HETATM    8  C   UNL     1      -7.298   6.493  70.225  1.00  0.00    -0.089 C  
BRANCH   7   9
HETATM    9  O   UNL     1      -8.248   7.694  67.171  1.00  0.00    -0.115 OA 
BRANCH   9  10
HETATM   10  C   UNL     1      -8.611   7.630  65.863  1.00  0.00    -0.148 C  
HETATM   11  O   UNL     1      -8.503   6.641  65.153  1.00  0.00    -0.122 OA 
BRANCH  10  12
HETATM   12  C   UNL     1      -9.350   8.873  65.443  1.00  0.00    -0.158 C  
BRANCH  12  13
HETATM   13  C   UNL     1      -8.440  10.003  64.970  1.00  0.00    -0.160 C  
HETATM   14  O   UNL     1      -6.663   8.244  64.090  1.00  0.00    -0.066 OA 
HETATM   15  S   UNL     1      -7.334   9.461  63.705  1.00  0.00    -0.112 S  
HETATM   16  O   UNL     1      -8.448   9.067  62.602  1.00  0.00    -0.191 OA 
HETATM   17  O   UNL     1      -6.636  10.587  63.128  1.00  0.00    -0.115 OA 
BRANCH  13  18
HETATM   18  C   UNL     1      -7.614  10.520  66.105  1.00  0.00    -0.135 C  
HETATM   19  O   UNL     1      -6.631   9.947  66.557  1.00  0.00    -0.069 OA 
BRANCH  18  20
HETATM   20  O   UNL     1      -8.207  11.605  66.679  1.00  0.00    -0.170 OA 
BRANCH  20  21
HETATM   21  C   UNL     1      -9.447  11.331  67.356  1.00  0.00    -0.165 C  
HETATM   22  C   UNL     1     -10.446  12.503  67.356  1.00  0.00    -0.231 C  
HETATM   23  C   UNL     1     -10.775  12.995  65.930  1.00  0.00    -0.292 C  
HETATM   24  C   UNL     1     -11.733  12.151  68.138  1.00  0.00    -0.402 C  
HETATM   25  C   UNL     1     -11.493  11.987  65.043  1.00  0.00    -0.343 C  
BRANCH  24  26
HETATM   26  C   UNL     1     -11.482  11.772  69.601  1.00  0.00    -0.341 C  
BRANCH  26  27
HETATM   27  C   UNL     1     -12.533  10.788  70.115  1.00  0.00    -0.357 C  
HETATM   28  C   UNL     1     -12.935  11.121  71.546  1.00  0.00    -0.542 C  
ENDBRANCH  26  27
ENDBRANCH  24  26
ENDBRANCH  20  21
ENDBRANCH  18  20
ENDBRANCH  13  18
ENDBRANCH  12  13
ENDBRANCH  10  12
ENDBRANCH   9  10
ENDBRANCH   7   9
ENDBRANCH   3   4
ENDBRANCH   2   3
TORSDOF 11
ENDMDL
MODEL      342
REMARK 921   NORMALIZED FREE ENERGY PREDICTED BY IDOCK:   -2.23 KCAL/MOL
REMARK 922        TOTAL FREE ENERGY PREDICTED BY IDOCK:   -5.92 KCAL/MOL
REMARK 923 INTER-LIGAND FREE ENERGY PREDICTED BY IDOCK:   -6.11 KCAL/MOL
REMARK 924 INTRA-LIGAND FREE ENERGY PREDICTED BY IDOCK:    0.19 KCAL/MOL
REMARK 927      BINDING AFFINITY PREDICTED BY RF-SCORE:    0.00 PKD
ROOT
HETATM    1  C   UNL     1      -8.841   4.702  63.215  1.00  0.00    -0.128 C  
HETATM    2  C   UNL     1      -9.966   3.765  63.630  1.00  0.00    -0.181 C  
ENDROOT
BRANCH   2   3
HETATM    3  C   UNL     1     -10.448   4.079  65.046  1.00  0.00    -0.152 C  
BRANCH   3   4
HETATM    4  C   UNL     1      -9.310   4.570  65.949  1.00  0.00    -0.159 C  
HETATM    5  C   UNL     1      -9.311   6.100  66.160  1.00  0.00    -0.128 C  
HETATM    6  C   UNL     1     -10.641   6.667  66.708  1.00  0.00    -0.315 C  
HETATM    7  C   UNL     1      -8.108   6.519  67.033  1.00  0.00    -0.113 C  
HETATM    8  C   UNL     1     -10.978   6.243  68.130  1.00  0.00    -0.412 C  
BRANCH   7   9
HETATM    9  O   UNL     1      -8.154   7.944  67.234  1.00  0.00    -0.115 OA 
BRANCH   9  10
HETATM   10  C   UNL     1      -6.994   8.612  66.998  1.00  0.00    -0.074 C  
HETATM   11  O   UNL     1      -5.907   8.319  67.473  1.00  0.00    -0.041 OA 
BRANCH  10  12
HETATM   12  C   UNL     1      -7.173   9.646  65.918  1.00  0.00    -0.099 C  
BRANCH  12  13
HETATM   13  C   UNL     1      -7.585  11.020  66.440  1.00  0.00    -0.135 C  
HETATM   14  O   UNL     1      -5.860  10.810  68.442  1.00  0.00    -0.044 OA 
HETATM   15  S   UNL     1      -6.320  11.740  67.441  1.00  0.00    -0.129 S  
HETATM   16  O   UNL     1      -5.174  11.832  66.305  1.00  0.00    -0.325 OA 
HETATM   17  O   UNL     1      -6.640  13.116  67.745  1.00  0.00    -0.119 OA 
BRANCH  13  18
HETATM   18  C   UNL     1      -8.821  10.914  67.274  1.00  0.00    -0.134 C  
HETATM   19  O   UNL     1      -8.822  10.828  68.495  1.00  0.00    -0.135 OA 
BRANCH  18  20
HETATM   20  O   UNL     1      -9.921  10.742  66.487  1.00  0.00    -0.199 OA 
BRANCH  20  21
HETATM   21  C   UNL     1     -10.962  11.715  66.676  1.00  0.00    -0.299 C  
HETATM   22  C   UNL     1     -10.825  12.975  65.802  1.00  0.00    -0.292 C  
HETATM   23  C   UNL     1     -10.746  12.641  64.296  1.00  0.00    -0.409 C  
HETATM   24  C   UNL     1     -11.952  13.993  66.092  1.00  0.00    -0.440 C  
HETATM   25  C   UNL     1     -11.995  12.000  63.706  1.00  0.00    -0.588 C  
BRANCH  24  26
HETATM   26  C   UNL     1     -12.003  14.459  67.550  1.00  0.00    -0.389 C  
BRANCH  26  27
HETATM   27  C   UNL     1     -11.008  15.590  67.814  1.00  0.00    -0.317 C  
HETATM   28  C   UNL     1     -10.542  15.575  69.264  1.00  0.00    -0.236 C  
ENDBRANCH  26  27
ENDBRANCH  24  26
ENDBRANCH  20  21
ENDBRANCH  18  20
ENDBRANCH  13  18
ENDBRANCH  12  13
ENDBRANCH  10  12
ENDBRANCH   9  10
ENDBRANCH   7   9
ENDBRANCH   3   4
ENDBRANCH   2   3
TORSDOF 11
ENDMDL
MODEL      343
REMARK 921   NORMALIZED FREE ENERGY PREDICTED BY IDOCK:   -2.22 KCAL/MOL
REMARK 922        TOTAL FREE ENERGY PREDICTED BY IDOCK:   -5.89 KCAL/MOL
REMARK 923 INTER-LIGAND FREE ENERGY PREDICTED BY IDOCK:   -4.74 KCAL/MOL
REMARK 924 INTRA-LIGAND FREE ENERGY PREDICTED BY IDOCK:   -1.15 KCAL/MOL
REMARK 927      BINDING AFFINITY PREDICTED BY RF-SCORE:    0.00 PKD
ROOT
HETATM    1  C   UNL     1      -9.541  17.079  67.330  1.00  0.00    -0.246 C  
HETATM    2  C   UNL     1     -10.183  15.890  66.629  1.00  0.00    -0.293 C  
ENDROOT
BRANCH   2   3
HETATM    3  C   UNL     1     -10.126  14.640  67.506  1.00  0.00    -0.224 C  
BRANCH   3   4
HETATM    4  C   UNL     1     -10.180  13.349  66.680  1.00  0.00    -0.274 C  
HETATM    5  C   UNL     1      -9.495  12.150  67.371  1.00  0.00    -0.179 C  
HETATM    6  C   UNL     1     -10.031  11.839  68.787  1.00  0.00    -0.128 C  
HETATM    7  C   UNL     1      -9.544  10.907  66.456  1.00  0.00    -0.194 C  
HETATM    8  C   UNL     1     -11.467  11.335  68.830  1.00  0.00    -0.359 C  
BRANCH   7   9
HETATM    9  O   UNL     1      -8.925   9.802  67.139  1.00  0.00    -0.134 OA 
BRANCH   9  10
HETATM   10  C   UNL     1      -9.565   8.608  67.036  1.00  0.00    -0.182 C  
HETATM   11  O   UNL     1     -10.778   8.466  66.970  1.00  0.00    -0.289 OA 
BRANCH  10  12
HETATM   12  C   UNL     1      -8.588   7.484  66.810  1.00  0.00    -0.127 C  
BRANCH  12  13
HETATM   13  C   UNL     1      -8.342   6.623  68.046  1.00  0.00    -0.117 C  
HETATM   14  O   UNL     1      -7.292   4.711  66.540  1.00  0.00    -0.079 OA 
HETATM   15  S   UNL     1      -7.065   5.436  67.765  1.00  0.00    -0.068 S  
HETATM   16  O   UNL     1      -5.860   6.478  67.493  1.00  0.00    -0.015 OA 
HETATM   17  O   UNL     1      -6.705   4.781  69.002  1.00  0.00    -0.046 OA 
BRANCH  13  18
HETATM   18  C   UNL     1      -9.583   5.877  68.420  1.00  0.00    -0.122 C  
HETATM   19  O   UNL     1     -10.145   5.069  67.692  1.00  0.00    -0.169 OA 
BRANCH  18  20
HETATM   20  O   UNL     1     -10.098   6.352  69.589  1.00  0.00    -0.166 OA 
BRANCH  20  21
HETATM   21  C   UNL     1     -10.214   5.379  70.642  1.00  0.00    -0.253 C  
HETATM   22  C   UNL     1      -9.219   5.571  71.801  1.00  0.00    -0.158 C  
HETATM   23  C   UNL     1      -9.315   6.978  72.432  1.00  0.00    -0.152 C  
HETATM   24  C   UNL     1      -9.374   4.465  72.871  1.00  0.00    -0.146 C  
HETATM   25  C   UNL     1     -10.639   7.295  73.116  1.00  0.00    -0.400 C  
BRANCH  24  26
HETATM   26  C   UNL     1      -9.166   3.048  72.327  1.00  0.00    -0.154 C  
BRANCH  26  27
HETATM   27  C   UNL     1      -7.861   2.436  72.838  1.00  0.00    -0.050 C  
HETATM   28  C   UNL     1      -6.691   2.832  71.948  1.00  0.00    -0.022 C  
ENDBRANCH  26  27
ENDBRANCH  24  26
ENDBRANCH  20  21
ENDBRANCH  18  20
ENDBRANCH  13  18
ENDBRANCH  12  13
ENDBRANCH  10  12
ENDBRANCH   9  10
ENDBRANCH   7   9
ENDBRANCH   3   4
ENDBRANCH   2   3
TORSDOF 11
ENDMDL
MODEL      344
REMARK 921   NORMALIZED FREE ENERGY PREDICTED BY IDOCK:   -2.22 KCAL/MOL
REMARK 922        TOTAL FREE ENERGY PREDICTED BY IDOCK:   -5.89 KCAL/MOL
REMARK 923 INTER-LIGAND FREE ENERGY PREDICTED BY IDOCK:   -6.17 KCAL/MOL
REMARK 924 INTRA-LIGAND FREE ENERGY PREDICTED BY IDOCK:    0.28 KCAL/MOL
REMARK 927      BINDING AFFINITY PREDICTED BY RF-SCORE:    0.00 PKD
ROOT
HETATM    1  C   UNL     1      -9.289   1.716  68.006  1.00  0.00    -0.219 C  
HETATM    2  C   UNL     1      -8.633   2.521  66.893  1.00  0.00    -0.119 C  
ENDROOT
BRANCH   2   3
HETATM    3  C   UNL     1      -8.052   3.828  67.431  1.00  0.00    -0.090 C  
BRANCH   3   4
HETATM    4  C   UNL     1      -8.654   5.058  66.740  1.00  0.00    -0.109 C  
HETATM    5  C   UNL     1      -7.938   6.377  67.102  1.00  0.00    -0.112 C  
HETATM    6  C   UNL     1      -6.415   6.370  66.835  1.00  0.00    -0.046 C  
HETATM    7  C   UNL     1      -8.633   7.570  66.412  1.00  0.00    -0.140 C  
HETATM    8  C   UNL     1      -6.025   6.298  65.366  1.00  0.00    -0.026 C  
BRANCH   7   9
HETATM    9  O   UNL     1      -7.926   8.778  66.747  1.00  0.00    -0.096 OA 
BRANCH   9  10
HETATM   10  C   UNL     1      -8.374   9.912  66.145  1.00  0.00    -0.122 C  
HETATM   11  O   UNL     1      -7.722  10.937  66.008  1.00  0.00    -0.153 OA 
BRANCH  10  12
HETATM   12  C   UNL     1      -9.709   9.687  65.486  1.00  0.00    -0.372 C  
BRANCH  12  13
HETATM   13  C   UNL     1     -10.870  10.383  66.190  1.00  0.00     0.081 C  
HETATM   14  O   UNL     1      -9.919  12.753  65.479  1.00  0.00    -0.271 OA 
HETATM   15  S   UNL     1     -11.147  12.001  65.539  1.00  0.00    -0.308 S  
HETATM   16  O   UNL     1     -11.518  11.563  64.028  1.00  0.00    -0.350 OA 
HETATM   17  O   UNL     1     -12.374  12.553  66.067  1.00  0.00    -0.615 OA 
BRANCH  13  18
HETATM   18  C   UNL     1     -10.589  10.523  67.652  1.00  0.00    -0.250 C  
HETATM   19  O   UNL     1     -10.038  11.492  68.156  1.00  0.00    -0.181 OA 
BRANCH  18  20
HETATM   20  O   UNL     1     -10.857   9.358  68.308  1.00  0.00    -0.197 OA 
BRANCH  20  21
HETATM   21  C   UNL     1     -10.889   9.463  69.742  1.00  0.00    -0.232 C  
HETATM   22  C   UNL     1     -10.090   8.373  70.480  1.00  0.00    -0.211 C  
HETATM   23  C   UNL     1      -8.612   8.324  70.034  1.00  0.00    -0.128 C  
HETATM   24  C   UNL     1     -10.207   8.524  72.015  1.00  0.00    -0.391 C  
HETATM   25  C   UNL     1      -7.794   9.567  70.355  1.00  0.00    -0.190 C  
BRANCH  24  26
HETATM   26  C   UNL     1     -11.647   8.457  72.533  1.00  0.00    -0.426 C  
BRANCH  26  27
HETATM   27  C   UNL     1     -12.612   9.205  71.613  1.00  0.00    -0.433 C  
HETATM   28  C   UNL     1     -13.973   8.523  71.583  1.00  0.00    -0.463 C  
ENDBRANCH  26  27
ENDBRANCH  24  26
ENDBRANCH  20  21
ENDBRANCH  18  20
ENDBRANCH  13  18
ENDBRANCH  12  13
ENDBRANCH  10  12
ENDBRANCH   9  10
ENDBRANCH   7   9
ENDBRANCH   3   4
ENDBRANCH   2   3
TORSDOF 11
ENDMDL
MODEL      345
REMARK 921   NORMALIZED FREE ENERGY PREDICTED BY IDOCK:   -2.18 KCAL/MOL
REMARK 922        TOTAL FREE ENERGY PREDICTED BY IDOCK:   -5.83 KCAL/MOL
REMARK 923 INTER-LIGAND FREE ENERGY PREDICTED BY IDOCK:   -4.21 KCAL/MOL
REMARK 924 INTRA-LIGAND FREE ENERGY PREDICTED BY IDOCK:   -1.61 KCAL/MOL
REMARK 927      BINDING AFFINITY PREDICTED BY RF-SCORE:    0.00 PKD
ROOT
HETATM    1  C   UNL     1      -7.660   3.827  64.871  1.00  0.00    -0.077 C  
HETATM    2  C   UNL     1      -6.577   4.039  63.822  1.00  0.00    -0.042 C  
ENDROOT
BRANCH   2   3
HETATM    3  C   UNL     1      -5.607   5.140  64.251  1.00  0.00    -0.017 C  
BRANCH   3   4
HETATM    4  C   UNL     1      -5.707   5.448  65.750  1.00  0.00    -0.014 C  
HETATM    5  C   UNL     1      -5.792   6.959  66.061  1.00  0.00    -0.034 C  
HETATM    6  C   UNL     1      -6.944   7.694  65.339  1.00  0.00    -0.059 C  
HETATM    7  C   UNL     1      -5.835   7.188  67.587  1.00  0.00    -0.029 C  
HETATM    8  C   UNL     1      -8.340   7.292  65.790  1.00  0.00    -0.140 C  
BRANCH   7   9
HETATM    9  O   UNL     1      -5.943   8.601  67.842  1.00  0.00    -0.045 OA 
BRANCH   9  10
HETATM   10  C   UNL     1      -6.453   8.947  69.053  1.00  0.00    -0.047 C  
HETATM   11  O   UNL     1      -6.326  10.042  69.581  1.00  0.00    -0.044 OA 
BRANCH  10  12
HETATM   12  C   UNL     1      -7.370   7.876  69.582  1.00  0.00    -0.090 C  
BRANCH  12  13
HETATM   13  C   UNL     1      -8.371   8.377  70.619  1.00  0.00    -0.125 C  
HETATM   14  O   UNL     1      -7.936   6.234  72.118  1.00  0.00    -0.107 OA 
HETATM   15  S   UNL     1      -8.071   7.667  72.208  1.00  0.00    -0.114 S  
HETATM   16  O   UNL     1      -6.591   8.276  72.438  1.00  0.00    -0.075 OA 
HETATM   17  O   UNL     1      -8.887   8.311  73.211  1.00  0.00    -0.242 OA 
BRANCH  13  18
HETATM   18  C   UNL     1      -9.766   8.017  70.217  1.00  0.00    -0.175 C  
HETATM   19  O   UNL     1     -10.044   7.140  69.410  1.00  0.00    -0.169 OA 
BRANCH  18  20
HETATM   20  O   UNL     1     -10.661   8.912  70.724  1.00  0.00    -0.202 OA 
BRANCH  20  21
HETATM   21  C   UNL     1     -10.662  10.200  70.082  1.00  0.00    -0.300 C  
HETATM   22  C   UNL     1     -12.026  10.627  69.511  1.00  0.00    -0.319 C  
HETATM   23  C   UNL     1     -13.140  10.621  70.581  1.00  0.00    -0.242 C  
HETATM   24  C   UNL     1     -11.939  11.997  68.799  1.00  0.00    -0.299 C  
HETATM   25  C   UNL     1     -12.960  11.624  71.713  1.00  0.00    -0.483 C  
BRANCH  24  26
HETATM   26  C   UNL     1     -10.936  12.030  67.643  1.00  0.00    -0.287 C  
BRANCH  26  27
HETATM   27  C   UNL     1     -10.536  13.461  67.285  1.00  0.00    -0.248 C  
HETATM   28  C   UNL     1      -9.228  13.480  66.504  1.00  0.00    -0.187 C  
ENDBRANCH  26  27
ENDBRANCH  24  26
ENDBRANCH  20  21
ENDBRANCH  18  20
ENDBRANCH  13  18
ENDBRANCH  12  13
ENDBRANCH  10  12
ENDBRANCH   9  10
ENDBRANCH   7   9
ENDBRANCH   3   4
ENDBRANCH   2   3
TORSDOF 11
ENDMDL
MODEL      346
REMARK 921   NORMALIZED FREE ENERGY PREDICTED BY IDOCK:   -2.17 KCAL/MOL
REMARK 922        TOTAL FREE ENERGY PREDICTED BY IDOCK:   -5.82 KCAL/MOL
REMARK 923 INTER-LIGAND FREE ENERGY PREDICTED BY IDOCK:   -4.60 KCAL/MOL
REMARK 924 INTRA-LIGAND FREE ENERGY PREDICTED BY IDOCK:   -1.22 KCAL/MOL
REMARK 927      BINDING AFFINITY PREDICTED BY RF-SCORE:    0.00 PKD
ROOT
HETATM    1  C   UNL     1     -11.033  16.323  69.693  1.00  0.00    -0.346 C  
HETATM    2  C   UNL     1     -12.208  15.355  69.681  1.00  0.00    -0.312 C  
ENDROOT
BRANCH   2   3
HETATM    3  C   UNL     1     -11.798  13.988  70.230  1.00  0.00    -0.373 C  
BRANCH   3   4
HETATM    4  C   UNL     1     -11.521  12.974  69.114  1.00  0.00    -0.353 C  
HETATM    5  C   UNL     1     -10.833  11.685  69.613  1.00  0.00    -0.001 C  
HETATM    6  C   UNL     1     -11.589  10.958  70.749  1.00  0.00    -0.249 C  
HETATM    7  C   UNL     1     -10.540  10.742  68.427  1.00  0.00    -0.197 C  
HETATM    8  C   UNL     1     -12.927  10.357  70.342  1.00  0.00    -0.188 C  
BRANCH   7   9
HETATM    9  O   UNL     1      -9.926   9.540  68.928  1.00  0.00    -0.168 OA 
BRANCH   9  10
HETATM   10  C   UNL     1      -9.529   8.642  67.989  1.00  0.00    -0.140 C  
HETATM   11  O   UNL     1     -10.180   8.321  67.006  1.00  0.00    -0.252 OA 
BRANCH  10  12
HETATM   12  C   UNL     1      -8.095   8.232  68.200  1.00  0.00    -0.124 C  
BRANCH  12  13
HETATM   13  C   UNL     1      -7.933   6.939  68.994  1.00  0.00    -0.116 C  
HETATM   14  O   UNL     1      -5.364   6.832  68.349  1.00  0.00    -0.014 OA 
HETATM   15  S   UNL     1      -6.253   6.679  69.473  1.00  0.00    -0.039 S  
HETATM   16  O   UNL     1      -6.089   7.993  70.400  1.00  0.00    -0.029 OA 
HETATM   17  O   UNL     1      -6.158   5.571  70.397  1.00  0.00    -0.023 OA 
BRANCH  13  18
HETATM   18  C   UNL     1      -8.359   5.764  68.173  1.00  0.00    -0.107 C  
HETATM   19  O   UNL     1      -7.860   5.459  67.098  1.00  0.00    -0.099 OA 
BRANCH  18  20
HETATM   20  O   UNL     1      -9.487   5.198  68.689  1.00  0.00    -0.120 OA 
BRANCH  20  21
HETATM   21  C   UNL     1      -9.537   5.146  70.126  1.00  0.00    -0.181 C  
HETATM   22  C   UNL     1     -10.074   3.821  70.698  1.00  0.00     0.122 C  
HETATM   23  C   UNL     1      -9.275   2.597  70.198  1.00  0.00    -0.202 C  
HETATM   24  C   UNL     1     -10.140   3.856  72.243  1.00  0.00    -0.234 C  
HETATM   25  C   UNL     1      -7.819   2.547  70.640  1.00  0.00    -0.046 C  
BRANCH  24  26
HETATM   26  C   UNL     1     -11.022   4.978  72.798  1.00  0.00    -0.312 C  
BRANCH  26  27
HETATM   27  C   UNL     1     -10.190   6.053  73.497  1.00  0.00    -0.230 C  
HETATM   28  C   UNL     1     -10.900   7.400  73.457  1.00  0.00    -0.269 C  
ENDBRANCH  26  27
ENDBRANCH  24  26
ENDBRANCH  20  21
ENDBRANCH  18  20
ENDBRANCH  13  18
ENDBRANCH  12  13
ENDBRANCH  10  12
ENDBRANCH   9  10
ENDBRANCH   7   9
ENDBRANCH   3   4
ENDBRANCH   2   3
TORSDOF 11
ENDMDL
MODEL      347
REMARK 921   NORMALIZED FREE ENERGY PREDICTED BY IDOCK:   -2.17 KCAL/MOL
REMARK 922        TOTAL FREE ENERGY PREDICTED BY IDOCK:   -5.81 KCAL/MOL
REMARK 923 INTER-LIGAND FREE ENERGY PREDICTED BY IDOCK:   -5.18 KCAL/MOL
REMARK 924 INTRA-LIGAND FREE ENERGY PREDICTED BY IDOCK:   -0.63 KCAL/MOL
REMARK 927      BINDING AFFINITY PREDICTED BY RF-SCORE:    0.00 PKD
ROOT
HETATM    1  C   UNL     1      -7.910   3.427  64.301  1.00  0.00    -0.081 C  
HETATM    2  C   UNL     1      -7.159   4.289  63.295  1.00  0.00    -0.045 C  
ENDROOT
BRANCH   2   3
HETATM    3  C   UNL     1      -6.509   5.491  63.980  1.00  0.00    -0.033 C  
BRANCH   3   4
HETATM    4  C   UNL     1      -6.943   5.628  65.444  1.00  0.00    -0.064 C  
HETATM    5  C   UNL     1      -6.497   6.957  66.094  1.00  0.00    -0.051 C  
HETATM    6  C   UNL     1      -6.954   8.223  65.333  1.00  0.00    -0.063 C  
HETATM    7  C   UNL     1      -6.924   6.996  67.577  1.00  0.00    -0.079 C  
HETATM    8  C   UNL     1      -8.456   8.463  65.337  1.00  0.00    -0.193 C  
BRANCH   7   9
HETATM    9  O   UNL     1      -6.520   8.255  68.144  1.00  0.00    -0.054 OA 
BRANCH   9  10
HETATM   10  C   UNL     1      -7.242   8.683  69.213  1.00  0.00    -0.063 C  
HETATM   11  O   UNL     1      -6.778   8.948  70.312  1.00  0.00    -0.038 OA 
BRANCH  10  12
HETATM   12  C   UNL     1      -8.665   8.982  68.822  1.00  0.00    -0.136 C  
BRANCH  12  13
HETATM   13  C   UNL     1      -9.159  10.350  69.287  1.00  0.00    -0.175 C  
HETATM   14  O   UNL     1     -11.548   9.876  68.240  1.00  0.00    -0.019 OA 
HETATM   15  S   UNL     1     -10.919  10.390  69.431  1.00  0.00    -0.268 S  
HETATM   16  O   UNL     1     -11.065   9.260  70.579  1.00  0.00    -0.240 OA 
HETATM   17  O   UNL     1     -11.344  11.614  70.072  1.00  0.00    -0.219 OA 
BRANCH  13  18
HETATM   18  C   UNL     1      -8.758  11.411  68.312  1.00  0.00    -0.160 C  
HETATM   19  O   UNL     1      -7.759  11.354  67.607  1.00  0.00    -0.111 OA 
BRANCH  18  20
HETATM   20  O   UNL     1      -9.544  12.516  68.451  1.00  0.00    -0.217 OA 
BRANCH  20  21
HETATM   21  C   UNL     1     -10.090  13.030  67.224  1.00  0.00    -0.235 C  
HETATM   22  C   UNL     1     -11.065  14.209  67.404  1.00  0.00    -0.318 C  
HETATM   23  C   UNL     1     -10.430  15.384  68.180  1.00  0.00    -0.247 C  
HETATM   24  C   UNL     1     -11.643  14.679  66.049  1.00  0.00    -0.328 C  
HETATM   25  C   UNL     1      -9.259  16.065  67.484  1.00  0.00    -0.214 C  
BRANCH  24  26
HETATM   26  C   UNL     1     -12.395  13.584  65.286  1.00  0.00    -0.506 C  
BRANCH  26  27
HETATM   27  C   UNL     1     -11.823  13.382  63.883  1.00  0.00    -0.492 C  
HETATM   28  C   UNL     1     -12.016  11.944  63.420  1.00  0.00    -0.528 C  
ENDBRANCH  26  27
ENDBRANCH  24  26
ENDBRANCH  20  21
ENDBRANCH  18  20
ENDBRANCH  13  18
ENDBRANCH  12  13
ENDBRANCH  10  12
ENDBRANCH   9  10
ENDBRANCH   7   9
ENDBRANCH   3   4
ENDBRANCH   2   3
TORSDOF 11
ENDMDL
MODEL      348
REMARK 921   NORMALIZED FREE ENERGY PREDICTED BY IDOCK:   -2.16 KCAL/MOL
REMARK 922        TOTAL FREE ENERGY PREDICTED BY IDOCK:   -5.80 KCAL/MOL
REMARK 923 INTER-LIGAND FREE ENERGY PREDICTED BY IDOCK:   -6.34 KCAL/MOL
REMARK 924 INTRA-LIGAND FREE ENERGY PREDICTED BY IDOCK:    0.54 KCAL/MOL
REMARK 927      BINDING AFFINITY PREDICTED BY RF-SCORE:    0.00 PKD
ROOT
HETATM    1  C   UNL     1      -7.607   5.388  68.845  1.00  0.00    -0.079 C  
HETATM    2  C   UNL     1      -9.055   5.762  68.560  1.00  0.00    -0.116 C  
ENDROOT
BRANCH   2   3
HETATM    3  C   UNL     1      -9.417   7.094  69.218  1.00  0.00    -0.152 C  
BRANCH   3   4
HETATM    4  C   UNL     1      -8.869   8.294  68.436  1.00  0.00    -0.137 C  
HETATM    5  C   UNL     1      -9.951   9.046  67.629  1.00  0.00    -0.252 C  
HETATM    6  C   UNL     1     -11.154   9.527  68.472  1.00  0.00    -0.035 C  
HETATM    7  C   UNL     1      -9.314  10.203  66.830  1.00  0.00    -0.158 C  
HETATM    8  C   UNL     1     -10.830  10.616  69.485  1.00  0.00    -0.303 C  
BRANCH   7   9
HETATM    9  O   UNL     1     -10.350  10.899  66.114  1.00  0.00    -0.241 OA 
BRANCH   9  10
HETATM   10  C   UNL     1      -9.961  12.023  65.455  1.00  0.00    -0.253 C  
HETATM   11  O   UNL     1     -10.302  12.323  64.320  1.00  0.00    -0.309 OA 
BRANCH  10  12
HETATM   12  C   UNL     1      -9.215  12.958  66.368  1.00  0.00    -0.144 C  
BRANCH  12  13
HETATM   13  C   UNL     1     -10.017  13.402  67.588  1.00  0.00    -0.229 C  
HETATM   14  O   UNL     1     -11.426  15.075  66.089  1.00  0.00    -0.321 OA 
HETATM   15  S   UNL     1     -11.580  14.083  67.124  1.00  0.00    -0.393 S  
HETATM   16  O   UNL     1     -12.194  12.757  66.433  1.00  0.00    -0.507 OA 
HETATM   17  O   UNL     1     -12.403  14.297  68.292  1.00  0.00    -0.224 OA 
BRANCH  13  18
HETATM   18  C   UNL     1      -9.273  14.451  68.352  1.00  0.00    -0.195 C  
HETATM   19  O   UNL     1      -9.530  14.774  69.504  1.00  0.00    -0.060 OA 
BRANCH  18  20
HETATM   20  O   UNL     1      -8.405  15.116  67.538  1.00  0.00    -0.150 OA 
BRANCH  20  21
HETATM   21  C   UNL     1      -7.907  16.357  68.066  1.00  0.00    -0.155 C  
HETATM   22  C   UNL     1      -7.804  17.495  67.033  1.00  0.00    -0.240 C  
HETATM   23  C   UNL     1      -9.151  17.776  66.331  1.00  0.00    -0.254 C  
HETATM   24  C   UNL     1      -7.220  18.781  67.663  1.00  0.00    -0.229 C  
HETATM   25  C   UNL     1     -10.261  18.291  67.237  1.00  0.00    -0.387 C  
BRANCH  24  26
HETATM   26  C   UNL     1      -5.826  18.594  68.269  1.00  0.00    -0.201 C  
BRANCH  26  27
HETATM   27  C   UNL     1      -5.886  18.478  69.792  1.00  0.00    -0.260 C  
HETATM   28  C   UNL     1      -6.009  19.852  70.437  1.00  0.00    -0.358 C  
ENDBRANCH  26  27
ENDBRANCH  24  26
ENDBRANCH  20  21
ENDBRANCH  18  20
ENDBRANCH  13  18
ENDBRANCH  12  13
ENDBRANCH  10  12
ENDBRANCH   9  10
ENDBRANCH   7   9
ENDBRANCH   3   4
ENDBRANCH   2   3
TORSDOF 11
ENDMDL
MODEL      349
REMARK 921   NORMALIZED FREE ENERGY PREDICTED BY IDOCK:   -2.16 KCAL/MOL
REMARK 922        TOTAL FREE ENERGY PREDICTED BY IDOCK:   -5.79 KCAL/MOL
REMARK 923 INTER-LIGAND FREE ENERGY PREDICTED BY IDOCK:   -7.44 KCAL/MOL
REMARK 924 INTRA-LIGAND FREE ENERGY PREDICTED BY IDOCK:    1.65 KCAL/MOL
REMARK 927      BINDING AFFINITY PREDICTED BY RF-SCORE:    0.00 PKD
ROOT
HETATM    1  C   UNL     1     -11.642   6.503  70.209  1.00  0.00    -0.473 C  
HETATM    2  C   UNL     1     -10.385   5.652  70.322  1.00  0.00    -0.336 C  
ENDROOT
BRANCH   2   3
HETATM    3  C   UNL     1     -10.036   5.008  68.981  1.00  0.00    -0.251 C  
BRANCH   3   4
HETATM    4  C   UNL     1     -10.256   5.965  67.803  1.00  0.00    -0.223 C  
HETATM    5  C   UNL     1      -9.451   7.278  67.920  1.00  0.00    -0.142 C  
HETATM    6  C   UNL     1      -7.928   7.078  68.101  1.00  0.00    -0.119 C  
HETATM    7  C   UNL     1      -9.767   8.207  66.729  1.00  0.00    -0.235 C  
HETATM    8  C   UNL     1      -7.215   6.482  66.896  1.00  0.00    -0.078 C  
BRANCH   7   9
HETATM    9  O   UNL     1      -8.981   9.407  66.853  1.00  0.00    -0.129 OA 
BRANCH   9  10
HETATM   10  C   UNL     1      -9.646  10.574  66.650  1.00  0.00    -0.172 C  
HETATM   11  O   UNL     1     -10.531  10.742  65.824  1.00  0.00    -0.242 OA 
BRANCH  10  12
HETATM   12  C   UNL     1      -9.298  11.589  67.706  1.00  0.00    -0.168 C  
BRANCH  12  13
HETATM   13  C   UNL     1     -10.484  12.020  68.564  1.00  0.00    -0.229 C  
HETATM   14  O   UNL     1     -11.593   9.628  68.285  1.00  0.00     0.202 OA 
HETATM   15  S   UNL     1     -11.306  10.630  69.280  1.00  0.00    -0.293 S  
HETATM   16  O   UNL     1     -10.070  10.087  70.170  1.00  0.00    -0.255 OA 
HETATM   17  O   UNL     1     -12.285  11.068  70.250  1.00  0.00    -0.312 OA 
BRANCH  13  18
HETATM   18  C   UNL     1     -11.485  12.764  67.737  1.00  0.00    -0.326 C  
HETATM   19  O   UNL     1     -12.272  12.231  66.966  1.00  0.00    -0.522 OA 
BRANCH  18  20
HETATM   20  O   UNL     1     -11.276  14.108  67.821  1.00  0.00    -0.268 OA 
BRANCH  20  21
HETATM   21  C   UNL     1     -11.736  14.720  69.039  1.00  0.00    -0.312 C  
HETATM   22  C   UNL     1     -10.645  15.459  69.834  1.00  0.00    -0.315 C  
HETATM   23  C   UNL     1      -9.932  16.540  68.992  1.00  0.00    -0.275 C  
HETATM   24  C   UNL     1     -11.203  16.051  71.149  1.00  0.00    -0.313 C  
HETATM   25  C   UNL     1     -10.813  17.698  68.541  1.00  0.00    -0.075 C  
BRANCH  24  26
HETATM   26  C   UNL     1     -11.815  15.005  72.086  1.00  0.00    -0.448 C  
BRANCH  26  27
HETATM   27  C   UNL     1     -13.244  15.375  72.486  1.00  0.00    -0.543 C  
HETATM   28  C   UNL     1     -14.223  15.049  71.366  1.00  0.00    -0.587 C  
ENDBRANCH  26  27
ENDBRANCH  24  26
ENDBRANCH  20  21
ENDBRANCH  18  20
ENDBRANCH  13  18
ENDBRANCH  12  13
ENDBRANCH  10  12
ENDBRANCH   9  10
ENDBRANCH   7   9
ENDBRANCH   3   4
ENDBRANCH   2   3
TORSDOF 11
ENDMDL
MODEL      350
REMARK 921   NORMALIZED FREE ENERGY PREDICTED BY IDOCK:   -2.15 KCAL/MOL
REMARK 922        TOTAL FREE ENERGY PREDICTED BY IDOCK:   -5.78 KCAL/MOL
REMARK 923 INTER-LIGAND FREE ENERGY PREDICTED BY IDOCK:   -5.44 KCAL/MOL
REMARK 924 INTRA-LIGAND FREE ENERGY PREDICTED BY IDOCK:   -0.34 KCAL/MOL
REMARK 927      BINDING AFFINITY PREDICTED BY RF-SCORE:    0.00 PKD
ROOT
HETATM    1  C   UNL     1     -11.807  16.008  71.829  1.00  0.00    -0.599 C  
HETATM    2  C   UNL     1     -11.152  16.004  70.455  1.00  0.00    -0.370 C  
ENDROOT
BRANCH   2   3
HETATM    3  C   UNL     1     -12.140  15.560  69.377  1.00  0.00    -0.302 C  
BRANCH   3   4
HETATM    4  C   UNL     1     -11.432  15.088  68.102  1.00  0.00    -0.355 C  
HETATM    5  C   UNL     1     -10.392  13.974  68.353  1.00  0.00    -0.251 C  
HETATM    6  C   UNL     1     -10.952  12.731  69.083  1.00  0.00    -0.185 C  
HETATM    7  C   UNL     1      -9.687  13.593  67.034  1.00  0.00    -0.251 C  
HETATM    8  C   UNL     1     -11.960  11.921  68.281  1.00  0.00    -0.235 C  
BRANCH   7   9
HETATM    9  O   UNL     1      -8.747  12.536  67.297  1.00  0.00    -0.177 OA 
BRANCH   9  10
HETATM   10  C   UNL     1      -8.872  11.425  66.524  1.00  0.00    -0.187 C  
HETATM   11  O   UNL     1      -9.820  11.184  65.791  1.00  0.00    -0.214 OA 
BRANCH  10  12
HETATM   12  C   UNL     1      -7.602  10.615  66.526  1.00  0.00    -0.134 C  
BRANCH  12  13
HETATM   13  C   UNL     1      -7.634   9.419  67.473  1.00  0.00    -0.091 C  
HETATM   14  O   UNL     1      -9.377   8.184  65.903  1.00  0.00    -0.155 OA 
HETATM   15  S   UNL     1      -8.164   7.951  66.647  1.00  0.00    -0.123 S  
HETATM   16  O   UNL     1      -6.954   7.858  65.579  1.00  0.00    -0.058 OA 
HETATM   17  O   UNL     1      -7.983   6.799  67.501  1.00  0.00    -0.112 OA 
BRANCH  13  18
HETATM   18  C   UNL     1      -8.580   9.672  68.604  1.00  0.00    -0.120 C  
HETATM   19  O   UNL     1      -8.286  10.285  69.621  1.00  0.00    -0.167 OA 
BRANCH  18  20
HETATM   20  O   UNL     1      -9.738   8.974  68.429  1.00  0.00    -0.151 OA 
BRANCH  20  21
HETATM   21  C   UNL     1     -10.482   8.722  69.634  1.00  0.00    -0.220 C  
HETATM   22  C   UNL     1     -11.205   7.363  69.665  1.00  0.00    -0.065 C  
HETATM   23  C   UNL     1     -10.241   6.178  69.436  1.00  0.00    -0.248 C  
HETATM   24  C   UNL     1     -12.018   7.182  70.968  1.00  0.00    -0.387 C  
HETATM   25  C   UNL     1      -9.186   5.981  70.516  1.00  0.00    -0.168 C  
BRANCH  24  26
HETATM   26  C   UNL     1     -13.080   8.263  71.188  1.00  0.00    -0.050 C  
BRANCH  26  27
HETATM   27  C   UNL     1     -14.172   7.792  72.149  1.00  0.00    -0.328 C  
HETATM   28  C   UNL     1     -14.320   6.277  72.101  1.00  0.00     0.266 C  
ENDBRANCH  26  27
ENDBRANCH  24  26
ENDBRANCH  20  21
ENDBRANCH  18  20
ENDBRANCH  13  18
ENDBRANCH  12  13
ENDBRANCH  10  12
ENDBRANCH   9  10
ENDBRANCH   7   9
ENDBRANCH   3   4
ENDBRANCH   2   3
TORSDOF 11
ENDMDL
MODEL      351
REMARK 921   NORMALIZED FREE ENERGY PREDICTED BY IDOCK:   -2.10 KCAL/MOL
REMARK 922        TOTAL FREE ENERGY PREDICTED BY IDOCK:   -5.70 KCAL/MOL
REMARK 923 INTER-LIGAND FREE ENERGY PREDICTED BY IDOCK:   -3.89 KCAL/MOL
REMARK 924 INTRA-LIGAND FREE ENERGY PREDICTED BY IDOCK:   -1.81 KCAL/MOL
REMARK 927      BINDING AFFINITY PREDICTED BY RF-SCORE:    0.00 PKD
ROOT
HETATM    1  C   UNL     1     -12.075  12.929  66.457  1.00  0.00    -0.375 C  
HETATM    2  C   UNL     1     -12.114  12.876  64.936  1.00  0.00    -0.479 C  
ENDROOT
BRANCH   2   3
HETATM    3  C   UNL     1     -10.893  12.143  64.381  1.00  0.00    -0.372 C  
BRANCH   3   4
HETATM    4  C   UNL     1     -10.818  10.691  64.868  1.00  0.00     0.078 C  
HETATM    5  C   UNL     1      -9.372  10.168  65.019  1.00  0.00    -0.299 C  
HETATM    6  C   UNL     1      -8.474  11.031  65.935  1.00  0.00    -0.140 C  
HETATM    7  C   UNL     1      -9.382   8.688  65.459  1.00  0.00    -0.035 C  
HETATM    8  C   UNL     1      -8.870  11.027  67.404  1.00  0.00    -0.138 C  
BRANCH   7   9
HETATM    9  O   UNL     1      -8.023   8.241  65.617  1.00  0.00    -0.101 OA 
BRANCH   9  10
HETATM   10  C   UNL     1      -7.756   6.988  65.165  1.00  0.00    -0.113 C  
HETATM   11  O   UNL     1      -6.647   6.475  65.133  1.00  0.00    -0.038 OA 
BRANCH  10  12
HETATM   12  C   UNL     1      -9.026   6.227  64.890  1.00  0.00     0.364 C  
BRANCH  12  13
HETATM   13  C   UNL     1      -9.090   4.864  65.572  1.00  0.00    -0.153 C  
HETATM   14  O   UNL     1     -10.749   3.974  63.706  1.00  0.00    -0.216 OA 
HETATM   15  S   UNL     1      -9.569   3.594  64.442  1.00  0.00    -0.177 S  
HETATM   16  O   UNL     1      -8.312   3.719  63.434  1.00  0.00    -0.088 OA 
HETATM   17  O   UNL     1      -9.417   2.292  65.051  1.00  0.00    -0.112 OA 
BRANCH  13  18
HETATM   18  C   UNL     1     -10.088   4.881  66.686  1.00  0.00    -0.249 C  
HETATM   19  O   UNL     1     -11.209   5.363  66.597  1.00  0.00     0.043 OA 
BRANCH  18  20
HETATM   20  O   UNL     1      -9.517   4.462  67.851  1.00  0.00    -0.143 OA 
BRANCH  20  21
HETATM   21  C   UNL     1      -9.028   5.514  68.701  1.00  0.00    -0.114 C  
HETATM   22  C   UNL     1      -9.992   5.926  69.828  1.00  0.00    -0.236 C  
HETATM   23  C   UNL     1     -10.396   4.733  70.722  1.00  0.00    -0.184 C  
HETATM   24  C   UNL     1      -9.418   7.089  70.670  1.00  0.00    -0.165 C  
HETATM   25  C   UNL     1      -9.260   4.101  71.515  1.00  0.00    -0.194 C  
BRANCH  24  26
HETATM   26  C   UNL     1      -9.112   8.349  69.854  1.00  0.00    -0.146 C  
BRANCH  26  27
HETATM   27  C   UNL     1      -7.655   8.784  70.017  1.00  0.00    -0.062 C  
HETATM   28  C   UNL     1      -6.754   7.582  70.268  1.00  0.00    -0.047 C  
ENDBRANCH  26  27
ENDBRANCH  24  26
ENDBRANCH  20  21
ENDBRANCH  18  20
ENDBRANCH  13  18
ENDBRANCH  12  13
ENDBRANCH  10  12
ENDBRANCH   9  10
ENDBRANCH   7   9
ENDBRANCH   3   4
ENDBRANCH   2   3
TORSDOF 11
ENDMDL
MODEL      352
REMARK 921   NORMALIZED FREE ENERGY PREDICTED BY IDOCK:   -2.07 KCAL/MOL
REMARK 922        TOTAL FREE ENERGY PREDICTED BY IDOCK:   -5.66 KCAL/MOL
REMARK 923 INTER-LIGAND FREE ENERGY PREDICTED BY IDOCK:   -4.78 KCAL/MOL
REMARK 924 INTRA-LIGAND FREE ENERGY PREDICTED BY IDOCK:   -0.88 KCAL/MOL
REMARK 927      BINDING AFFINITY PREDICTED BY RF-SCORE:    0.00 PKD
ROOT
HETATM    1  C   UNL     1      -5.269   8.863  62.394  1.00  0.00    -0.071 C  
HETATM    2  C   UNL     1      -6.033   9.823  63.296  1.00  0.00    -0.107 C  
ENDROOT
BRANCH   2   3
HETATM    3  C   UNL     1      -7.523   9.825  62.956  1.00  0.00    -0.124 C  
BRANCH   3   4
HETATM    4  C   UNL     1      -8.292   8.735  63.712  1.00  0.00    -0.140 C  
HETATM    5  C   UNL     1      -8.331   8.959  65.240  1.00  0.00    -0.168 C  
HETATM    6  C   UNL     1      -8.895  10.333  65.668  1.00  0.00    -0.186 C  
HETATM    7  C   UNL     1      -9.073   7.796  65.932  1.00  0.00    -0.072 C  
HETATM    8  C   UNL     1     -10.374  10.537  65.373  1.00  0.00    -0.292 C  
BRANCH   7   9
HETATM    9  O   UNL     1      -9.116   8.049  67.348  1.00  0.00    -0.132 OA 
BRANCH   9  10
HETATM   10  C   UNL     1      -9.957   7.259  68.066  1.00  0.00    -0.157 C  
HETATM   11  O   UNL     1     -11.080   6.928  67.714  1.00  0.00    -0.217 OA 
BRANCH  10  12
HETATM   12  C   UNL     1      -9.261   6.671  69.265  1.00  0.00    -0.140 C  
BRANCH  12  13
HETATM   13  C   UNL     1      -9.582   7.383  70.576  1.00  0.00    -0.172 C  
HETATM   14  O   UNL     1     -12.072   6.478  70.492  1.00  0.00    -0.367 OA 
HETATM   15  S   UNL     1     -10.961   6.644  71.395  1.00  0.00    -0.260 S  
HETATM   16  O   UNL     1     -10.310   5.183  71.632  1.00  0.00    -0.205 OA 
HETATM   17  O   UNL     1     -11.112   7.193  72.723  1.00  0.00    -0.275 OA 
BRANCH  13  18
HETATM   18  C   UNL     1      -9.919   8.819  70.324  1.00  0.00    -0.186 C  
HETATM   19  O   UNL     1     -11.048   9.229  70.095  1.00  0.00    -0.238 OA 
BRANCH  18  20
HETATM   20  O   UNL     1      -8.785   9.566  70.201  1.00  0.00    -0.196 OA 
BRANCH  20  21
HETATM   21  C   UNL     1      -8.811  10.539  69.142  1.00  0.00    -0.151 C  
HETATM   22  C   UNL     1      -7.661  11.562  69.187  1.00  0.00    -0.003 C  
HETATM   23  C   UNL     1      -6.272  10.887  69.188  1.00  0.00    -0.047 C  
HETATM   24  C   UNL     1      -7.780  12.600  68.047  1.00  0.00    -0.139 C  
HETATM   25  C   UNL     1      -5.928  10.104  67.928  1.00  0.00    -0.041 C  
BRANCH  24  26
HETATM   26  C   UNL     1      -9.090  13.392  68.067  1.00  0.00    -0.205 C  
BRANCH  26  27
HETATM   27  C   UNL     1      -8.986  14.674  67.239  1.00  0.00    -0.216 C  
HETATM   28  C   UNL     1     -10.331  15.384  67.167  1.00  0.00    -0.271 C  
ENDBRANCH  26  27
ENDBRANCH  24  26
ENDBRANCH  20  21
ENDBRANCH  18  20
ENDBRANCH  13  18
ENDBRANCH  12  13
ENDBRANCH  10  12
ENDBRANCH   9  10
ENDBRANCH   7   9
ENDBRANCH   3   4
ENDBRANCH   2   3
TORSDOF 11
ENDMDL
MODEL      353
REMARK 921   NORMALIZED FREE ENERGY PREDICTED BY IDOCK:   -2.07 KCAL/MOL
REMARK 922        TOTAL FREE ENERGY PREDICTED BY IDOCK:   -5.66 KCAL/MOL
REMARK 923 INTER-LIGAND FREE ENERGY PREDICTED BY IDOCK:   -4.63 KCAL/MOL
REMARK 924 INTRA-LIGAND FREE ENERGY PREDICTED BY IDOCK:   -1.02 KCAL/MOL
REMARK 927      BINDING AFFINITY PREDICTED BY RF-SCORE:    0.00 PKD
ROOT
HETATM    1  C   UNL     1      -9.450   5.033  73.332  1.00  0.00    -0.144 C  
HETATM    2  C   UNL     1      -9.031   3.572  73.232  1.00  0.00    -0.104 C  
ENDROOT
BRANCH   2   3
HETATM    3  C   UNL     1      -9.675   2.899  72.020  1.00  0.00    -0.230 C  
BRANCH   3   4
HETATM    4  C   UNL     1     -10.112   3.914  70.957  1.00  0.00    -0.036 C  
HETATM    5  C   UNL     1      -8.968   4.346  70.014  1.00  0.00    -0.146 C  
HETATM    6  C   UNL     1      -8.255   3.175  69.299  1.00  0.00    -0.077 C  
HETATM    7  C   UNL     1      -9.473   5.405  69.011  1.00  0.00    -0.133 C  
HETATM    8  C   UNL     1      -9.112   2.428  68.287  1.00  0.00    -0.225 C  
BRANCH   7   9
HETATM    9  O   UNL     1      -8.393   5.764  68.130  1.00  0.00    -0.107 OA 
BRANCH   9  10
HETATM   10  C   UNL     1      -8.305   7.082  67.808  1.00  0.00    -0.117 C  
HETATM   11  O   UNL     1      -7.714   7.528  66.835  1.00  0.00    -0.105 OA 
BRANCH  10  12
HETATM   12  C   UNL     1      -9.195   7.917  68.689  1.00  0.00    -0.142 C  
BRANCH  12  13
HETATM   13  C   UNL     1      -8.470   8.563  69.866  1.00  0.00    -0.125 C  
HETATM   14  O   UNL     1     -10.741   9.631  70.718  1.00  0.00    -0.288 OA 
HETATM   15  S   UNL     1      -9.578   8.924  71.193  1.00  0.00    -0.291 S  
HETATM   16  O   UNL     1     -10.034   7.406  71.510  1.00  0.00    -0.181 OA 
HETATM   17  O   UNL     1      -8.842   9.334  72.367  1.00  0.00    -0.053 OA 
BRANCH  13  18
HETATM   18  C   UNL     1      -7.829   9.848  69.446  1.00  0.00    -0.127 C  
HETATM   19  O   UNL     1      -6.900  10.378  70.039  1.00  0.00    -0.125 OA 
BRANCH  18  20
HETATM   20  O   UNL     1      -8.536  10.431  68.436  1.00  0.00    -0.115 OA 
BRANCH  20  21
HETATM   21  C   UNL     1      -8.925  11.794  68.676  1.00  0.00    -0.066 C  
HETATM   22  C   UNL     1      -9.681  12.457  67.509  1.00  0.00    -0.191 C  
HETATM   23  C   UNL     1     -10.939  11.662  67.096  1.00  0.00    -0.330 C  
HETATM   24  C   UNL     1     -10.027  13.931  67.822  1.00  0.00    -0.241 C  
HETATM   25  C   UNL     1     -12.032  11.578  68.153  1.00  0.00    -0.206 C  
BRANCH  24  26
HETATM   26  C   UNL     1      -8.803  14.803  68.120  1.00  0.00    -0.170 C  
BRANCH  26  27
HETATM   27  C   UNL     1      -8.987  15.611  69.405  1.00  0.00    -0.265 C  
HETATM   28  C   UNL     1     -10.454  15.959  69.622  1.00  0.00    -0.295 C  
ENDBRANCH  26  27
ENDBRANCH  24  26
ENDBRANCH  20  21
ENDBRANCH  18  20
ENDBRANCH  13  18
ENDBRANCH  12  13
ENDBRANCH  10  12
ENDBRANCH   9  10
ENDBRANCH   7   9
ENDBRANCH   3   4
ENDBRANCH   2   3
TORSDOF 11
ENDMDL
MODEL      354
REMARK 921   NORMALIZED FREE ENERGY PREDICTED BY IDOCK:   -2.04 KCAL/MOL
REMARK 922        TOTAL FREE ENERGY PREDICTED BY IDOCK:   -5.60 KCAL/MOL
REMARK 923 INTER-LIGAND FREE ENERGY PREDICTED BY IDOCK:   -4.93 KCAL/MOL
REMARK 924 INTRA-LIGAND FREE ENERGY PREDICTED BY IDOCK:   -0.68 KCAL/MOL
REMARK 927      BINDING AFFINITY PREDICTED BY RF-SCORE:    0.00 PKD
ROOT
HETATM    1  C   UNL     1     -12.439  14.687  70.228  1.00  0.00    -0.401 C  
HETATM    2  C   UNL     1     -11.315  13.935  69.529  1.00  0.00    -0.293 C  
ENDROOT
BRANCH   2   3
HETATM    3  C   UNL     1     -11.726  13.523  68.116  1.00  0.00    -0.396 C  
BRANCH   3   4
HETATM    4  C   UNL     1     -10.516  13.213  67.227  1.00  0.00    -0.243 C  
HETATM    5  C   UNL     1      -9.596  12.115  67.805  1.00  0.00    -0.195 C  
HETATM    6  C   UNL     1     -10.314  10.784  68.123  1.00  0.00    -0.197 C  
HETATM    7  C   UNL     1      -8.376  11.900  66.882  1.00  0.00    -0.169 C  
HETATM    8  C   UNL     1     -10.829  10.029  66.906  1.00  0.00    -0.152 C  
BRANCH   7   9
HETATM    9  O   UNL     1      -7.556  10.853  67.433  1.00  0.00    -0.095 OA 
BRANCH   9  10
HETATM   10  C   UNL     1      -7.181   9.877  66.565  1.00  0.00    -0.095 C  
HETATM   11  O   UNL     1      -7.689   9.678  65.472  1.00  0.00    -0.106 OA 
BRANCH  10  12
HETATM   12  C   UNL     1      -5.925   9.189  67.031  1.00  0.00    -0.056 C  
BRANCH  12  13
HETATM   13  C   UNL     1      -6.170   8.082  68.053  1.00  0.00    -0.047 C  
HETATM   14  O   UNL     1      -7.580   6.711  66.276  1.00  0.00    -0.086 OA 
HETATM   15  S   UNL     1      -6.548   6.546  67.269  1.00  0.00    -0.056 S  
HETATM   16  O   UNL     1      -5.148   6.357  66.481  1.00  0.00    -0.011 OA 
HETATM   17  O   UNL     1      -6.564   5.475  68.239  1.00  0.00    -0.045 OA 
BRANCH  13  18
HETATM   18  C   UNL     1      -7.320   8.435  68.942  1.00  0.00    -0.090 C  
HETATM   19  O   UNL     1      -7.205   8.981  70.031  1.00  0.00    -0.049 OA 
BRANCH  18  20
HETATM   20  O   UNL     1      -8.480   7.903  68.463  1.00  0.00    -0.127 OA 
BRANCH  20  21
HETATM   21  C   UNL     1      -9.450   7.559  69.467  1.00  0.00    -0.156 C  
HETATM   22  C   UNL     1     -10.716   6.871  68.922  1.00  0.00    -0.254 C  
HETATM   23  C   UNL     1     -10.391   5.598  68.110  1.00  0.00    -0.254 C  
HETATM   24  C   UNL     1     -11.730   6.572  70.051  1.00  0.00    -0.388 C  
HETATM   25  C   UNL     1      -9.750   4.467  68.903  1.00  0.00    -0.211 C  
BRANCH  24  26
HETATM   26  C   UNL     1     -12.187   7.818  70.816  1.00  0.00    -0.076 C  
BRANCH  26  27
HETATM   27  C   UNL     1     -11.776   7.756  72.288  1.00  0.00    -0.390 C  
HETATM   28  C   UNL     1     -11.171   6.401  72.627  1.00  0.00    -0.290 C  
ENDBRANCH  26  27
ENDBRANCH  24  26
ENDBRANCH  20  21
ENDBRANCH  18  20
ENDBRANCH  13  18
ENDBRANCH  12  13
ENDBRANCH  10  12
ENDBRANCH   9  10
ENDBRANCH   7   9
ENDBRANCH   3   4
ENDBRANCH   2   3
TORSDOF 11
ENDMDL
MODEL      355
REMARK 921   NORMALIZED FREE ENERGY PREDICTED BY IDOCK:   -2.03 KCAL/MOL
REMARK 922        TOTAL FREE ENERGY PREDICTED BY IDOCK:   -5.58 KCAL/MOL
REMARK 923 INTER-LIGAND FREE ENERGY PREDICTED BY IDOCK:   -5.35 KCAL/MOL
REMARK 924 INTRA-LIGAND FREE ENERGY PREDICTED BY IDOCK:   -0.23 KCAL/MOL
REMARK 927      BINDING AFFINITY PREDICTED BY RF-SCORE:    0.00 PKD
ROOT
HETATM    1  C   UNL     1      -5.422   8.266  62.431  1.00  0.00    -0.070 C  
HETATM    2  C   UNL     1      -6.134   9.323  63.263  1.00  0.00    -0.090 C  
ENDROOT
BRANCH   2   3
HETATM    3  C   UNL     1      -7.641   9.296  63.011  1.00  0.00    -0.107 C  
BRANCH   3   4
HETATM    4  C   UNL     1      -8.398   8.537  64.108  1.00  0.00    -0.102 C  
HETATM    5  C   UNL     1      -8.397   9.266  65.470  1.00  0.00    -0.139 C  
HETATM    6  C   UNL     1      -8.940  10.712  65.420  1.00  0.00    -0.208 C  
HETATM    7  C   UNL     1      -9.129   8.417  66.531  1.00  0.00    -0.176 C  
HETATM    8  C   UNL     1     -10.425  10.826  65.105  1.00  0.00    -0.299 C  
BRANCH   7   9
HETATM    9  O   UNL     1      -9.135   9.135  67.779  1.00  0.00    -0.127 OA 
BRANCH   9  10
HETATM   10  C   UNL     1      -9.808   8.543  68.800  1.00  0.00    -0.173 C  
HETATM   11  O   UNL     1     -10.452   7.508  68.708  1.00  0.00    -0.205 OA 
BRANCH  10  12
HETATM   12  C   UNL     1      -9.501   9.211  70.114  1.00  0.00    -0.235 C  
BRANCH  12  13
HETATM   13  C   UNL     1     -10.587  10.174  70.586  1.00  0.00    -0.102 C  
HETATM   14  O   UNL     1     -12.395   8.239  70.468  1.00  0.00     0.077 OA 
HETATM   15  S   UNL     1     -11.944   9.313  71.318  1.00  0.00    -0.362 S  
HETATM   16  O   UNL     1     -11.136   8.646  72.549  1.00  0.00    -0.325 OA 
HETATM   17  O   UNL     1     -12.854  10.245  71.944  1.00  0.00    -0.425 OA 
BRANCH  13  18
HETATM   18  C   UNL     1     -11.119  10.969  69.436  1.00  0.00    -0.262 C  
HETATM   19  O   UNL     1     -11.931  10.545  68.625  1.00  0.00    -0.334 OA 
BRANCH  18  20
HETATM   20  O   UNL     1     -10.443  12.146  69.309  1.00  0.00    -0.027 OA 
BRANCH  20  21
HETATM   21  C   UNL     1     -10.163  12.543  67.956  1.00  0.00    -0.225 C  
HETATM   22  C   UNL     1      -9.603  13.970  67.812  1.00  0.00    -0.216 C  
HETATM   23  C   UNL     1      -8.325  14.188  68.652  1.00  0.00    -0.123 C  
HETATM   24  C   UNL     1      -9.369  14.341  66.329  1.00  0.00    -0.236 C  
HETATM   25  C   UNL     1      -7.123  13.349  68.236  1.00  0.00    -0.109 C  
BRANCH  24  26
HETATM   26  C   UNL     1     -10.633  14.264  65.467  1.00  0.00    -0.351 C  
BRANCH  26  27
HETATM   27  C   UNL     1     -10.971  15.617  64.841  1.00  0.00    -0.447 C  
HETATM   28  C   UNL     1     -12.299  15.555  64.097  1.00  0.00     0.049 C  
ENDBRANCH  26  27
ENDBRANCH  24  26
ENDBRANCH  20  21
ENDBRANCH  18  20
ENDBRANCH  13  18
ENDBRANCH  12  13
ENDBRANCH  10  12
ENDBRANCH   9  10
ENDBRANCH   7   9
ENDBRANCH   3   4
ENDBRANCH   2   3
TORSDOF 11
ENDMDL
MODEL      356
REMARK 921   NORMALIZED FREE ENERGY PREDICTED BY IDOCK:   -1.98 KCAL/MOL
REMARK 922        TOTAL FREE ENERGY PREDICTED BY IDOCK:   -5.50 KCAL/MOL
REMARK 923 INTER-LIGAND FREE ENERGY PREDICTED BY IDOCK:   -6.66 KCAL/MOL
REMARK 924 INTRA-LIGAND FREE ENERGY PREDICTED BY IDOCK:    1.16 KCAL/MOL
REMARK 927      BINDING AFFINITY PREDICTED BY RF-SCORE:    0.00 PKD
ROOT
HETATM    1  C   UNL     1     -10.529  19.343  66.689  1.00  0.00    -0.568 C  
HETATM    2  C   UNL     1     -10.275  18.947  68.137  1.00  0.00    -0.454 C  
ENDROOT
BRANCH   2   3
HETATM    3  C   UNL     1      -9.791  17.501  68.234  1.00  0.00    -0.319 C  
BRANCH   3   4
HETATM    4  C   UNL     1     -10.892  16.496  67.873  1.00  0.00    -0.326 C  
HETATM    5  C   UNL     1     -10.811  15.181  68.679  1.00  0.00    -0.245 C  
HETATM    6  C   UNL     1     -10.816  15.372  70.213  1.00  0.00    -0.332 C  
HETATM    7  C   UNL     1     -11.916  14.205  68.221  1.00  0.00    -0.332 C  
HETATM    8  C   UNL     1     -12.120  15.908  70.785  1.00  0.00    -0.393 C  
BRANCH   7   9
HETATM    9  O   UNL     1     -11.830  13.003  69.009  1.00  0.00    -0.302 OA 
BRANCH   9  10
HETATM   10  C   UNL     1     -11.530  11.867  68.326  1.00  0.00    -0.311 C  
HETATM   11  O   UNL     1     -11.939  11.593  67.208  1.00  0.00    -0.627 OA 
BRANCH  10  12
HETATM   12  C   UNL     1     -10.466  11.072  69.036  1.00  0.00    -0.242 C  
BRANCH  12  13
HETATM   13  C   UNL     1      -9.307  10.651  68.137  1.00  0.00    -0.151 C  
HETATM   14  O   UNL     1      -9.572  12.868  66.707  1.00  0.00    -0.232 OA 
HETATM   15  S   UNL     1      -8.571  12.041  67.334  1.00  0.00    -0.180 S  
HETATM   16  O   UNL     1      -8.070  12.815  68.662  1.00  0.00    -0.110 OA 
HETATM   17  O   UNL     1      -7.353  11.649  66.662  1.00  0.00    -0.116 OA 
BRANCH  13  18
HETATM   18  C   UNL     1      -9.782   9.711  67.075  1.00  0.00    -0.181 C  
HETATM   19  O   UNL     1     -10.633   8.849  67.251  1.00  0.00    -0.283 OA 
BRANCH  18  20
HETATM   20  O   UNL     1      -9.015   9.823  65.953  1.00  0.00    -0.143 OA 
BRANCH  20  21
HETATM   21  C   UNL     1      -8.351   8.613  65.549  1.00  0.00    -0.150 C  
HETATM   22  C   UNL     1      -8.216   8.437  64.025  1.00  0.00    -0.115 C  
HETATM   23  C   UNL     1      -7.496   9.628  63.357  1.00  0.00    -0.118 C  
HETATM   24  C   UNL     1      -7.534   7.096  63.667  1.00  0.00    -0.100 C  
HETATM   25  C   UNL     1      -6.042   9.822  63.767  1.00  0.00    -0.114 C  
BRANCH  24  26
HETATM   26  C   UNL     1      -8.274   5.865  64.200  1.00  0.00    -0.075 C  
BRANCH  26  27
HETATM   27  C   UNL     1      -8.407   4.782  63.129  1.00  0.00    -0.111 C  
HETATM   28  C   UNL     1      -7.067   4.517  62.455  1.00  0.00    -0.031 C  
ENDBRANCH  26  27
ENDBRANCH  24  26
ENDBRANCH  20  21
ENDBRANCH  18  20
ENDBRANCH  13  18
ENDBRANCH  12  13
ENDBRANCH  10  12
ENDBRANCH   9  10
ENDBRANCH   7   9
ENDBRANCH   3   4
ENDBRANCH   2   3
TORSDOF 11
ENDMDL
MODEL      357
REMARK 921   NORMALIZED FREE ENERGY PREDICTED BY IDOCK:   -1.94 KCAL/MOL
REMARK 922        TOTAL FREE ENERGY PREDICTED BY IDOCK:   -5.43 KCAL/MOL
REMARK 923 INTER-LIGAND FREE ENERGY PREDICTED BY IDOCK:   -4.55 KCAL/MOL
REMARK 924 INTRA-LIGAND FREE ENERGY PREDICTED BY IDOCK:   -0.88 KCAL/MOL
REMARK 927      BINDING AFFINITY PREDICTED BY RF-SCORE:    0.00 PKD
ROOT
HETATM    1  C   UNL     1     -12.370  13.044  64.833  1.00  0.00    -0.512 C  
HETATM    2  C   UNL     1     -11.058  13.710  64.442  1.00  0.00    -0.378 C  
ENDROOT
BRANCH   2   3
HETATM    3  C   UNL     1      -9.903  13.191  65.298  1.00  0.00    -0.096 C  
BRANCH   3   4
HETATM    4  C   UNL     1     -10.382  12.649  66.650  1.00  0.00    -0.249 C  
HETATM    5  C   UNL     1     -10.167  11.128  66.812  1.00  0.00    -0.272 C  
HETATM    6  C   UNL     1      -8.709  10.663  66.595  1.00  0.00    -0.144 C  
HETATM    7  C   UNL     1     -10.722  10.651  68.171  1.00  0.00    -0.225 C  
HETATM    8  C   UNL     1      -7.722  11.144  67.649  1.00  0.00    -0.113 C  
BRANCH   7   9
HETATM    9  O   UNL     1     -10.482   9.238  68.302  1.00  0.00    -0.209 OA 
BRANCH   9  10
HETATM   10  C   UNL     1     -10.310   8.782  69.571  1.00  0.00    -0.213 C  
HETATM   11  O   UNL     1     -11.094   8.959  70.492  1.00  0.00    -0.243 OA 
BRANCH  10  12
HETATM   12  C   UNL     1      -9.126   7.855  69.659  1.00  0.00    -0.153 C  
BRANCH  12  13
HETATM   13  C   UNL     1      -9.485   6.379  69.513  1.00  0.00    -0.145 C  
HETATM   14  O   UNL     1      -7.862   5.756  71.515  1.00  0.00    -0.107 OA 
HETATM   15  S   UNL     1      -9.184   5.487  71.008  1.00  0.00    -0.150 S  
HETATM   16  O   UNL     1     -10.232   6.284  71.947  1.00  0.00    -0.197 OA 
HETATM   17  O   UNL     1      -9.726   4.150  70.915  1.00  0.00    -0.170 OA 
BRANCH  13  18
HETATM   18  C   UNL     1      -8.667   5.745  68.433  1.00  0.00    -0.111 C  
HETATM   19  O   UNL     1      -7.487   5.446  68.551  1.00  0.00    -0.073 OA 
BRANCH  18  20
HETATM   20  O   UNL     1      -9.357   5.720  67.258  1.00  0.00    -0.113 OA 
BRANCH  20  21
HETATM   21  C   UNL     1      -8.699   5.027  66.183  1.00  0.00    -0.120 C  
HETATM   22  C   UNL     1      -8.492   5.871  64.911  1.00  0.00    -0.085 C  
HETATM   23  C   UNL     1      -7.713   7.175  65.191  1.00  0.00    -0.116 C  
HETATM   24  C   UNL     1      -7.821   5.047  63.787  1.00  0.00    -0.088 C  
HETATM   25  C   UNL     1      -6.279   6.987  65.665  1.00  0.00    -0.037 C  
BRANCH  24  26
HETATM   26  C   UNL     1      -8.613   3.802  63.378  1.00  0.00    -0.093 C  
BRANCH  26  27
HETATM   27  C   UNL     1      -8.427   2.662  64.380  1.00  0.00    -0.087 C  
HETATM   28  C   UNL     1      -7.133   1.906  64.108  1.00  0.00    -0.047 C  
ENDBRANCH  26  27
ENDBRANCH  24  26
ENDBRANCH  20  21
ENDBRANCH  18  20
ENDBRANCH  13  18
ENDBRANCH  12  13
ENDBRANCH  10  12
ENDBRANCH   9  10
ENDBRANCH   7   9
ENDBRANCH   3   4
ENDBRANCH   2   3
TORSDOF 11
ENDMDL
MODEL      358
REMARK 921   NORMALIZED FREE ENERGY PREDICTED BY IDOCK:   -1.93 KCAL/MOL
REMARK 922        TOTAL FREE ENERGY PREDICTED BY IDOCK:   -5.42 KCAL/MOL
REMARK 923 INTER-LIGAND FREE ENERGY PREDICTED BY IDOCK:   -5.52 KCAL/MOL
REMARK 924 INTRA-LIGAND FREE ENERGY PREDICTED BY IDOCK:    0.10 KCAL/MOL
REMARK 927      BINDING AFFINITY PREDICTED BY RF-SCORE:    0.00 PKD
ROOT
HETATM    1  C   UNL     1     -12.884  15.510  71.139  1.00  0.00    -0.551 C  
HETATM    2  C   UNL     1     -11.427  15.611  70.710  1.00  0.00    -0.409 C  
ENDROOT
BRANCH   2   3
HETATM    3  C   UNL     1     -11.306  16.240  69.322  1.00  0.00    -0.288 C  
BRANCH   3   4
HETATM    4  C   UNL     1     -10.345  15.463  68.415  1.00  0.00    -0.229 C  
HETATM    5  C   UNL     1     -10.873  14.068  68.014  1.00  0.00    -0.257 C  
HETATM    6  C   UNL     1     -12.265  14.083  67.342  1.00  0.00    -0.289 C  
HETATM    7  C   UNL     1      -9.829  13.330  67.149  1.00  0.00    -0.237 C  
HETATM    8  C   UNL     1     -12.305  14.742  65.971  1.00  0.00     0.020 C  
BRANCH   7   9
HETATM    9  O   UNL     1     -10.362  12.048  66.769  1.00  0.00    -0.204 OA 
BRANCH   9  10
HETATM   10  C   UNL     1     -10.154  11.679  65.477  1.00  0.00    -0.246 C  
HETATM   11  O   UNL     1     -11.024  11.589  64.624  1.00  0.00    -0.317 OA 
BRANCH  10  12
HETATM   12  C   UNL     1      -8.682  11.586  65.170  1.00  0.00     0.287 C  
BRANCH  12  13
HETATM   13  C   UNL     1      -8.151  10.156  65.121  1.00  0.00    -0.148 C  
HETATM   14  O   UNL     1      -9.388   9.744  62.812  1.00  0.00    -0.277 OA 
HETATM   15  S   UNL     1      -8.122   9.531  63.469  1.00  0.00    -0.164 S  
HETATM   16  O   UNL     1      -7.074  10.597  62.855  1.00  0.00    -0.089 OA 
HETATM   17  O   UNL     1      -7.423   8.267  63.421  1.00  0.00    -0.106 OA 
BRANCH  13  18
HETATM   18  C   UNL     1      -9.015   9.248  65.936  1.00  0.00    -0.184 C  
HETATM   19  O   UNL     1     -10.231   9.171  65.822  1.00  0.00    -0.139 OA 
BRANCH  18  20
HETATM   20  O   UNL     1      -8.295   8.665  66.936  1.00  0.00    -0.107 OA 
BRANCH  20  21
HETATM   21  C   UNL     1      -9.061   8.271  68.087  1.00  0.00    -0.134 C  
HETATM   22  C   UNL     1      -8.388   7.201  68.967  1.00  0.00    -0.126 C  
HETATM   23  C   UNL     1      -6.984   7.632  69.446  1.00  0.00    -0.063 C  
HETATM   24  C   UNL     1      -9.288   6.797  70.157  1.00  0.00    -0.159 C  
HETATM   25  C   UNL     1      -6.956   8.842  70.370  1.00  0.00    -0.047 C  
BRANCH  24  26
HETATM   26  C   UNL     1     -10.654   6.243  69.739  1.00  0.00    -0.323 C  
BRANCH  26  27
HETATM   27  C   UNL     1     -11.740   6.598  70.755  1.00  0.00    -0.445 C  
HETATM   28  C   UNL     1     -11.341   7.819  71.573  1.00  0.00    -0.289 C  
ENDBRANCH  26  27
ENDBRANCH  24  26
ENDBRANCH  20  21
ENDBRANCH  18  20
ENDBRANCH  13  18
ENDBRANCH  12  13
ENDBRANCH  10  12
ENDBRANCH   9  10
ENDBRANCH   7   9
ENDBRANCH   3   4
ENDBRANCH   2   3
TORSDOF 11
ENDMDL
MODEL      359
REMARK 921   NORMALIZED FREE ENERGY PREDICTED BY IDOCK:   -1.89 KCAL/MOL
REMARK 922        TOTAL FREE ENERGY PREDICTED BY IDOCK:   -5.36 KCAL/MOL
REMARK 923 INTER-LIGAND FREE ENERGY PREDICTED BY IDOCK:   -4.98 KCAL/MOL
REMARK 924 INTRA-LIGAND FREE ENERGY PREDICTED BY IDOCK:   -0.37 KCAL/MOL
REMARK 927      BINDING AFFINITY PREDICTED BY RF-SCORE:    0.00 PKD
ROOT
HETATM    1  C   UNL     1     -10.683  12.739  63.742  1.00  0.00    -0.397 C  
HETATM    2  C   UNL     1     -11.097  11.593  64.654  1.00  0.00    -0.342 C  
ENDROOT
BRANCH   2   3
HETATM    3  C   UNL     1      -9.894  10.727  65.027  1.00  0.00    -0.346 C  
BRANCH   3   4
HETATM    4  C   UNL     1     -10.273   9.590  65.984  1.00  0.00    -0.242 C  
HETATM    5  C   UNL     1      -9.694   9.767  67.405  1.00  0.00    -0.202 C  
HETATM    6  C   UNL     1     -10.059  11.109  68.080  1.00  0.00    -0.193 C  
HETATM    7  C   UNL     1     -10.074   8.560  68.291  1.00  0.00    -0.192 C  
HETATM    8  C   UNL     1     -11.534  11.275  68.416  1.00  0.00    -0.377 C  
BRANCH   7   9
HETATM    9  O   UNL     1      -9.544   8.769  69.613  1.00  0.00    -0.167 OA 
BRANCH   9  10
HETATM   10  C   UNL     1      -8.406   8.088  69.909  1.00  0.00    -0.121 C  
HETATM   11  O   UNL     1      -7.337   8.603  70.202  1.00  0.00    -0.049 OA 
BRANCH  10  12
HETATM   12  C   UNL     1      -8.672   6.610  70.026  1.00  0.00    -0.141 C  
BRANCH  12  13
HETATM   13  C   UNL     1      -7.445   5.740  69.771  1.00  0.00    -0.075 C  
HETATM   14  O   UNL     1      -8.996   3.688  69.131  1.00  0.00    -0.094 OA 
HETATM   15  S   UNL     1      -7.818   4.392  68.692  1.00  0.00    -0.074 S  
HETATM   16  O   UNL     1      -8.232   5.265  67.396  1.00  0.00    -0.104 OA 
HETATM   17  O   UNL     1      -6.605   3.712  68.298  1.00  0.00    -0.043 OA 
BRANCH  13  18
HETATM   18  C   UNL     1      -6.933   5.167  71.055  1.00  0.00    -0.051 C  
HETATM   19  O   UNL     1      -5.817   5.384  71.508  1.00  0.00    -0.022 OA 
BRANCH  18  20
HETATM   20  O   UNL     1      -7.799   4.236  71.546  1.00  0.00    -0.076 OA 
BRANCH  20  21
HETATM   21  C   UNL     1      -8.628   4.691  72.630  1.00  0.00    -0.115 C  
HETATM   22  C   UNL     1     -10.124   4.360  72.472  1.00  0.00    -0.237 C  
HETATM   23  C   UNL     1     -10.375   2.849  72.274  1.00  0.00    -0.116 C  
HETATM   24  C   UNL     1     -10.956   4.918  73.650  1.00  0.00    -0.387 C  
HETATM   25  C   UNL     1      -9.995   1.967  73.456  1.00  0.00    -0.141 C  
BRANCH  24  26
HETATM   26  C   UNL     1     -10.844   6.436  73.821  1.00  0.00    -0.069 C  
BRANCH  26  27
HETATM   27  C   UNL     1      -9.494   6.838  74.416  1.00  0.00    -0.279 C  
HETATM   28  C   UNL     1      -8.808   7.883  73.547  1.00  0.00    -0.333 C  
ENDBRANCH  26  27
ENDBRANCH  24  26
ENDBRANCH  20  21
ENDBRANCH  18  20
ENDBRANCH  13  18
ENDBRANCH  12  13
ENDBRANCH  10  12
ENDBRANCH   9  10
ENDBRANCH   7   9
ENDBRANCH   3   4
ENDBRANCH   2   3
TORSDOF 11
ENDMDL
MODEL      360
REMARK 921   NORMALIZED FREE ENERGY PREDICTED BY IDOCK:   -1.85 KCAL/MOL
REMARK 922        TOTAL FREE ENERGY PREDICTED BY IDOCK:   -5.29 KCAL/MOL
REMARK 923 INTER-LIGAND FREE ENERGY PREDICTED BY IDOCK:   -4.43 KCAL/MOL
REMARK 924 INTRA-LIGAND FREE ENERGY PREDICTED BY IDOCK:   -0.86 KCAL/MOL
REMARK 927      BINDING AFFINITY PREDICTED BY RF-SCORE:    0.00 PKD
ROOT
HETATM    1  C   UNL     1      -7.856   1.745  66.595  1.00  0.00    -0.067 C  
HETATM    2  C   UNL     1      -7.865   2.824  65.520  1.00  0.00    -0.078 C  
ENDROOT
BRANCH   2   3
HETATM    3  C   UNL     1      -6.984   4.006  65.922  1.00  0.00    -0.065 C  
BRANCH   3   4
HETATM    4  C   UNL     1      -7.754   5.332  65.915  1.00  0.00    -0.091 C  
HETATM    5  C   UNL     1      -6.936   6.520  66.467  1.00  0.00    -0.067 C  
HETATM    6  C   UNL     1      -5.581   6.745  65.758  1.00  0.00    -0.030 C  
HETATM    7  C   UNL     1      -7.795   7.802  66.478  1.00  0.00    -0.101 C  
HETATM    8  C   UNL     1      -5.687   7.198  64.309  1.00  0.00    -0.033 C  
BRANCH   7   9
HETATM    9  O   UNL     1      -6.996   8.893  66.970  1.00  0.00    -0.073 OA 
BRANCH   9  10
HETATM   10  C   UNL     1      -7.480  10.139  66.723  1.00  0.00    -0.104 C  
HETATM   11  O   UNL     1      -6.811  11.087  66.339  1.00  0.00    -0.128 OA 
BRANCH  10  12
HETATM   12  C   UNL     1      -8.984  10.161  66.787  1.00  0.00    -0.147 C  
BRANCH  12  13
HETATM   13  C   UNL     1      -9.539  10.382  68.191  1.00  0.00    -0.144 C  
HETATM   14  O   UNL     1     -10.134  12.895  67.592  1.00  0.00    -0.214 OA 
HETATM   15  S   UNL     1     -10.684  11.726  68.232  1.00  0.00    -0.227 S  
HETATM   16  O   UNL     1     -11.785  11.100  67.228  1.00  0.00    -0.540 OA 
HETATM   17  O   UNL     1     -11.352  11.780  69.513  1.00  0.00    -0.262 OA 
BRANCH  13  18
HETATM   18  C   UNL     1      -8.433  10.697  69.148  1.00  0.00    -0.128 C  
HETATM   19  O   UNL     1      -7.701  11.673  69.055  1.00  0.00    -0.097 OA 
BRANCH  18  20
HETATM   20  O   UNL     1      -8.238   9.664  70.016  1.00  0.00    -0.150 OA 
BRANCH  20  21
HETATM   21  C   UNL     1      -9.039   8.497  69.761  1.00  0.00    -0.153 C  
HETATM   22  C   UNL     1      -9.123   7.510  70.940  1.00  0.00    -0.153 C  
HETATM   23  C   UNL     1      -9.642   8.179  72.232  1.00  0.00    -0.319 C  
HETATM   24  C   UNL     1      -9.962   6.263  70.578  1.00  0.00    -0.221 C  
HETATM   25  C   UNL     1     -11.074   8.693  72.168  1.00  0.00    -0.434 C  
BRANCH  24  26
HETATM   26  C   UNL     1      -9.422   5.484  69.375  1.00  0.00    -0.176 C  
BRANCH  26  27
HETATM   27  C   UNL     1      -9.821   4.009  69.435  1.00  0.00    -0.115 C  
HETATM   28  C   UNL     1      -8.629   3.140  69.814  1.00  0.00    -0.113 C  
ENDBRANCH  26  27
ENDBRANCH  24  26
ENDBRANCH  20  21
ENDBRANCH  18  20
ENDBRANCH  13  18
ENDBRANCH  12  13
ENDBRANCH  10  12
ENDBRANCH   9  10
ENDBRANCH   7   9
ENDBRANCH   3   4
ENDBRANCH   2   3
TORSDOF 11
ENDMDL
MODEL      361
REMARK 921   NORMALIZED FREE ENERGY PREDICTED BY IDOCK:   -1.84 KCAL/MOL
REMARK 922        TOTAL FREE ENERGY PREDICTED BY IDOCK:   -5.27 KCAL/MOL
REMARK 923 INTER-LIGAND FREE ENERGY PREDICTED BY IDOCK:   -5.42 KCAL/MOL
REMARK 924 INTRA-LIGAND FREE ENERGY PREDICTED BY IDOCK:    0.15 KCAL/MOL
REMARK 927      BINDING AFFINITY PREDICTED BY RF-SCORE:    0.00 PKD
ROOT
HETATM    1  C   UNL     1     -11.409   3.280  73.338  1.00  0.00    -0.200 C  
HETATM    2  C   UNL     1     -10.156   2.601  73.873  1.00  0.00    -0.174 C  
ENDROOT
BRANCH   2   3
HETATM    3  C   UNL     1      -9.520   1.706  72.809  1.00  0.00    -0.114 C  
BRANCH   3   4
HETATM    4  C   UNL     1      -9.170   2.481  71.533  1.00  0.00    -0.180 C  
HETATM    5  C   UNL     1      -8.105   3.578  71.755  1.00  0.00    -0.062 C  
HETATM    6  C   UNL     1      -6.789   3.070  72.389  1.00  0.00    -0.026 C  
HETATM    7  C   UNL     1      -7.847   4.346  70.441  1.00  0.00    -0.052 C  
HETATM    8  C   UNL     1      -5.973   2.139  71.505  1.00  0.00    -0.013 C  
BRANCH   7   9
HETATM    9  O   UNL     1      -6.832   5.339  70.674  1.00  0.00    -0.047 OA 
BRANCH   9  10
HETATM   10  C   UNL     1      -7.273   6.536  71.144  1.00  0.00    -0.078 C  
HETATM   11  O   UNL     1      -6.716   7.199  72.007  1.00  0.00    -0.055 OA 
BRANCH  10  12
HETATM   12  C   UNL     1      -8.429   7.048  70.327  1.00  0.00    -0.138 C  
BRANCH  12  13
HETATM   13  C   UNL     1      -9.146   8.243  70.950  1.00  0.00    -0.152 C  
HETATM   14  O   UNL     1     -11.491   7.274  70.184  1.00  0.00    -0.248 OA 
HETATM   15  S   UNL     1     -10.832   7.868  71.320  1.00  0.00    -0.239 S  
HETATM   16  O   UNL     1     -10.559   6.687  72.390  1.00  0.00    -0.204 OA 
HETATM   17  O   UNL     1     -11.426   8.931  72.098  1.00  0.00    -0.362 OA 
BRANCH  13  18
HETATM   18  C   UNL     1      -9.134   9.409  70.013  1.00  0.00    -0.220 C  
HETATM   19  O   UNL     1      -8.385  10.370  70.123  1.00  0.00     0.055 OA 
BRANCH  18  20
HETATM   20  O   UNL     1     -10.182   9.340  69.145  1.00  0.00    -0.193 OA 
BRANCH  20  21
HETATM   21  C   UNL     1     -11.182  10.359  69.319  1.00  0.00    -0.248 C  
HETATM   22  C   UNL     1     -10.718  11.780  68.949  1.00  0.00    -0.241 C  
HETATM   23  C   UNL     1     -10.188  11.867  67.500  1.00  0.00    -0.212 C  
HETATM   24  C   UNL     1     -11.829  12.825  69.204  1.00  0.00    -0.352 C  
HETATM   25  C   UNL     1     -11.220  11.595  66.414  1.00  0.00    -0.349 C  
BRANCH  24  26
HETATM   26  C   UNL     1     -12.310  12.872  70.657  1.00  0.00    -0.385 C  
BRANCH  26  27
HETATM   27  C   UNL     1     -12.239  14.289  71.227  1.00  0.00    -0.426 C  
HETATM   28  C   UNL     1     -13.616  14.939  71.239  1.00  0.00    -0.504 C  
ENDBRANCH  26  27
ENDBRANCH  24  26
ENDBRANCH  20  21
ENDBRANCH  18  20
ENDBRANCH  13  18
ENDBRANCH  12  13
ENDBRANCH  10  12
ENDBRANCH   9  10
ENDBRANCH   7   9
ENDBRANCH   3   4
ENDBRANCH   2   3
TORSDOF 11
ENDMDL
MODEL      362
REMARK 921   NORMALIZED FREE ENERGY PREDICTED BY IDOCK:   -1.83 KCAL/MOL
REMARK 922        TOTAL FREE ENERGY PREDICTED BY IDOCK:   -5.25 KCAL/MOL
REMARK 923 INTER-LIGAND FREE ENERGY PREDICTED BY IDOCK:   -4.43 KCAL/MOL
REMARK 924 INTRA-LIGAND FREE ENERGY PREDICTED BY IDOCK:   -0.83 KCAL/MOL
REMARK 927      BINDING AFFINITY PREDICTED BY RF-SCORE:    0.00 PKD
ROOT
HETATM    1  C   UNL     1     -10.947   2.079  72.841  1.00  0.00    -0.177 C  
HETATM    2  C   UNL     1     -10.183   2.833  73.921  1.00  0.00    -0.192 C  
ENDROOT
BRANCH   2   3
HETATM    3  C   UNL     1      -8.902   3.448  73.358  1.00  0.00    -0.085 C  
BRANCH   3   4
HETATM    4  C   UNL     1      -9.170   4.314  72.121  1.00  0.00    -0.163 C  
HETATM    5  C   UNL     1      -8.137   5.446  71.929  1.00  0.00    -0.114 C  
HETATM    6  C   UNL     1      -6.669   4.967  71.873  1.00  0.00    -0.048 C  
HETATM    7  C   UNL     1      -8.505   6.303  70.698  1.00  0.00    -0.134 C  
HETATM    8  C   UNL     1      -6.316   4.131  70.652  1.00  0.00    -0.022 C  
BRANCH   7   9
HETATM    9  O   UNL     1      -7.510   7.329  70.531  1.00  0.00    -0.080 OA 
BRANCH   9  10
HETATM   10  C   UNL     1      -7.972   8.607  70.533  1.00  0.00    -0.106 C  
HETATM   11  O   UNL     1      -8.023   9.333  71.515  1.00  0.00    -0.334 OA 
BRANCH  10  12
HETATM   12  C   UNL     1      -8.229   9.094  69.131  1.00  0.00    -0.117 C  
BRANCH  12  13
HETATM   13  C   UNL     1      -9.063  10.371  69.064  1.00  0.00    -0.187 C  
HETATM   14  O   UNL     1     -10.836   9.166  67.505  1.00  0.00    -0.242 OA 
HETATM   15  S   UNL     1     -10.747  10.026  68.659  1.00  0.00    -0.226 S  
HETATM   16  O   UNL     1     -11.100   9.129  69.956  1.00  0.00    -0.235 OA 
HETATM   17  O   UNL     1     -11.555  11.214  68.809  1.00  0.00    -0.270 OA 
BRANCH  13  18
HETATM   18  C   UNL     1      -8.523  11.294  68.019  1.00  0.00    -0.138 C  
HETATM   19  O   UNL     1      -8.255  10.955  66.874  1.00  0.00    -0.126 OA 
BRANCH  18  20
HETATM   20  O   UNL     1      -8.200  12.502  68.562  1.00  0.00    -0.147 OA 
BRANCH  20  21
HETATM   21  C   UNL     1      -9.313  13.385  68.784  1.00  0.00     0.096 C  
HETATM   22  C   UNL     1      -8.967  14.883  68.693  1.00  0.00    -0.184 C  
HETATM   23  C   UNL     1      -8.317  15.256  67.343  1.00  0.00    -0.202 C  
HETATM   24  C   UNL     1     -10.201  15.769  68.986  1.00  0.00    -0.224 C  
HETATM   25  C   UNL     1      -9.209  15.079  66.121  1.00  0.00    -0.294 C  
BRANCH  24  26
HETATM   26  C   UNL     1     -10.818  15.531  70.367  1.00  0.00    -0.356 C  
BRANCH  26  27
HETATM   27  C   UNL     1     -12.294  15.144  70.265  1.00  0.00    -0.398 C  
HETATM   28  C   UNL     1     -12.608  14.559  68.895  1.00  0.00     0.279 C  
ENDBRANCH  26  27
ENDBRANCH  24  26
ENDBRANCH  20  21
ENDBRANCH  18  20
ENDBRANCH  13  18
ENDBRANCH  12  13
ENDBRANCH  10  12
ENDBRANCH   9  10
ENDBRANCH   7   9
ENDBRANCH   3   4
ENDBRANCH   2   3
TORSDOF 11
ENDMDL
MODEL      363
REMARK 921   NORMALIZED FREE ENERGY PREDICTED BY IDOCK:   -1.73 KCAL/MOL
REMARK 922        TOTAL FREE ENERGY PREDICTED BY IDOCK:   -5.10 KCAL/MOL
REMARK 923 INTER-LIGAND FREE ENERGY PREDICTED BY IDOCK:   -4.53 KCAL/MOL
REMARK 924 INTRA-LIGAND FREE ENERGY PREDICTED BY IDOCK:   -0.57 KCAL/MOL
REMARK 927      BINDING AFFINITY PREDICTED BY RF-SCORE:    0.00 PKD
ROOT
HETATM    1  C   UNL     1      -5.372   8.051  63.643  1.00  0.00    -0.049 C  
HETATM    2  C   UNL     1      -5.682   9.515  63.921  1.00  0.00    -0.082 C  
ENDROOT
BRANCH   2   3
HETATM    3  C   UNL     1      -7.022   9.918  63.308  1.00  0.00    -0.126 C  
BRANCH   3   4
HETATM    4  C   UNL     1      -8.204   9.211  63.983  1.00  0.00    -0.168 C  
HETATM    5  C   UNL     1      -8.215   9.365  65.520  1.00  0.00    -0.127 C  
HETATM    6  C   UNL     1      -8.183  10.830  66.013  1.00  0.00    -0.164 C  
HETATM    7  C   UNL     1      -9.400   8.584  66.127  1.00  0.00    -0.214 C  
HETATM    8  C   UNL     1      -9.433  11.638  65.696  1.00  0.00    -0.228 C  
BRANCH   7   9
HETATM    9  O   UNL     1      -9.398   8.771  67.554  1.00  0.00    -0.135 OA 
BRANCH   9  10
HETATM   10  C   UNL     1      -8.603   7.925  68.261  1.00  0.00    -0.124 C  
HETATM   11  O   UNL     1      -8.356   6.770  67.949  1.00  0.00    -0.119 OA 
BRANCH  10  12
HETATM   12  C   UNL     1      -7.898   8.649  69.378  1.00  0.00    -0.096 C  
BRANCH  12  13
HETATM   13  C   UNL     1      -8.722   8.760  70.658  1.00  0.00    -0.180 C  
HETATM   14  O   UNL     1      -7.039   7.144  71.916  1.00  0.00    -0.070 OA 
HETATM   15  S   UNL     1      -7.755   8.384  72.087  1.00  0.00    -0.087 S  
HETATM   16  O   UNL     1      -6.681   9.583  71.940  1.00  0.00    -0.298 OA 
HETATM   17  O   UNL     1      -8.489   8.700  73.291  1.00  0.00    -0.395 OA 
BRANCH  13  18
HETATM   18  C   UNL     1      -9.874   7.807  70.624  1.00  0.00    -0.182 C  
HETATM   19  O   UNL     1     -11.001   8.104  70.250  1.00  0.00    -0.248 OA 
BRANCH  18  20
HETATM   20  O   UNL     1      -9.546   6.632  71.234  1.00  0.00    -0.169 OA 
BRANCH  20  21
HETATM   21  C   UNL     1      -9.933   5.447  70.516  1.00  0.00    -0.221 C  
HETATM   22  C   UNL     1      -8.991   4.245  70.714  1.00  0.00    -0.154 C  
HETATM   23  C   UNL     1      -8.819   3.872  72.204  1.00  0.00    -0.130 C  
HETATM   24  C   UNL     1      -9.445   3.025  69.880  1.00  0.00    -0.189 C  
HETATM   25  C   UNL     1     -10.081   3.385  72.902  1.00  0.00    -0.226 C  
BRANCH  24  26
HETATM   26  C   UNL     1      -9.516   3.299  68.375  1.00  0.00    -0.209 C  
BRANCH  26  27
HETATM   27  C   UNL     1      -8.360   2.636  67.627  1.00  0.00    -0.094 C  
HETATM   28  C   UNL     1      -7.749   1.513  68.456  1.00  0.00    -0.046 C  
ENDBRANCH  26  27
ENDBRANCH  24  26
ENDBRANCH  20  21
ENDBRANCH  18  20
ENDBRANCH  13  18
ENDBRANCH  12  13
ENDBRANCH  10  12
ENDBRANCH   9  10
ENDBRANCH   7   9
ENDBRANCH   3   4
ENDBRANCH   2   3
TORSDOF 11
ENDMDL
MODEL      364
REMARK 921   NORMALIZED FREE ENERGY PREDICTED BY IDOCK:   -1.73 KCAL/MOL
REMARK 922        TOTAL FREE ENERGY PREDICTED BY IDOCK:   -5.09 KCAL/MOL
REMARK 923 INTER-LIGAND FREE ENERGY PREDICTED BY IDOCK:   -4.99 KCAL/MOL
REMARK 924 INTRA-LIGAND FREE ENERGY PREDICTED BY IDOCK:   -0.10 KCAL/MOL
REMARK 927      BINDING AFFINITY PREDICTED BY RF-SCORE:    0.00 PKD
ROOT
HETATM    1  C   UNL     1     -11.903  13.477  67.395  1.00  0.00    -0.423 C  
HETATM    2  C   UNL     1     -11.481  13.755  68.831  1.00  0.00    -0.344 C  
ENDROOT
BRANCH   2   3
HETATM    3  C   UNL     1     -12.007  12.676  69.776  1.00  0.00    -0.365 C  
BRANCH   3   4
HETATM    4  C   UNL     1     -11.723  11.261  69.257  1.00  0.00    -0.403 C  
HETATM    5  C   UNL     1     -11.255  10.285  70.359  1.00  0.00    -0.407 C  
HETATM    6  C   UNL     1     -12.220  10.173  71.562  1.00  0.00    -0.473 C  
HETATM    7  C   UNL     1     -10.939   8.903  69.749  1.00  0.00    -0.156 C  
HETATM    8  C   UNL     1     -13.562   9.530  71.245  1.00  0.00    -0.298 C  
BRANCH   7   9
HETATM    9  O   UNL     1     -10.534   8.011  70.804  1.00  0.00    -0.203 OA 
BRANCH   9  10
HETATM   10  C   UNL     1      -9.556   7.123  70.486  1.00  0.00    -0.169 C  
HETATM   11  O   UNL     1      -8.962   7.087  69.418  1.00  0.00    -0.139 OA 
BRANCH  10  12
HETATM   12  C   UNL     1      -9.151   6.308  71.685  1.00  0.00    -0.145 C  
BRANCH  12  13
HETATM   13  C   UNL     1      -7.713   6.547  72.137  1.00  0.00    -0.097 C  
HETATM   14  O   UNL     1      -7.904   9.110  71.488  1.00  0.00    -0.330 OA 
HETATM   15  S   UNL     1      -7.433   8.244  72.539  1.00  0.00    -0.090 S  
HETATM   16  O   UNL     1      -8.487   8.351  73.761  1.00  0.00    -0.305 OA 
HETATM   17  O   UNL     1      -6.139   8.407  73.163  1.00  0.00    -0.080 OA 
BRANCH  13  18
HETATM   18  C   UNL     1      -6.754   6.172  71.052  1.00  0.00    -0.061 C  
HETATM   19  O   UNL     1      -6.100   6.978  70.404  1.00  0.00    -0.027 OA 
BRANCH  18  20
HETATM   20  O   UNL     1      -6.847   4.843  70.764  1.00  0.00    -0.038 OA 
BRANCH  20  21
HETATM   21  C   UNL     1      -6.769   4.518  69.365  1.00  0.00    -0.045 C  
HETATM   22  C   UNL     1      -7.243   3.096  69.012  1.00  0.00    -0.049 C  
HETATM   23  C   UNL     1      -8.686   2.821  69.491  1.00  0.00    -0.131 C  
HETATM   24  C   UNL     1      -7.089   2.805  67.501  1.00  0.00    -0.053 C  
HETATM   25  C   UNL     1      -9.763   3.671  68.830  1.00  0.00    -0.058 C  
BRANCH  24  26
HETATM   26  C   UNL     1      -5.651   2.941  66.990  1.00  0.00    -0.021 C  
BRANCH  26  27
HETATM   27  C   UNL     1      -5.565   3.900  65.802  1.00  0.00    -0.017 C  
HETATM   28  C   UNL     1      -6.894   4.609  65.579  1.00  0.00    -0.061 C  
ENDBRANCH  26  27
ENDBRANCH  24  26
ENDBRANCH  20  21
ENDBRANCH  18  20
ENDBRANCH  13  18
ENDBRANCH  12  13
ENDBRANCH  10  12
ENDBRANCH   9  10
ENDBRANCH   7   9
ENDBRANCH   3   4
ENDBRANCH   2   3
TORSDOF 11
ENDMDL
MODEL      365
REMARK 921   NORMALIZED FREE ENERGY PREDICTED BY IDOCK:   -1.73 KCAL/MOL
REMARK 922        TOTAL FREE ENERGY PREDICTED BY IDOCK:   -5.09 KCAL/MOL
REMARK 923 INTER-LIGAND FREE ENERGY PREDICTED BY IDOCK:   -5.13 KCAL/MOL
REMARK 924 INTRA-LIGAND FREE ENERGY PREDICTED BY IDOCK:    0.04 KCAL/MOL
REMARK 927      BINDING AFFINITY PREDICTED BY RF-SCORE:    0.00 PKD
ROOT
HETATM    1  C   UNL     1      -5.764   9.095  73.122  1.00  0.00    -0.020 C  
HETATM    2  C   UNL     1      -5.152   7.701  73.147  1.00  0.00    -0.037 C  
ENDROOT
BRANCH   2   3
HETATM    3  C   UNL     1      -6.237   6.628  73.227  1.00  0.00    -0.063 C  
BRANCH   3   4
HETATM    4  C   UNL     1      -6.989   6.463  71.901  1.00  0.00    -0.080 C  
HETATM    5  C   UNL     1      -8.518   6.332  72.073  1.00  0.00    -0.123 C  
HETATM    6  C   UNL     1      -9.173   7.492  72.858  1.00  0.00    -0.218 C  
HETATM    7  C   UNL     1      -9.194   6.116  70.703  1.00  0.00    -0.154 C  
HETATM    8  C   UNL     1      -9.141   8.839  72.152  1.00  0.00    -0.218 C  
BRANCH   7   9
HETATM    9  O   UNL     1     -10.618   6.026  70.895  1.00  0.00    -0.226 OA 
BRANCH   9  10
HETATM   10  C   UNL     1     -11.368   6.914  70.190  1.00  0.00    -0.314 C  
HETATM   11  O   UNL     1     -12.585   6.873  70.082  1.00  0.00     0.054 OA 
BRANCH  10  12
HETATM   12  C   UNL     1     -10.534   8.076  69.719  1.00  0.00    -0.227 C  
BRANCH  12  13
HETATM   13  C   UNL     1     -10.758   8.443  68.255  1.00  0.00    -0.028 C  
HETATM   14  O   UNL     1      -8.141   8.505  67.840  1.00  0.00    -0.113 OA 
HETATM   15  S   UNL     1      -9.365   8.014  67.258  1.00  0.00    -0.151 S  
HETATM   16  O   UNL     1      -9.410   6.417  67.505  1.00  0.00    -0.119 OA 
HETATM   17  O   UNL     1      -9.680   8.173  65.856  1.00  0.00    -0.072 OA 
BRANCH  13  18
HETATM   18  C   UNL     1     -10.983   9.915  68.113  1.00  0.00    -0.207 C  
HETATM   19  O   UNL     1     -12.030  10.481  68.398  1.00  0.00    -0.364 OA 
BRANCH  18  20
HETATM   20  O   UNL     1      -9.942  10.501  67.457  1.00  0.00    -0.165 OA 
BRANCH  20  21
HETATM   21  C   UNL     1      -9.951  11.939  67.465  1.00  0.00    -0.187 C  
HETATM   22  C   UNL     1      -9.705  12.587  66.090  1.00  0.00    -0.259 C  
HETATM   23  C   UNL     1     -10.713  12.105  65.023  1.00  0.00    -0.338 C  
HETATM   24  C   UNL     1      -9.685  14.131  66.185  1.00  0.00    -0.310 C  
HETATM   25  C   UNL     1     -12.164  12.487  65.280  1.00  0.00    -0.493 C  
BRANCH  24  26
HETATM   26  C   UNL     1      -8.618  14.676  67.139  1.00  0.00    -0.244 C  
BRANCH  26  27
HETATM   27  C   UNL     1      -9.130  15.884  67.924  1.00  0.00    -0.190 C  
HETATM   28  C   UNL     1      -9.030  15.638  69.424  1.00  0.00    -0.265 C  
ENDBRANCH  26  27
ENDBRANCH  24  26
ENDBRANCH  20  21
ENDBRANCH  18  20
ENDBRANCH  13  18
ENDBRANCH  12  13
ENDBRANCH  10  12
ENDBRANCH   9  10
ENDBRANCH   7   9
ENDBRANCH   3   4
ENDBRANCH   2   3
TORSDOF 11
ENDMDL
MODEL      366
REMARK 921   NORMALIZED FREE ENERGY PREDICTED BY IDOCK:   -1.71 KCAL/MOL
REMARK 922        TOTAL FREE ENERGY PREDICTED BY IDOCK:   -5.06 KCAL/MOL
REMARK 923 INTER-LIGAND FREE ENERGY PREDICTED BY IDOCK:   -5.88 KCAL/MOL
REMARK 924 INTRA-LIGAND FREE ENERGY PREDICTED BY IDOCK:    0.82 KCAL/MOL
REMARK 927      BINDING AFFINITY PREDICTED BY RF-SCORE:    0.00 PKD
ROOT
HETATM    1  C   UNL     1     -13.422  15.661  73.026  1.00  0.00    -0.654 C  
HETATM    2  C   UNL     1     -13.569  15.636  71.511  1.00  0.00    -0.466 C  
ENDROOT
BRANCH   2   3
HETATM    3  C   UNL     1     -13.403  14.217  70.967  1.00  0.00    -0.326 C  
BRANCH   3   4
HETATM    4  C   UNL     1     -11.940  13.887  70.648  1.00  0.00    -0.364 C  
HETATM    5  C   UNL     1     -11.728  13.370  69.208  1.00  0.00    -0.383 C  
HETATM    6  C   UNL     1     -12.262  14.314  68.106  1.00  0.00    -0.164 C  
HETATM    7  C   UNL     1     -10.244  13.010  68.982  1.00  0.00     0.119 C  
HETATM    8  C   UNL     1     -11.518  15.636  67.983  1.00  0.00    -0.294 C  
BRANCH   7   9
HETATM    9  O   UNL     1     -10.076  12.560  67.625  1.00  0.00    -0.210 OA 
BRANCH   9  10
HETATM   10  C   UNL     1      -9.972  11.215  67.457  1.00  0.00    -0.181 C  
HETATM   11  O   UNL     1     -10.555  10.569  66.598  1.00  0.00    -0.241 OA 
BRANCH  10  12
HETATM   12  C   UNL     1      -8.892  10.639  68.334  1.00  0.00    -0.145 C  
BRANCH  12  13
HETATM   13  C   UNL     1      -8.220   9.398  67.752  1.00  0.00    -0.114 C  
HETATM   14  O   UNL     1      -8.036  10.572  65.382  1.00  0.00    -0.155 OA 
HETATM   15  S   UNL     1      -7.268   9.788  66.317  1.00  0.00    -0.102 S  
HETATM   16  O   UNL     1      -6.210  10.784  67.026  1.00  0.00    -0.060 OA 
HETATM   17  O   UNL     1      -6.476   8.649  65.912  1.00  0.00    -0.056 OA 
BRANCH  13  18
HETATM   18  C   UNL     1      -9.246   8.385  67.356  1.00  0.00    -0.140 C  
HETATM   19  O   UNL     1      -9.364   7.932  66.225  1.00  0.00    -0.188 OA 
BRANCH  18  20
HETATM   20  O   UNL     1     -10.136   8.178  68.368  1.00  0.00    -0.188 OA 
BRANCH  20  21
HETATM   21  C   UNL     1      -9.582   7.573  69.549  1.00  0.00    -0.156 C  
HETATM   22  C   UNL     1     -10.047   8.211  70.872  1.00  0.00    -0.215 C  
HETATM   23  C   UNL     1     -11.585   8.220  71.011  1.00  0.00    -0.301 C  
HETATM   24  C   UNL     1      -9.377   7.538  72.092  1.00  0.00    -0.176 C  
HETATM   25  C   UNL     1     -12.239   6.847  71.093  1.00  0.00    -0.428 C  
BRANCH  24  26
HETATM   26  C   UNL     1      -7.847   7.606  72.072  1.00  0.00    -0.106 C  
BRANCH  26  27
HETATM   27  C   UNL     1      -7.225   6.561  72.999  1.00  0.00    -0.081 C  
HETATM   28  C   UNL     1      -8.297   5.658  73.596  1.00  0.00    -0.111 C  
ENDBRANCH  26  27
ENDBRANCH  24  26
ENDBRANCH  20  21
ENDBRANCH  18  20
ENDBRANCH  13  18
ENDBRANCH  12  13
ENDBRANCH  10  12
ENDBRANCH   9  10
ENDBRANCH   7   9
ENDBRANCH   3   4
ENDBRANCH   2   3
TORSDOF 11
ENDMDL
MODEL      367
REMARK 921   NORMALIZED FREE ENERGY PREDICTED BY IDOCK:   -1.70 KCAL/MOL
REMARK 922        TOTAL FREE ENERGY PREDICTED BY IDOCK:   -5.04 KCAL/MOL
REMARK 923 INTER-LIGAND FREE ENERGY PREDICTED BY IDOCK:   -4.36 KCAL/MOL
REMARK 924 INTRA-LIGAND FREE ENERGY PREDICTED BY IDOCK:   -0.68 KCAL/MOL
REMARK 927      BINDING AFFINITY PREDICTED BY RF-SCORE:    0.00 PKD
ROOT
HETATM    1  C   UNL     1     -11.385   3.018  73.582  1.00  0.00    -0.242 C  
HETATM    2  C   UNL     1     -10.339   2.475  74.546  1.00  0.00    -0.194 C  
ENDROOT
BRANCH   2   3
HETATM    3  C   UNL     1      -9.266   1.681  73.801  1.00  0.00    -0.067 C  
BRANCH   3   4
HETATM    4  C   UNL     1      -8.554   2.527  72.738  1.00  0.00    -0.072 C  
HETATM    5  C   UNL     1      -7.873   3.789  73.312  1.00  0.00    -0.079 C  
HETATM    6  C   UNL     1      -6.872   3.508  74.456  1.00  0.00    -0.046 C  
HETATM    7  C   UNL     1      -7.227   4.611  72.176  1.00  0.00    -0.071 C  
HETATM    8  C   UNL     1      -5.622   2.748  74.038  1.00  0.00     0.000 C  
BRANCH   7   9
HETATM    9  O   UNL     1      -6.579   5.762  72.747  1.00  0.00    -0.064 OA 
BRANCH   9  10
HETATM   10  C   UNL     1      -7.373   6.844  72.960  1.00  0.00    -0.074 C  
HETATM   11  O   UNL     1      -7.255   7.630  73.889  1.00  0.00    -0.101 OA 
BRANCH  10  12
HETATM   12  C   UNL     1      -8.301   7.075  71.796  1.00  0.00    -0.110 C  
BRANCH  12  13
HETATM   13  C   UNL     1      -8.743   8.527  71.636  1.00  0.00    -0.199 C  
HETATM   14  O   UNL     1     -10.884   7.757  70.277  1.00  0.00    -0.243 OA 
HETATM   15  S   UNL     1     -10.479   8.648  71.335  1.00  0.00    -0.284 S  
HETATM   16  O   UNL     1     -10.983   8.001  72.729  1.00  0.00    -0.363 OA 
HETATM   17  O   UNL     1     -10.907  10.027  71.401  1.00  0.00    -0.140 OA 
BRANCH  13  18
HETATM   18  C   UNL     1      -8.035   9.167  70.484  1.00  0.00    -0.154 C  
HETATM   19  O   UNL     1      -7.421  10.222  70.555  1.00  0.00    -0.250 OA 
BRANCH  18  20
HETATM   20  O   UNL     1      -8.324   8.517  69.321  1.00  0.00    -0.116 OA 
BRANCH  20  21
HETATM   21  C   UNL     1      -8.995   9.315  68.330  1.00  0.00    -0.129 C  
HETATM   22  C   UNL     1      -8.598   8.997  66.877  1.00  0.00    -0.128 C  
HETATM   23  C   UNL     1      -8.809   7.508  66.522  1.00  0.00    -0.167 C  
HETATM   24  C   UNL     1      -9.325   9.922  65.874  1.00  0.00    -0.245 C  
HETATM   25  C   UNL     1     -10.255   7.032  66.549  1.00  0.00    -0.127 C  
BRANCH  24  26
HETATM   26  C   UNL     1      -9.054  11.412  66.100  1.00  0.00    -0.217 C  
BRANCH  26  27
HETATM   27  C   UNL     1     -10.313  12.252  65.882  1.00  0.00    -0.280 C  
HETATM   28  C   UNL     1     -10.006  13.480  65.034  1.00  0.00    -0.193 C  
ENDBRANCH  26  27
ENDBRANCH  24  26
ENDBRANCH  20  21
ENDBRANCH  18  20
ENDBRANCH  13  18
ENDBRANCH  12  13
ENDBRANCH  10  12
ENDBRANCH   9  10
ENDBRANCH   7   9
ENDBRANCH   3   4
ENDBRANCH   2   3
TORSDOF 11
ENDMDL
MODEL      368
REMARK 921   NORMALIZED FREE ENERGY PREDICTED BY IDOCK:   -1.69 KCAL/MOL
REMARK 922        TOTAL FREE ENERGY PREDICTED BY IDOCK:   -5.03 KCAL/MOL
REMARK 923 INTER-LIGAND FREE ENERGY PREDICTED BY IDOCK:   -3.79 KCAL/MOL
REMARK 924 INTRA-LIGAND FREE ENERGY PREDICTED BY IDOCK:   -1.24 KCAL/MOL
REMARK 927      BINDING AFFINITY PREDICTED BY RF-SCORE:    0.00 PKD
ROOT
HETATM    1  C   UNL     1     -10.674  10.369  66.819  1.00  0.00    -0.235 C  
HETATM    2  C   UNL     1      -9.459  11.147  67.303  1.00  0.00    -0.178 C  
ENDROOT
BRANCH   2   3
HETATM    3  C   UNL     1      -9.238  10.942  68.801  1.00  0.00    -0.187 C  
BRANCH   3   4
HETATM    4  C   UNL     1     -10.337  10.082  69.437  1.00  0.00    -0.245 C  
HETATM    5  C   UNL     1      -9.944   8.596  69.587  1.00  0.00    -0.191 C  
HETATM    6  C   UNL     1      -8.632   8.359  70.370  1.00  0.00    -0.136 C  
HETATM    7  C   UNL     1     -11.118   7.790  70.182  1.00  0.00    -0.209 C  
HETATM    8  C   UNL     1      -8.695   8.725  71.846  1.00  0.00    -0.199 C  
BRANCH   7   9
HETATM    9  O   UNL     1     -10.711   6.418  70.334  1.00  0.00    -0.228 OA 
BRANCH   9  10
HETATM   10  C   UNL     1     -10.923   5.870  71.560  1.00  0.00    -0.262 C  
HETATM   11  O   UNL     1     -12.002   5.832  72.133  1.00  0.00    -0.215 OA 
BRANCH  10  12
HETATM   12  C   UNL     1      -9.703   5.132  72.044  1.00  0.00    -0.205 C  
BRANCH  12  13
HETATM   13  C   UNL     1      -9.836   3.613  71.986  1.00  0.00    -0.174 C  
HETATM   14  O   UNL     1      -8.414   3.374  74.211  1.00  0.00    -0.083 OA 
HETATM   15  S   UNL     1      -9.611   2.881  73.577  1.00  0.00    -0.096 S  
HETATM   16  O   UNL     1     -10.869   3.580  74.314  1.00  0.00    -0.190 OA 
HETATM   17  O   UNL     1      -9.949   1.476  73.538  1.00  0.00    -0.078 OA 
BRANCH  13  18
HETATM   18  C   UNL     1      -8.807   3.032  71.068  1.00  0.00    -0.084 C  
HETATM   19  O   UNL     1      -7.695   2.668  71.426  1.00  0.00    -0.040 OA 
BRANCH  18  20
HETATM   20  O   UNL     1      -9.206   3.137  69.769  1.00  0.00    -0.122 OA 
BRANCH  20  21
HETATM   21  C   UNL     1      -8.284   3.825  68.905  1.00  0.00    -0.072 C  
HETATM   22  C   UNL     1      -7.787   2.992  67.709  1.00  0.00    -0.067 C  
HETATM   23  C   UNL     1      -8.949   2.453  66.844  1.00  0.00    -0.150 C  
HETATM   24  C   UNL     1      -6.769   3.780  66.852  1.00  0.00    -0.046 C  
HETATM   25  C   UNL     1      -9.785   3.515  66.144  1.00  0.00    -0.041 C  
BRANCH  24  26
HETATM   26  C   UNL     1      -5.531   4.236  67.630  1.00  0.00    -0.016 C  
BRANCH  26  27
HETATM   27  C   UNL     1      -5.339   5.750  67.542  1.00  0.00    -0.005 C  
HETATM   28  C   UNL     1      -6.372   6.479  68.390  1.00  0.00    -0.037 C  
ENDBRANCH  26  27
ENDBRANCH  24  26
ENDBRANCH  20  21
ENDBRANCH  18  20
ENDBRANCH  13  18
ENDBRANCH  12  13
ENDBRANCH  10  12
ENDBRANCH   9  10
ENDBRANCH   7   9
ENDBRANCH   3   4
ENDBRANCH   2   3
TORSDOF 11
ENDMDL
MODEL      369
REMARK 921   NORMALIZED FREE ENERGY PREDICTED BY IDOCK:   -1.69 KCAL/MOL
REMARK 922        TOTAL FREE ENERGY PREDICTED BY IDOCK:   -5.02 KCAL/MOL
REMARK 923 INTER-LIGAND FREE ENERGY PREDICTED BY IDOCK:   -4.88 KCAL/MOL
REMARK 924 INTRA-LIGAND FREE ENERGY PREDICTED BY IDOCK:   -0.14 KCAL/MOL
REMARK 927      BINDING AFFINITY PREDICTED BY RF-SCORE:    0.00 PKD
ROOT
HETATM    1  C   UNL     1     -11.645   4.925  73.114  1.00  0.00    -0.300 C  
HETATM    2  C   UNL     1     -10.161   4.926  73.455  1.00  0.00    -0.222 C  
ENDROOT
BRANCH   2   3
HETATM    3  C   UNL     1      -9.353   4.182  72.392  1.00  0.00    -0.164 C  
BRANCH   3   4
HETATM    4  C   UNL     1      -9.519   4.803  70.999  1.00  0.00    -0.227 C  
HETATM    5  C   UNL     1      -8.914   6.219  70.883  1.00  0.00    -0.147 C  
HETATM    6  C   UNL     1      -7.422   6.310  71.277  1.00  0.00    -0.093 C  
HETATM    7  C   UNL     1      -9.169   6.795  69.473  1.00  0.00    -0.147 C  
HETATM    8  C   UNL     1      -6.470   5.580  70.341  1.00  0.00    -0.031 C  
BRANCH   7   9
HETATM    9  O   UNL     1      -8.569   8.101  69.389  1.00  0.00    -0.132 OA 
BRANCH   9  10
HETATM   10  C   UNL     1      -7.947   8.392  68.217  1.00  0.00    -0.119 C  
HETATM   11  O   UNL     1      -6.824   8.864  68.117  1.00  0.00    -0.067 OA 
BRANCH  10  12
HETATM   12  C   UNL     1      -8.734   7.877  67.041  1.00  0.00    -0.132 C  
BRANCH  12  13
HETATM   13  C   UNL     1      -9.534   8.954  66.313  1.00  0.00    -0.239 C  
HETATM   14  O   UNL     1      -7.317   9.886  65.196  1.00  0.00    -0.120 OA 
HETATM   15  S   UNL     1      -8.680   9.539  64.881  1.00  0.00    -0.201 S  
HETATM   16  O   UNL     1      -8.647   8.143  64.067  1.00  0.00     0.025 OA 
HETATM   17  O   UNL     1      -9.541  10.395  64.096  1.00  0.00    -0.277 OA 
BRANCH  13  18
HETATM   18  C   UNL     1      -9.772  10.126  67.211  1.00  0.00    -0.167 C  
HETATM   19  O   UNL     1     -10.843  10.372  67.750  1.00  0.00    -0.254 OA 
BRANCH  18  20
HETATM   20  O   UNL     1      -8.703  10.972  67.195  1.00  0.00    -0.132 OA 
BRANCH  20  21
HETATM   21  C   UNL     1      -9.027  12.356  66.978  1.00  0.00    -0.209 C  
HETATM   22  C   UNL     1      -8.674  13.286  68.153  1.00  0.00    -0.179 C  
HETATM   23  C   UNL     1      -7.183  13.196  68.548  1.00  0.00    -0.110 C  
HETATM   24  C   UNL     1      -9.090  14.748  67.865  1.00  0.00    -0.183 C  
HETATM   25  C   UNL     1      -6.199  13.667  67.485  1.00  0.00    -0.051 C  
BRANCH  24  26
HETATM   26  C   UNL     1     -10.586  14.920  67.587  1.00  0.00    -0.264 C  
BRANCH  26  27
HETATM   27  C   UNL     1     -11.228  15.914  68.556  1.00  0.00    -0.362 C  
HETATM   28  C   UNL     1     -10.525  17.264  68.492  1.00  0.00    -0.375 C  
ENDBRANCH  26  27
ENDBRANCH  24  26
ENDBRANCH  20  21
ENDBRANCH  18  20
ENDBRANCH  13  18
ENDBRANCH  12  13
ENDBRANCH  10  12
ENDBRANCH   9  10
ENDBRANCH   7   9
ENDBRANCH   3   4
ENDBRANCH   2   3
TORSDOF 11
ENDMDL
MODEL      370
REMARK 921   NORMALIZED FREE ENERGY PREDICTED BY IDOCK:   -1.66 KCAL/MOL
REMARK 922        TOTAL FREE ENERGY PREDICTED BY IDOCK:   -4.97 KCAL/MOL
REMARK 923 INTER-LIGAND FREE ENERGY PREDICTED BY IDOCK:   -4.43 KCAL/MOL
REMARK 924 INTRA-LIGAND FREE ENERGY PREDICTED BY IDOCK:   -0.54 KCAL/MOL
REMARK 927      BINDING AFFINITY PREDICTED BY RF-SCORE:    0.00 PKD
ROOT
HETATM    1  C   UNL     1     -14.409   8.796  71.701  1.00  0.00    -0.387 C  
HETATM    2  C   UNL     1     -13.343   9.865  71.897  1.00  0.00    -0.524 C  
ENDROOT
BRANCH   2   3
HETATM    3  C   UNL     1     -11.940   9.263  71.814  1.00  0.00    -0.455 C  
BRANCH   3   4
HETATM    4  C   UNL     1     -11.970   7.770  71.465  1.00  0.00    -0.329 C  
HETATM    5  C   UNL     1     -10.718   7.295  70.696  1.00  0.00    -0.252 C  
HETATM    6  C   UNL     1      -9.380   7.598  71.407  1.00  0.00    -0.157 C  
HETATM    7  C   UNL     1     -10.848   5.799  70.336  1.00  0.00    -0.290 C  
HETATM    8  C   UNL     1      -9.156   6.828  72.701  1.00  0.00    -0.143 C  
BRANCH   7   9
HETATM    9  O   UNL     1      -9.656   5.381  69.646  1.00  0.00    -0.141 OA 
BRANCH   9  10
HETATM   10  C   UNL     1      -9.833   4.459  68.664  1.00  0.00    -0.071 C  
HETATM   11  O   UNL     1      -9.877   3.250  68.837  1.00  0.00     0.011 OA 
BRANCH  10  12
HETATM   12  C   UNL     1     -10.168   5.119  67.353  1.00  0.00    -0.224 C  
BRANCH  12  13
HETATM   13  C   UNL     1      -8.970   5.290  66.423  1.00  0.00    -0.128 C  
HETATM   14  O   UNL     1      -8.818   2.665  66.085  1.00  0.00    -0.127 OA 
HETATM   15  S   UNL     1      -8.779   3.903  65.347  1.00  0.00    -0.120 S  
HETATM   16  O   UNL     1     -10.188   4.043  64.566  1.00  0.00    -0.213 OA 
HETATM   17  O   UNL     1      -7.779   4.179  64.341  1.00  0.00    -0.081 OA 
BRANCH  13  18
HETATM   18  C   UNL     1      -7.709   5.429  67.215  1.00  0.00    -0.096 C  
HETATM   19  O   UNL     1      -7.040   4.485  67.613  1.00  0.00    -0.062 OA 
BRANCH  18  20
HETATM   20  O   UNL     1      -7.512   6.726  67.586  1.00  0.00    -0.093 OA 
BRANCH  20  21
HETATM   21  C   UNL     1      -6.469   7.410  66.870  1.00  0.00    -0.056 C  
HETATM   22  C   UNL     1      -6.892   8.759  66.260  1.00  0.00    -0.074 C  
HETATM   23  C   UNL     1      -7.467   9.728  67.316  1.00  0.00    -0.088 C  
HETATM   24  C   UNL     1      -5.734   9.413  65.470  1.00  0.00    -0.053 C  
HETATM   25  C   UNL     1      -6.485  10.178  68.389  1.00  0.00    -0.053 C  
BRANCH  24  26
HETATM   26  C   UNL     1      -5.202   8.547  64.324  1.00  0.00    -0.044 C  
BRANCH  26  27
HETATM   27  C   UNL     1      -5.125   9.332  63.014  1.00  0.00    -0.067 C  
HETATM   28  C   UNL     1      -6.106  10.497  63.021  1.00  0.00    -0.115 C  
ENDBRANCH  26  27
ENDBRANCH  24  26
ENDBRANCH  20  21
ENDBRANCH  18  20
ENDBRANCH  13  18
ENDBRANCH  12  13
ENDBRANCH  10  12
ENDBRANCH   9  10
ENDBRANCH   7   9
ENDBRANCH   3   4
ENDBRANCH   2   3
TORSDOF 11
ENDMDL
MODEL      371
REMARK 921   NORMALIZED FREE ENERGY PREDICTED BY IDOCK:   -1.61 KCAL/MOL
REMARK 922        TOTAL FREE ENERGY PREDICTED BY IDOCK:   -4.90 KCAL/MOL
REMARK 923 INTER-LIGAND FREE ENERGY PREDICTED BY IDOCK:   -5.46 KCAL/MOL
REMARK 924 INTRA-LIGAND FREE ENERGY PREDICTED BY IDOCK:    0.56 KCAL/MOL
REMARK 927      BINDING AFFINITY PREDICTED BY RF-SCORE:    0.00 PKD
ROOT
HETATM    1  C   UNL     1     -11.729  14.342  67.089  1.00  0.00    -0.424 C  
HETATM    2  C   UNL     1     -11.342  14.695  68.519  1.00  0.00    -0.305 C  
ENDROOT
BRANCH   2   3
HETATM    3  C   UNL     1     -11.557  13.506  69.454  1.00  0.00    -0.369 C  
BRANCH   3   4
HETATM    4  C   UNL     1     -11.690  12.183  68.690  1.00  0.00    -0.382 C  
HETATM    5  C   UNL     1     -11.098  10.974  69.447  1.00  0.00    -0.320 C  
HETATM    6  C   UNL     1     -11.671  10.770  70.868  1.00  0.00    -0.334 C  
HETATM    7  C   UNL     1     -11.221   9.695  68.592  1.00  0.00     0.046 C  
HETATM    8  C   UNL     1     -13.138  10.368  70.913  1.00  0.00    -0.412 C  
BRANCH   7   9
HETATM    9  O   UNL     1     -10.688   8.585  69.336  1.00  0.00    -0.222 OA 
BRANCH   9  10
HETATM   10  C   UNL     1     -10.380   7.478  68.610  1.00  0.00    -0.200 C  
HETATM   11  O   UNL     1      -9.506   7.418  67.758  1.00  0.00    -0.138 OA 
BRANCH  10  12
HETATM   12  C   UNL     1     -11.119   6.270  69.122  1.00  0.00    -0.457 C  
BRANCH  12  13
HETATM   13  C   UNL     1     -10.287   5.382  70.043  1.00  0.00    -0.296 C  
HETATM   14  O   UNL     1      -9.321   7.520  71.279  1.00  0.00    -0.149 OA 
HETATM   15  S   UNL     1      -9.872   6.214  71.545  1.00  0.00    -0.167 S  
HETATM   16  O   UNL     1     -11.378   6.429  72.093  1.00  0.00    -0.261 OA 
HETATM   17  O   UNL     1      -9.274   5.292  72.483  1.00  0.00    -0.136 OA 
BRANCH  13  18
HETATM   18  C   UNL     1      -9.009   4.985  69.375  1.00  0.00    -0.092 C  
HETATM   19  O   UNL     1      -7.941   5.558  69.540  1.00  0.00    -0.091 OA 
BRANCH  18  20
HETATM   20  O   UNL     1      -9.235   4.030  68.430  1.00  0.00    -0.127 OA 
BRANCH  20  21
HETATM   21  C   UNL     1      -8.874   4.405  67.089  1.00  0.00    -0.114 C  
HETATM   22  C   UNL     1      -7.450   3.994  66.673  1.00  0.00    -0.084 C  
HETATM   23  C   UNL     1      -7.205   2.477  66.832  1.00  0.00    -0.057 C  
HETATM   24  C   UNL     1      -7.118   4.468  65.239  1.00  0.00    -0.063 C  
HETATM   25  C   UNL     1      -8.050   1.584  65.933  1.00  0.00    -0.079 C  
BRANCH  24  26
HETATM   26  C   UNL     1      -7.223   5.985  65.051  1.00  0.00    -0.066 C  
BRANCH  26  27
HETATM   27  C   UNL     1      -8.039   6.342  63.808  1.00  0.00    -0.050 C  
HETATM   28  C   UNL     1      -8.614   5.090  63.157  1.00  0.00    -0.112 C  
ENDBRANCH  26  27
ENDBRANCH  24  26
ENDBRANCH  20  21
ENDBRANCH  18  20
ENDBRANCH  13  18
ENDBRANCH  12  13
ENDBRANCH  10  12
ENDBRANCH   9  10
ENDBRANCH   7   9
ENDBRANCH   3   4
ENDBRANCH   2   3
TORSDOF 11
ENDMDL
MODEL      372
REMARK 921   NORMALIZED FREE ENERGY PREDICTED BY IDOCK:   -1.61 KCAL/MOL
REMARK 922        TOTAL FREE ENERGY PREDICTED BY IDOCK:   -4.89 KCAL/MOL
REMARK 923 INTER-LIGAND FREE ENERGY PREDICTED BY IDOCK:   -3.97 KCAL/MOL
REMARK 924 INTRA-LIGAND FREE ENERGY PREDICTED BY IDOCK:   -0.92 KCAL/MOL
REMARK 927      BINDING AFFINITY PREDICTED BY RF-SCORE:    0.00 PKD
ROOT
HETATM    1  C   UNL     1     -14.327   8.433  71.807  1.00  0.00    -0.558 C  
HETATM    2  C   UNL     1     -13.088   9.309  71.938  1.00  0.00    -0.490 C  
ENDROOT
BRANCH   2   3
HETATM    3  C   UNL     1     -11.875   8.482  72.364  1.00  0.00    -0.437 C  
BRANCH   3   4
HETATM    4  C   UNL     1     -12.027   7.000  71.999  1.00  0.00    -0.334 C  
HETATM    5  C   UNL     1     -10.678   6.262  71.854  1.00  0.00    -0.271 C  
HETATM    6  C   UNL     1      -9.760   6.363  73.094  1.00  0.00    -0.169 C  
HETATM    7  C   UNL     1     -10.913   4.796  71.435  1.00  0.00     0.378 C  
HETATM    8  C   UNL     1     -10.278   5.645  74.332  1.00  0.00    -0.295 C  
BRANCH   7   9
HETATM    9  O   UNL     1      -9.640   4.130  71.336  1.00  0.00    -0.146 OA 
BRANCH   9  10
HETATM   10  C   UNL     1      -9.506   3.261  70.301  1.00  0.00    -0.164 C  
HETATM   11  O   UNL     1      -9.652   2.050  70.378  1.00  0.00    -0.112 OA 
BRANCH  10  12
HETATM   12  C   UNL     1      -9.349   3.992  68.994  1.00  0.00    -0.237 C  
BRANCH  12  13
HETATM   13  C   UNL     1      -7.899   4.289  68.622  1.00  0.00    -0.073 C  
HETATM   14  O   UNL     1      -7.451   1.713  68.188  1.00  0.00    -0.046 OA 
HETATM   15  S   UNL     1      -7.213   3.013  67.613  1.00  0.00    -0.054 S  
HETATM   16  O   UNL     1      -8.215   3.174  66.354  1.00  0.00    -0.087 OA 
HETATM   17  O   UNL     1      -5.922   3.414  67.101  1.00  0.00    -0.023 OA 
BRANCH  13  18
HETATM   18  C   UNL     1      -7.055   4.399  69.852  1.00  0.00    -0.046 C  
HETATM   19  O   UNL     1      -6.359   3.494  70.292  1.00  0.00    -0.026 OA 
BRANCH  18  20
HETATM   20  O   UNL     1      -7.309   5.567  70.509  1.00  0.00    -0.070 OA 
BRANCH  20  21
HETATM   21  C   UNL     1      -6.549   6.698  70.052  1.00  0.00    -0.048 C  
HETATM   22  C   UNL     1      -7.324   7.658  69.130  1.00  0.00    -0.089 C  
HETATM   23  C   UNL     1      -8.622   8.181  69.783  1.00  0.00    -0.133 C  
HETATM   24  C   UNL     1      -6.430   8.823  68.644  1.00  0.00    -0.054 C  
HETATM   25  C   UNL     1      -8.424   9.047  71.020  1.00  0.00    -0.254 C  
BRANCH  24  26
HETATM   26  C   UNL     1      -5.185   8.369  67.878  1.00  0.00    -0.034 C  
BRANCH  26  27
HETATM   27  C   UNL     1      -5.307   8.659  66.382  1.00  0.00    -0.031 C  
HETATM   28  C   UNL     1      -6.122   9.922  66.139  1.00  0.00    -0.067 C  
ENDBRANCH  26  27
ENDBRANCH  24  26
ENDBRANCH  20  21
ENDBRANCH  18  20
ENDBRANCH  13  18
ENDBRANCH  12  13
ENDBRANCH  10  12
ENDBRANCH   9  10
ENDBRANCH   7   9
ENDBRANCH   3   4
ENDBRANCH   2   3
TORSDOF 11
ENDMDL
MODEL      373
REMARK 921   NORMALIZED FREE ENERGY PREDICTED BY IDOCK:   -1.56 KCAL/MOL
REMARK 922        TOTAL FREE ENERGY PREDICTED BY IDOCK:   -4.82 KCAL/MOL
REMARK 923 INTER-LIGAND FREE ENERGY PREDICTED BY IDOCK:   -5.15 KCAL/MOL
REMARK 924 INTRA-LIGAND FREE ENERGY PREDICTED BY IDOCK:    0.34 KCAL/MOL
REMARK 927      BINDING AFFINITY PREDICTED BY RF-SCORE:    0.00 PKD
ROOT
HETATM    1  C   UNL     1     -11.617   4.700  73.160  1.00  0.00    -0.261 C  
HETATM    2  C   UNL     1     -10.217   4.144  73.379  1.00  0.00    -0.215 C  
ENDROOT
BRANCH   2   3
HETATM    3  C   UNL     1      -9.861   3.116  72.305  1.00  0.00    -0.233 C  
BRANCH   3   4
HETATM    4  C   UNL     1      -9.735   3.751  70.915  1.00  0.00    -0.248 C  
HETATM    5  C   UNL     1      -9.078   5.148  70.935  1.00  0.00    -0.175 C  
HETATM    6  C   UNL     1      -7.689   5.190  71.612  1.00  0.00    -0.107 C  
HETATM    7  C   UNL     1      -9.037   5.741  69.510  1.00  0.00    -0.130 C  
HETATM    8  C   UNL     1      -6.594   4.438  70.870  1.00  0.00    -0.031 C  
BRANCH   7   9
HETATM    9  O   UNL     1      -8.395   7.028  69.560  1.00  0.00    -0.130 OA 
BRANCH   9  10
HETATM   10  C   UNL     1      -7.560   7.314  68.526  1.00  0.00    -0.118 C  
HETATM   11  O   UNL     1      -6.536   7.974  68.614  1.00  0.00    -0.050 OA 
BRANCH  10  12
HETATM   12  C   UNL     1      -7.946   6.547  67.289  1.00  0.00    -0.113 C  
BRANCH  12  13
HETATM   13  C   UNL     1      -8.751   7.363  66.282  1.00  0.00    -0.149 C  
HETATM   14  O   UNL     1      -6.804   9.155  66.132  1.00  0.00    -0.082 OA 
HETATM   15  S   UNL     1      -7.708   8.398  65.302  1.00  0.00    -0.104 S  
HETATM   16  O   UNL     1      -6.847   7.227  64.595  1.00  0.00    -0.048 OA 
HETATM   17  O   UNL     1      -8.461   8.995  64.223  1.00  0.00    -0.176 OA 
BRANCH  13  18
HETATM   18  C   UNL     1      -9.733   8.243  66.987  1.00  0.00    -0.211 C  
HETATM   19  O   UNL     1     -10.687   7.829  67.633  1.00  0.00    -0.225 OA 
BRANCH  18  20
HETATM   20  O   UNL     1      -9.530   9.551  66.661  1.00  0.00    -0.152 OA 
BRANCH  20  21
HETATM   21  C   UNL     1     -10.492  10.470  67.208  1.00  0.00    -0.250 C  
HETATM   22  C   UNL     1      -9.966  11.323  68.377  1.00  0.00    -0.201 C  
HETATM   23  C   UNL     1      -8.698  12.121  67.999  1.00  0.00    -0.180 C  
HETATM   24  C   UNL     1     -11.066  12.253  68.940  1.00  0.00    -0.291 C  
HETATM   25  C   UNL     1      -8.892  13.176  66.919  1.00  0.00    -0.184 C  
BRANCH  24  26
HETATM   26  C   UNL     1     -12.304  11.507  69.448  1.00  0.00    -0.157 C  
BRANCH  26  27
HETATM   27  C   UNL     1     -12.022  10.776  70.761  1.00  0.00    -0.464 C  
HETATM   28  C   UNL     1     -13.261  10.037  71.248  1.00  0.00    -0.469 C  
ENDBRANCH  26  27
ENDBRANCH  24  26
ENDBRANCH  20  21
ENDBRANCH  18  20
ENDBRANCH  13  18
ENDBRANCH  12  13
ENDBRANCH  10  12
ENDBRANCH   9  10
ENDBRANCH   7   9
ENDBRANCH   3   4
ENDBRANCH   2   3
TORSDOF 11
ENDMDL
MODEL      374
REMARK 921   NORMALIZED FREE ENERGY PREDICTED BY IDOCK:   -1.56 KCAL/MOL
REMARK 922        TOTAL FREE ENERGY PREDICTED BY IDOCK:   -4.81 KCAL/MOL
REMARK 923 INTER-LIGAND FREE ENERGY PREDICTED BY IDOCK:   -3.92 KCAL/MOL
REMARK 924 INTRA-LIGAND FREE ENERGY PREDICTED BY IDOCK:   -0.89 KCAL/MOL
REMARK 927      BINDING AFFINITY PREDICTED BY RF-SCORE:    0.00 PKD
ROOT
HETATM    1  C   UNL     1     -11.328   2.899  73.451  1.00  0.00    -0.221 C  
HETATM    2  C   UNL     1     -10.268   2.346  74.394  1.00  0.00    -0.181 C  
ENDROOT
BRANCH   2   3
HETATM    3  C   UNL     1      -9.067   1.810  73.616  1.00  0.00    -0.068 C  
BRANCH   3   4
HETATM    4  C   UNL     1      -8.490   2.854  72.651  1.00  0.00    -0.072 C  
HETATM    5  C   UNL     1      -8.022   4.147  73.354  1.00  0.00    -0.089 C  
HETATM    6  C   UNL     1      -6.997   3.920  74.489  1.00  0.00    -0.059 C  
HETATM    7  C   UNL     1      -7.506   5.164  72.313  1.00  0.00    -0.094 C  
HETATM    8  C   UNL     1      -5.639   3.408  74.030  1.00  0.00     0.000 C  
BRANCH   7   9
HETATM    9  O   UNL     1      -7.052   6.344  73.002  1.00  0.00    -0.081 OA 
BRANCH   9  10
HETATM   10  C   UNL     1      -7.972   7.334  73.149  1.00  0.00    -0.101 C  
HETATM   11  O   UNL     1      -7.943   8.194  74.017  1.00  0.00    -0.200 OA 
BRANCH  10  12
HETATM   12  C   UNL     1      -8.928   7.364  71.986  1.00  0.00    -0.143 C  
BRANCH  12  13
HETATM   13  C   UNL     1      -9.346   8.771  71.567  1.00  0.00    -0.267 C  
HETATM   14  O   UNL     1     -11.614   7.831  70.567  1.00  0.00    -0.253 OA 
HETATM   15  S   UNL     1     -11.098   8.900  71.385  1.00  0.00    -0.335 S  
HETATM   16  O   UNL     1     -11.497   8.571  72.917  1.00  0.00    -0.198 OA 
HETATM   17  O   UNL     1     -11.485  10.280  71.198  1.00  0.00    -0.341 OA 
BRANCH  13  18
HETATM   18  C   UNL     1      -8.724   9.133  70.255  1.00  0.00    -0.200 C  
HETATM   19  O   UNL     1      -8.014  10.113  70.079  1.00  0.00    -0.172 OA 
BRANCH  18  20
HETATM   20  O   UNL     1      -9.204   8.337  69.258  1.00  0.00    -0.150 OA 
BRANCH  20  21
HETATM   21  C   UNL     1      -8.418   7.163  68.988  1.00  0.00    -0.129 C  
HETATM   22  C   UNL     1      -9.224   5.965  68.453  1.00  0.00    -0.118 C  
HETATM   23  C   UNL     1     -10.023   6.315  67.177  1.00  0.00    -0.189 C  
HETATM   24  C   UNL     1      -8.322   4.729  68.228  1.00  0.00    -0.091 C  
HETATM   25  C   UNL     1      -9.180   6.678  65.962  1.00  0.00    -0.068 C  
BRANCH  24  26
HETATM   26  C   UNL     1      -7.596   4.257  69.491  1.00  0.00    -0.054 C  
BRANCH  26  27
HETATM   27  C   UNL     1      -6.202   3.717  69.171  1.00  0.00    -0.028 C  
HETATM   28  C   UNL     1      -5.806   2.620  70.150  1.00  0.00    -0.018 C  
ENDBRANCH  26  27
ENDBRANCH  24  26
ENDBRANCH  20  21
ENDBRANCH  18  20
ENDBRANCH  13  18
ENDBRANCH  12  13
ENDBRANCH  10  12
ENDBRANCH   9  10
ENDBRANCH   7   9
ENDBRANCH   3   4
ENDBRANCH   2   3
TORSDOF 11
ENDMDL
MODEL      375
REMARK 921   NORMALIZED FREE ENERGY PREDICTED BY IDOCK:   -1.56 KCAL/MOL
REMARK 922        TOTAL FREE ENERGY PREDICTED BY IDOCK:   -4.80 KCAL/MOL
REMARK 923 INTER-LIGAND FREE ENERGY PREDICTED BY IDOCK:   -5.42 KCAL/MOL
REMARK 924 INTRA-LIGAND FREE ENERGY PREDICTED BY IDOCK:    0.62 KCAL/MOL
REMARK 927      BINDING AFFINITY PREDICTED BY RF-SCORE:    0.00 PKD
ROOT
HETATM    1  C   UNL     1     -12.692  15.684  71.231  1.00  0.00    -0.537 C  
HETATM    2  C   UNL     1     -12.238  14.280  71.603  1.00  0.00    -0.351 C  
ENDROOT
BRANCH   2   3
HETATM    3  C   UNL     1     -13.253  13.235  71.139  1.00  0.00    -0.145 C  
BRANCH   3   4
HETATM    4  C   UNL     1     -12.603  12.129  70.299  1.00  0.00    -0.040 C  
HETATM    5  C   UNL     1     -12.059  10.956  71.143  1.00  0.00    -0.386 C  
HETATM    6  C   UNL     1     -13.105  10.302  72.075  1.00  0.00    -0.529 C  
HETATM    7  C   UNL     1     -11.375   9.914  70.232  1.00  0.00    -0.291 C  
HETATM    8  C   UNL     1     -14.225   9.563  71.358  1.00  0.00     0.078 C  
BRANCH   7   9
HETATM    9  O   UNL     1     -10.905   8.823  71.045  1.00  0.00    -0.233 OA 
BRANCH   9  10
HETATM   10  C   UNL     1     -10.635   7.666  70.385  1.00  0.00    -0.230 C  
HETATM   11  O   UNL     1      -9.992   7.584  69.349  1.00  0.00    -0.172 OA 
BRANCH  10  12
HETATM   12  C   UNL     1     -11.056   6.468  71.193  1.00  0.00    -0.332 C  
BRANCH  12  13
HETATM   13  C   UNL     1      -9.903   5.764  71.903  1.00  0.00    -0.164 C  
HETATM   14  O   UNL     1      -8.860   8.103  72.589  1.00  0.00    -0.177 OA 
HETATM   15  S   UNL     1      -9.165   6.801  73.127  1.00  0.00    -0.131 S  
HETATM   16  O   UNL     1     -10.462   6.965  74.078  1.00  0.00    -0.374 OA 
HETATM   17  O   UNL     1      -8.224   6.047  73.925  1.00  0.00    -0.111 OA 
BRANCH  13  18
HETATM   18  C   UNL     1      -8.837   5.388  70.923  1.00  0.00    -0.138 C  
HETATM   19  O   UNL     1      -7.893   6.108  70.625  1.00  0.00    -0.102 OA 
BRANCH  18  20
HETATM   20  O   UNL     1      -9.160   4.231  70.279  1.00  0.00    -0.085 OA 
BRANCH  20  21
HETATM   21  C   UNL     1      -9.448   4.376  68.877  1.00  0.00    -0.165 C  
HETATM   22  C   UNL     1      -8.204   4.395  67.969  1.00  0.00    -0.094 C  
HETATM   23  C   UNL     1      -7.322   3.140  68.153  1.00  0.00    -0.050 C  
HETATM   24  C   UNL     1      -8.589   4.597  66.485  1.00  0.00    -0.112 C  
HETATM   25  C   UNL     1      -7.972   1.823  67.747  1.00  0.00    -0.060 C  
BRANCH  24  26
HETATM   26  C   UNL     1      -9.361   5.893  66.219  1.00  0.00    -0.168 C  
BRANCH  26  27
HETATM   27  C   UNL     1      -8.484   6.940  65.533  1.00  0.00    -0.122 C  
HETATM   28  C   UNL     1      -8.885   8.347  65.958  1.00  0.00    -0.202 C  
ENDBRANCH  26  27
ENDBRANCH  24  26
ENDBRANCH  20  21
ENDBRANCH  18  20
ENDBRANCH  13  18
ENDBRANCH  12  13
ENDBRANCH  10  12
ENDBRANCH   9  10
ENDBRANCH   7   9
ENDBRANCH   3   4
ENDBRANCH   2   3
TORSDOF 11
ENDMDL
MODEL      376
REMARK 921   NORMALIZED FREE ENERGY PREDICTED BY IDOCK:   -1.54 KCAL/MOL
REMARK 922        TOTAL FREE ENERGY PREDICTED BY IDOCK:   -4.78 KCAL/MOL
REMARK 923 INTER-LIGAND FREE ENERGY PREDICTED BY IDOCK:   -6.07 KCAL/MOL
REMARK 924 INTRA-LIGAND FREE ENERGY PREDICTED BY IDOCK:    1.29 KCAL/MOL
REMARK 927      BINDING AFFINITY PREDICTED BY RF-SCORE:    0.00 PKD
ROOT
HETATM    1  C   UNL     1     -10.399  19.628  66.085  1.00  0.00    -0.627 C  
HETATM    2  C   UNL     1     -10.293  19.995  67.558  1.00  0.00    -0.519 C  
ENDROOT
BRANCH   2   3
HETATM    3  C   UNL     1      -9.949  18.770  68.405  1.00  0.00    -0.441 C  
BRANCH   3   4
HETATM    4  C   UNL     1     -10.572  17.485  67.845  1.00  0.00    -0.390 C  
HETATM    5  C   UNL     1      -9.872  16.199  68.337  1.00  0.00    -0.222 C  
HETATM    6  C   UNL     1      -9.792  16.066  69.875  1.00  0.00     0.003 C  
HETATM    7  C   UNL     1     -10.520  14.957  67.689  1.00  0.00    -0.249 C  
HETATM    8  C   UNL     1     -11.132  15.873  70.570  1.00  0.00    -0.381 C  
BRANCH   7   9
HETATM    9  O   UNL     1      -9.865  13.776  68.189  1.00  0.00    -0.225 OA 
BRANCH   9  10
HETATM   10  C   UNL     1     -10.517  12.603  67.978  1.00  0.00    -0.224 C  
HETATM   11  O   UNL     1     -11.511  12.469  67.279  1.00  0.00    -0.310 OA 
BRANCH  10  12
HETATM   12  C   UNL     1      -9.749  11.443  68.553  1.00  0.00    -0.199 C  
BRANCH  12  13
HETATM   13  C   UNL     1      -9.230  10.464  67.503  1.00  0.00    -0.145 C  
HETATM   14  O   UNL     1      -9.349  12.350  65.644  1.00  0.00    -0.107 OA 
HETATM   15  S   UNL     1      -8.486  11.307  66.141  1.00  0.00    -0.089 S  
HETATM   16  O   UNL     1      -7.289  12.022  66.960  1.00  0.00    -0.142 OA 
HETATM   17  O   UNL     1      -7.818  10.367  65.270  1.00  0.00    -0.150 OA 
BRANCH  13  18
HETATM   18  C   UNL     1     -10.350   9.630  66.966  1.00  0.00    -0.248 C  
HETATM   19  O   UNL     1     -11.518   9.747  67.308  1.00  0.00     0.136 OA 
BRANCH  18  20
HETATM   20  O   UNL     1      -9.868   8.615  66.195  1.00  0.00    -0.262 OA 
BRANCH  20  21
HETATM   21  C   UNL     1      -9.552   7.407  66.909  1.00  0.00    -0.187 C  
HETATM   22  C   UNL     1      -8.660   6.421  66.133  1.00  0.00    -0.144 C  
HETATM   23  C   UNL     1      -7.335   7.067  65.668  1.00  0.00    -0.079 C  
HETATM   24  C   UNL     1      -8.400   5.131  66.944  1.00  0.00    -0.107 C  
HETATM   25  C   UNL     1      -6.398   7.505  66.786  1.00  0.00    -0.049 C  
BRANCH  24  26
HETATM   26  C   UNL     1      -9.677   4.377  67.330  1.00  0.00    -0.222 C  
BRANCH  26  27
HETATM   27  C   UNL     1      -9.439   3.435  68.511  1.00  0.00    -0.209 C  
HETATM   28  C   UNL     1      -9.741   4.133  69.830  1.00  0.00    -0.280 C  
ENDBRANCH  26  27
ENDBRANCH  24  26
ENDBRANCH  20  21
ENDBRANCH  18  20
ENDBRANCH  13  18
ENDBRANCH  12  13
ENDBRANCH  10  12
ENDBRANCH   9  10
ENDBRANCH   7   9
ENDBRANCH   3   4
ENDBRANCH   2   3
TORSDOF 11
ENDMDL
MODEL      377
REMARK 921   NORMALIZED FREE ENERGY PREDICTED BY IDOCK:   -1.53 KCAL/MOL
REMARK 922        TOTAL FREE ENERGY PREDICTED BY IDOCK:   -4.76 KCAL/MOL
REMARK 923 INTER-LIGAND FREE ENERGY PREDICTED BY IDOCK:   -5.94 KCAL/MOL
REMARK 924 INTRA-LIGAND FREE ENERGY PREDICTED BY IDOCK:    1.19 KCAL/MOL
REMARK 927      BINDING AFFINITY PREDICTED BY RF-SCORE:    0.00 PKD
ROOT
HETATM    1  C   UNL     1     -11.607   4.761  73.011  1.00  0.00    -0.252 C  
HETATM    2  C   UNL     1     -10.128   4.465  73.220  1.00  0.00    -0.201 C  
ENDROOT
BRANCH   2   3
HETATM    3  C   UNL     1      -9.545   3.716  72.022  1.00  0.00    -0.212 C  
BRANCH   3   4
HETATM    4  C   UNL     1      -9.783   4.459  70.702  1.00  0.00    -0.283 C  
HETATM    5  C   UNL     1      -9.219   5.897  70.697  1.00  0.00    -0.167 C  
HETATM    6  C   UNL     1      -7.715   5.992  71.040  1.00  0.00    -0.102 C  
HETATM    7  C   UNL     1      -9.546   6.594  69.359  1.00  0.00    -0.145 C  
HETATM    8  C   UNL     1      -6.784   5.381  70.003  1.00  0.00    -0.047 C  
BRANCH   7   9
HETATM    9  O   UNL     1      -8.983   7.919  69.375  1.00  0.00    -0.144 OA 
BRANCH   9  10
HETATM   10  C   UNL     1      -8.184   8.235  68.323  1.00  0.00    -0.128 C  
HETATM   11  O   UNL     1      -7.085   8.762  68.410  1.00  0.00    -0.074 OA 
BRANCH  10  12
HETATM   12  C   UNL     1      -8.732   7.675  67.037  1.00  0.00    -0.127 C  
BRANCH  12  13
HETATM   13  C   UNL     1      -9.138   8.741  66.022  1.00  0.00    -0.213 C  
HETATM   14  O   UNL     1      -6.706   9.793  66.110  1.00  0.00    -0.080 OA 
HETATM   15  S   UNL     1      -7.734   9.401  65.178  1.00  0.00    -0.113 S  
HETATM   16  O   UNL     1      -7.247   8.032  64.470  1.00  0.00    -0.077 OA 
HETATM   17  O   UNL     1      -8.155  10.245  64.083  1.00  0.00    -0.157 OA 
BRANCH  13  18
HETATM   18  C   UNL     1      -9.834   9.875  66.704  1.00  0.00    -0.207 C  
HETATM   19  O   UNL     1      -9.929   9.993  67.918  1.00  0.00    -0.147 OA 
BRANCH  18  20
HETATM   20  O   UNL     1     -10.498  10.648  65.798  1.00  0.00    -0.232 OA 
BRANCH  20  21
HETATM   21  C   UNL     1     -11.324  11.678  66.369  1.00  0.00    -0.245 C  
HETATM   22  C   UNL     1     -10.830  13.112  66.106  1.00  0.00    -0.293 C  
HETATM   23  C   UNL     1     -10.660  13.409  64.600  1.00  0.00    -0.431 C  
HETATM   24  C   UNL     1     -11.741  14.160  66.786  1.00  0.00    -0.432 C  
HETATM   25  C   UNL     1     -11.945  13.380  63.783  1.00  0.00    -0.517 C  
BRANCH  24  26
HETATM   26  C   UNL     1     -11.851  13.991  68.304  1.00  0.00    -0.406 C  
BRANCH  26  27
HETATM   27  C   UNL     1     -10.663  14.628  69.028  1.00  0.00    -0.253 C  
HETATM   28  C   UNL     1     -10.442  16.058  68.554  1.00  0.00    -0.258 C  
ENDBRANCH  26  27
ENDBRANCH  24  26
ENDBRANCH  20  21
ENDBRANCH  18  20
ENDBRANCH  13  18
ENDBRANCH  12  13
ENDBRANCH  10  12
ENDBRANCH   9  10
ENDBRANCH   7   9
ENDBRANCH   3   4
ENDBRANCH   2   3
TORSDOF 11
ENDMDL
MODEL      378
REMARK 921   NORMALIZED FREE ENERGY PREDICTED BY IDOCK:   -1.50 KCAL/MOL
REMARK 922        TOTAL FREE ENERGY PREDICTED BY IDOCK:   -4.72 KCAL/MOL
REMARK 923 INTER-LIGAND FREE ENERGY PREDICTED BY IDOCK:   -5.19 KCAL/MOL
REMARK 924 INTRA-LIGAND FREE ENERGY PREDICTED BY IDOCK:    0.47 KCAL/MOL
REMARK 927      BINDING AFFINITY PREDICTED BY RF-SCORE:    0.00 PKD
ROOT
HETATM    1  C   UNL     1     -12.315  15.667  70.957  1.00  0.00    -0.481 C  
HETATM    2  C   UNL     1     -12.183  14.554  71.988  1.00  0.00    -0.329 C  
ENDROOT
BRANCH   2   3
HETATM    3  C   UNL     1     -13.118  13.390  71.660  1.00  0.00    -0.463 C  
BRANCH   3   4
HETATM    4  C   UNL     1     -12.605  12.549  70.485  1.00  0.00    -0.177 C  
HETATM    5  C   UNL     1     -11.930  11.230  70.923  1.00  0.00    -0.319 C  
HETATM    6  C   UNL     1     -12.813  10.328  71.815  1.00  0.00    -0.565 C  
HETATM    7  C   UNL     1     -11.395  10.469  69.692  1.00  0.00    -0.281 C  
HETATM    8  C   UNL     1     -14.030   9.737  71.118  1.00  0.00     0.082 C  
BRANCH   7   9
HETATM    9  O   UNL     1     -10.798   9.235  70.131  1.00  0.00    -0.224 OA 
BRANCH   9  10
HETATM   10  C   UNL     1     -10.660   8.273  69.181  1.00  0.00    -0.165 C  
HETATM   11  O   UNL     1     -10.490   8.484  67.989  1.00  0.00    -0.221 OA 
BRANCH  10  12
HETATM   12  C   UNL     1     -10.540   6.907  69.803  1.00  0.00    -0.261 C  
BRANCH  12  13
HETATM   13  C   UNL     1      -9.108   6.386  69.879  1.00  0.00    -0.142 C  
HETATM   14  O   UNL     1      -8.376   8.513  71.281  1.00  0.00    -0.127 OA 
HETATM   15  S   UNL     1      -8.237   7.079  71.250  1.00  0.00    -0.113 S  
HETATM   16  O   UNL     1      -9.172   6.478  72.423  1.00  0.00    -0.138 OA 
HETATM   17  O   UNL     1      -6.964   6.416  71.426  1.00  0.00    -0.072 OA 
BRANCH  13  18
HETATM   18  C   UNL     1      -8.355   6.740  68.635  1.00  0.00    -0.120 C  
HETATM   19  O   UNL     1      -7.688   7.757  68.502  1.00  0.00    -0.113 OA 
BRANCH  18  20
HETATM   20  O   UNL     1      -8.663   5.879  67.624  1.00  0.00    -0.107 OA 
BRANCH  20  21
HETATM   21  C   UNL     1      -8.630   6.454  66.306  1.00  0.00    -0.140 C  
HETATM   22  C   UNL     1      -7.337   6.172  65.519  1.00  0.00    -0.080 C  
HETATM   23  C   UNL     1      -7.042   4.661  65.393  1.00  0.00    -0.063 C  
HETATM   24  C   UNL     1      -7.356   6.857  64.133  1.00  0.00    -0.086 C  
HETATM   25  C   UNL     1      -8.063   3.864  64.591  1.00  0.00    -0.090 C  
BRANCH  24  26
HETATM   26  C   UNL     1      -7.522   8.379  64.198  1.00  0.00    -0.114 C  
BRANCH  26  27
HETATM   27  C   UNL     1      -7.369   9.021  62.819  1.00  0.00    -0.098 C  
HETATM   28  C   UNL     1      -8.525   9.970  62.531  1.00  0.00    -0.179 C  
ENDBRANCH  26  27
ENDBRANCH  24  26
ENDBRANCH  20  21
ENDBRANCH  18  20
ENDBRANCH  13  18
ENDBRANCH  12  13
ENDBRANCH  10  12
ENDBRANCH   9  10
ENDBRANCH   7   9
ENDBRANCH   3   4
ENDBRANCH   2   3
TORSDOF 11
ENDMDL
MODEL      379
REMARK 921   NORMALIZED FREE ENERGY PREDICTED BY IDOCK:   -1.49 KCAL/MOL
REMARK 922        TOTAL FREE ENERGY PREDICTED BY IDOCK:   -4.70 KCAL/MOL
REMARK 923 INTER-LIGAND FREE ENERGY PREDICTED BY IDOCK:   -4.20 KCAL/MOL
REMARK 924 INTRA-LIGAND FREE ENERGY PREDICTED BY IDOCK:   -0.49 KCAL/MOL
REMARK 927      BINDING AFFINITY PREDICTED BY RF-SCORE:    0.00 PKD
ROOT
HETATM    1  C   UNL     1      -9.193   8.002  73.874  1.00  0.00    -0.063 C  
HETATM    2  C   UNL     1      -8.379   8.116  72.593  1.00  0.00    -0.236 C  
ENDROOT
BRANCH   2   3
HETATM    3  C   UNL     1      -9.269   7.955  71.361  1.00  0.00    -0.165 C  
BRANCH   3   4
HETATM    4  C   UNL     1      -9.439   6.485  70.956  1.00  0.00    -0.171 C  
HETATM    5  C   UNL     1      -8.757   6.135  69.616  1.00  0.00    -0.135 C  
HETATM    6  C   UNL     1      -7.251   6.481  69.557  1.00  0.00    -0.082 C  
HETATM    7  C   UNL     1      -9.018   4.657  69.253  1.00  0.00    -0.097 C  
HETATM    8  C   UNL     1      -6.370   5.654  70.481  1.00  0.00    -0.031 C  
BRANCH   7   9
HETATM    9  O   UNL     1      -8.347   4.357  68.016  1.00  0.00    -0.094 OA 
BRANCH   9  10
HETATM   10  C   UNL     1      -9.066   3.641  67.111  1.00  0.00    -0.168 C  
HETATM   11  O   UNL     1      -8.972   2.434  66.938  1.00  0.00    -0.130 OA 
BRANCH  10  12
HETATM   12  C   UNL     1     -10.142   4.485  66.482  1.00  0.00    -0.257 C  
BRANCH  12  13
HETATM   13  C   UNL     1      -9.643   5.377  65.348  1.00  0.00     0.132 C  
HETATM   14  O   UNL     1      -7.843   3.554  64.666  1.00  0.00    -0.083 OA 
HETATM   15  S   UNL     1      -8.828   4.438  64.094  1.00  0.00    -0.147 S  
HETATM   16  O   UNL     1     -10.091   3.531  63.651  1.00  0.00    -0.157 OA 
HETATM   17  O   UNL     1      -8.556   5.267  62.941  1.00  0.00    -0.125 OA 
BRANCH  13  18
HETATM   18  C   UNL     1      -8.668   6.387  65.867  1.00  0.00    -0.145 C  
HETATM   19  O   UNL     1      -7.454   6.289  65.756  1.00  0.00    -0.078 OA 
BRANCH  18  20
HETATM   20  O   UNL     1      -9.302   7.321  66.630  1.00  0.00    -0.159 OA 
BRANCH  20  21
HETATM   21  C   UNL     1      -9.389   8.630  66.040  1.00  0.00    -0.218 C  
HETATM   22  C   UNL     1      -8.939   9.778  66.963  1.00  0.00    -0.152 C  
HETATM   23  C   UNL     1      -7.500   9.581  67.488  1.00  0.00    -0.091 C  
HETATM   24  C   UNL     1      -9.103  11.154  66.278  1.00  0.00    -0.207 C  
HETATM   25  C   UNL     1      -6.411   9.605  66.424  1.00  0.00    -0.069 C  
BRANCH  24  26
HETATM   26  C   UNL     1     -10.539  11.461  65.843  1.00  0.00    -0.317 C  
BRANCH  26  27
HETATM   27  C   UNL     1     -11.461  11.660  67.047  1.00  0.00    -0.336 C  
HETATM   28  C   UNL     1     -11.840  13.127  67.204  1.00  0.00    -0.424 C  
ENDBRANCH  26  27
ENDBRANCH  24  26
ENDBRANCH  20  21
ENDBRANCH  18  20
ENDBRANCH  13  18
ENDBRANCH  12  13
ENDBRANCH  10  12
ENDBRANCH   9  10
ENDBRANCH   7   9
ENDBRANCH   3   4
ENDBRANCH   2   3
TORSDOF 11
ENDMDL
MODEL      380
REMARK 921   NORMALIZED FREE ENERGY PREDICTED BY IDOCK:   -1.48 KCAL/MOL
REMARK 922        TOTAL FREE ENERGY PREDICTED BY IDOCK:   -4.69 KCAL/MOL
REMARK 923 INTER-LIGAND FREE ENERGY PREDICTED BY IDOCK:   -4.16 KCAL/MOL
REMARK 924 INTRA-LIGAND FREE ENERGY PREDICTED BY IDOCK:   -0.53 KCAL/MOL
REMARK 927      BINDING AFFINITY PREDICTED BY RF-SCORE:    0.00 PKD
ROOT
HETATM    1  C   UNL     1     -11.003  12.427  64.321  1.00  0.00    -0.396 C  
HETATM    2  C   UNL     1     -11.066  11.275  65.314  1.00  0.00    -0.146 C  
ENDROOT
BRANCH   2   3
HETATM    3  C   UNL     1      -9.664  10.781  65.671  1.00  0.00    -0.287 C  
BRANCH   3   4
HETATM    4  C   UNL     1      -9.681   9.783  66.835  1.00  0.00    -0.243 C  
HETATM    5  C   UNL     1      -9.165  10.379  68.163  1.00  0.00    -0.145 C  
HETATM    6  C   UNL     1      -9.902  11.661  68.615  1.00  0.00    -0.173 C  
HETATM    7  C   UNL     1      -9.162   9.301  69.268  1.00  0.00    -0.152 C  
HETATM    8  C   UNL     1     -11.357  11.454  69.011  1.00  0.00    -0.345 C  
BRANCH   7   9
HETATM    9  O   UNL     1      -8.704   9.896  70.496  1.00  0.00    -0.100 OA 
BRANCH   9  10
HETATM   10  C   UNL     1      -7.369   9.807  70.734  1.00  0.00     0.036 C  
HETATM   11  O   UNL     1      -6.576  10.733  70.639  1.00  0.00    -0.332 OA 
BRANCH  10  12
HETATM   12  C   UNL     1      -7.010   8.470  71.327  1.00  0.00    -0.075 C  
BRANCH  12  13
HETATM   13  C   UNL     1      -8.218   7.599  71.662  1.00  0.00    -0.107 C  
HETATM   14  O   UNL     1      -6.918   6.534  73.713  1.00  0.00    -0.080 OA 
HETATM   15  S   UNL     1      -8.199   7.087  73.353  1.00  0.00    -0.110 S  
HETATM   16  O   UNL     1      -8.296   8.556  74.022  1.00  0.00    -0.329 OA 
HETATM   17  O   UNL     1      -9.449   6.449  73.700  1.00  0.00    -0.138 OA 
BRANCH  13  18
HETATM   18  C   UNL     1      -8.227   6.367  70.814  1.00  0.00    -0.125 C  
HETATM   19  O   UNL     1      -8.726   5.303  71.154  1.00  0.00    -0.124 OA 
BRANCH  18  20
HETATM   20  O   UNL     1      -7.451   6.539  69.706  1.00  0.00    -0.084 OA 
BRANCH  20  21
HETATM   21  C   UNL     1      -8.029   6.058  68.480  1.00  0.00    -0.107 C  
HETATM   22  C   UNL     1      -7.162   6.293  67.230  1.00  0.00    -0.078 C  
HETATM   23  C   UNL     1      -5.750   5.680  67.370  1.00  0.00    -0.017 C  
HETATM   24  C   UNL     1      -7.866   5.791  65.948  1.00  0.00    -0.101 C  
HETATM   25  C   UNL     1      -5.708   4.163  67.485  1.00  0.00    -0.022 C  
BRANCH  24  26
HETATM   26  C   UNL     1      -9.221   6.456  65.688  1.00  0.00     0.111 C  
BRANCH  26  27
HETATM   27  C   UNL     1     -10.346   5.759  66.454  1.00  0.00    -0.207 C  
HETATM   28  C   UNL     1     -11.179   6.768  67.232  1.00  0.00    -0.279 C  
ENDBRANCH  26  27
ENDBRANCH  24  26
ENDBRANCH  20  21
ENDBRANCH  18  20
ENDBRANCH  13  18
ENDBRANCH  12  13
ENDBRANCH  10  12
ENDBRANCH   9  10
ENDBRANCH   7   9
ENDBRANCH   3   4
ENDBRANCH   2   3
TORSDOF 11
ENDMDL
MODEL      381
REMARK 921   NORMALIZED FREE ENERGY PREDICTED BY IDOCK:   -1.48 KCAL/MOL
REMARK 922        TOTAL FREE ENERGY PREDICTED BY IDOCK:   -4.67 KCAL/MOL
REMARK 923 INTER-LIGAND FREE ENERGY PREDICTED BY IDOCK:   -6.46 KCAL/MOL
REMARK 924 INTRA-LIGAND FREE ENERGY PREDICTED BY IDOCK:    1.79 KCAL/MOL
REMARK 927      BINDING AFFINITY PREDICTED BY RF-SCORE:    0.00 PKD
ROOT
HETATM    1  C   UNL     1     -11.418   6.321  69.849  1.00  0.00    -0.459 C  
HETATM    2  C   UNL     1     -10.428   5.424  70.579  1.00  0.00    -0.335 C  
ENDROOT
BRANCH   2   3
HETATM    3  C   UNL     1      -9.756   4.449  69.613  1.00  0.00    -0.289 C  
BRANCH   3   4
HETATM    4  C   UNL     1      -9.664   5.013  68.190  1.00  0.00    -0.199 C  
HETATM    5  C   UNL     1      -8.680   6.196  68.061  1.00  0.00    -0.113 C  
HETATM    6  C   UNL     1      -7.247   5.889  68.552  1.00  0.00    -0.083 C  
HETATM    7  C   UNL     1      -8.685   6.741  66.617  1.00  0.00    -0.127 C  
HETATM    8  C   UNL     1      -6.488   4.872  67.711  1.00  0.00    -0.045 C  
BRANCH   7   9
HETATM    9  O   UNL     1      -7.738   7.822  66.524  1.00  0.00    -0.093 OA 
BRANCH   9  10
HETATM   10  C   UNL     1      -8.237   9.010  66.092  1.00  0.00    -0.115 C  
HETATM   11  O   UNL     1      -9.076   9.140  65.213  1.00  0.00    -0.209 OA 
BRANCH  10  12
HETATM   12  C   UNL     1      -7.775  10.144  66.968  1.00  0.00    -0.096 C  
BRANCH  12  13
HETATM   13  C   UNL     1      -8.913  10.983  67.544  1.00  0.00    -0.137 C  
HETATM   14  O   UNL     1     -10.624   9.001  67.128  1.00  0.00    -0.272 OA 
HETATM   15  S   UNL     1     -10.237   9.969  68.125  1.00  0.00    -0.186 S  
HETATM   16  O   UNL     1      -9.415   9.178  69.270  1.00  0.00    -0.153 OA 
HETATM   17  O   UNL     1     -11.199  10.764  68.853  1.00  0.00    -0.229 OA 
BRANCH  13  18
HETATM   18  C   UNL     1      -9.466  11.902  66.502  1.00  0.00    -0.217 C  
HETATM   19  O   UNL     1     -10.064  11.526  65.502  1.00  0.00    -0.223 OA 
BRANCH  18  20
HETATM   20  O   UNL     1      -9.056  13.183  66.721  1.00  0.00    -0.234 OA 
BRANCH  20  21
HETATM   21  C   UNL     1     -10.000  14.011  67.422  1.00  0.00    -0.243 C  
HETATM   22  C   UNL     1      -9.788  15.524  67.231  1.00  0.00    -0.224 C  
HETATM   23  C   UNL     1      -9.797  15.936  65.742  1.00  0.00    -0.380 C  
HETATM   24  C   UNL     1     -10.810  16.349  68.047  1.00  0.00    -0.342 C  
HETATM   25  C   UNL     1     -11.119  15.724  65.017  1.00  0.00    -0.380 C  
BRANCH  24  26
HETATM   26  C   UNL     1     -10.763  16.073  69.553  1.00  0.00    -0.298 C  
BRANCH  26  27
HETATM   27  C   UNL     1     -12.133  15.659  70.092  1.00  0.00    -0.400 C  
HETATM   28  C   UNL     1     -12.347  14.159  69.936  1.00  0.00    -0.382 C  
ENDBRANCH  26  27
ENDBRANCH  24  26
ENDBRANCH  20  21
ENDBRANCH  18  20
ENDBRANCH  13  18
ENDBRANCH  12  13
ENDBRANCH  10  12
ENDBRANCH   9  10
ENDBRANCH   7   9
ENDBRANCH   3   4
ENDBRANCH   2   3
TORSDOF 11
ENDMDL
MODEL      382
REMARK 921   NORMALIZED FREE ENERGY PREDICTED BY IDOCK:   -1.43 KCAL/MOL
REMARK 922        TOTAL FREE ENERGY PREDICTED BY IDOCK:   -4.59 KCAL/MOL
REMARK 923 INTER-LIGAND FREE ENERGY PREDICTED BY IDOCK:   -4.91 KCAL/MOL
REMARK 924 INTRA-LIGAND FREE ENERGY PREDICTED BY IDOCK:    0.32 KCAL/MOL
REMARK 927      BINDING AFFINITY PREDICTED BY RF-SCORE:    0.00 PKD
ROOT
HETATM    1  C   UNL     1     -11.204   3.851  73.347  1.00  0.00    -0.297 C  
HETATM    2  C   UNL     1      -9.855   3.184  73.579  1.00  0.00    -0.158 C  
ENDROOT
BRANCH   2   3
HETATM    3  C   UNL     1      -9.538   2.185  72.467  1.00  0.00    -0.160 C  
BRANCH   3   4
HETATM    4  C   UNL     1      -9.677   2.807  71.072  1.00  0.00    -0.160 C  
HETATM    5  C   UNL     1      -8.526   3.772  70.714  1.00  0.00    -0.100 C  
HETATM    6  C   UNL     1      -7.115   3.151  70.827  1.00  0.00    -0.033 C  
HETATM    7  C   UNL     1      -8.765   4.396  69.322  1.00  0.00    -0.087 C  
HETATM    8  C   UNL     1      -6.816   2.057  69.813  1.00  0.00    -0.033 C  
BRANCH   7   9
HETATM    9  O   UNL     1      -7.663   5.267  69.007  1.00  0.00    -0.079 OA 
BRANCH   9  10
HETATM   10  C   UNL     1      -7.820   6.571  69.356  1.00  0.00    -0.106 C  
HETATM   11  O   UNL     1      -7.144   7.160  70.187  1.00  0.00    -0.063 OA 
BRANCH  10  12
HETATM   12  C   UNL     1      -8.802   7.262  68.448  1.00  0.00    -0.128 C  
BRANCH  12  13
HETATM   13  C   UNL     1      -8.575   8.766  68.324  1.00  0.00    -0.134 C  
HETATM   14  O   UNL     1     -11.080   9.108  67.526  1.00  0.00    -0.068 OA 
HETATM   15  S   UNL     1     -10.094   9.662  68.421  1.00  0.00    -0.183 S  
HETATM   16  O   UNL     1     -10.505   9.225  69.922  1.00  0.00    -0.205 OA 
HETATM   17  O   UNL     1      -9.837  11.081  68.515  1.00  0.00    -0.177 OA 
BRANCH  13  18
HETATM   18  C   UNL     1      -7.936   9.093  67.011  1.00  0.00    -0.102 C  
HETATM   19  O   UNL     1      -6.985   9.851  66.880  1.00  0.00    -0.086 OA 
BRANCH  18  20
HETATM   20  O   UNL     1      -8.668   8.585  65.980  1.00  0.00    -0.142 OA 
BRANCH  20  21
HETATM   21  C   UNL     1      -9.618   9.497  65.402  1.00  0.00    -0.272 C  
HETATM   22  C   UNL     1      -8.996  10.588  64.512  1.00  0.00    -0.231 C  
HETATM   23  C   UNL     1      -8.139   9.998  63.370  1.00  0.00    -0.158 C  
HETATM   24  C   UNL     1     -10.072  11.555  63.964  1.00  0.00    -0.366 C  
HETATM   25  C   UNL     1      -8.903   9.172  62.344  1.00  0.00    -0.212 C  
BRANCH  24  26
HETATM   26  C   UNL     1     -10.875  12.267  65.056  1.00  0.00    -0.337 C  
BRANCH  26  27
HETATM   27  C   UNL     1     -10.898  13.781  64.841  1.00  0.00    -0.398 C  
HETATM   28  C   UNL     1     -12.316  14.271  64.577  1.00  0.00    -0.432 C  
ENDBRANCH  26  27
ENDBRANCH  24  26
ENDBRANCH  20  21
ENDBRANCH  18  20
ENDBRANCH  13  18
ENDBRANCH  12  13
ENDBRANCH  10  12
ENDBRANCH   9  10
ENDBRANCH   7   9
ENDBRANCH   3   4
ENDBRANCH   2   3
TORSDOF 11
ENDMDL
MODEL      383
REMARK 921   NORMALIZED FREE ENERGY PREDICTED BY IDOCK:   -1.37 KCAL/MOL
REMARK 922        TOTAL FREE ENERGY PREDICTED BY IDOCK:   -4.49 KCAL/MOL
REMARK 923 INTER-LIGAND FREE ENERGY PREDICTED BY IDOCK:   -5.09 KCAL/MOL
REMARK 924 INTRA-LIGAND FREE ENERGY PREDICTED BY IDOCK:    0.60 KCAL/MOL
REMARK 927      BINDING AFFINITY PREDICTED BY RF-SCORE:    0.00 PKD
ROOT
HETATM    1  C   UNL     1     -11.720  12.739  67.184  1.00  0.00    -0.443 C  
HETATM    2  C   UNL     1     -11.108  12.790  68.577  1.00  0.00    -0.300 C  
ENDROOT
BRANCH   2   3
HETATM    3  C   UNL     1     -12.022  12.117  69.602  1.00  0.00    -0.351 C  
BRANCH   3   4
HETATM    4  C   UNL     1     -12.118  10.602  69.386  1.00  0.00    -0.250 C  
HETATM    5  C   UNL     1     -11.609   9.778  70.589  1.00  0.00    -0.389 C  
HETATM    6  C   UNL     1     -12.295  10.120  71.932  1.00  0.00    -0.300 C  
HETATM    7  C   UNL     1     -11.687   8.269  70.275  1.00  0.00     0.105 C  
HETATM    8  C   UNL     1     -13.768   9.745  72.009  1.00  0.00    -0.351 C  
BRANCH   7   9
HETATM    9  O   UNL     1     -11.234   7.530  71.424  1.00  0.00    -0.238 OA 
BRANCH   9  10
HETATM   10  C   UNL     1     -10.053   6.874  71.278  1.00  0.00    -0.190 C  
HETATM   11  O   UNL     1      -8.958   7.324  71.583  1.00  0.00    -0.125 OA 
BRANCH  10  12
HETATM   12  C   UNL     1     -10.274   5.440  70.876  1.00  0.00    -0.303 C  
BRANCH  12  13
HETATM   13  C   UNL     1      -9.556   4.431  71.768  1.00  0.00    -0.158 C  
HETATM   14  O   UNL     1      -9.830   6.038  73.858  1.00  0.00    -0.164 OA 
HETATM   15  S   UNL     1      -9.972   4.657  73.469  1.00  0.00    -0.157 S  
HETATM   16  O   UNL     1     -11.554   4.352  73.346  1.00  0.00    -0.282 OA 
HETATM   17  O   UNL     1      -9.454   3.567  74.264  1.00  0.00    -0.092 OA 
BRANCH  13  18
HETATM   18  C   UNL     1      -8.073   4.578  71.638  1.00  0.00    -0.101 C  
HETATM   19  O   UNL     1      -7.386   5.276  72.371  1.00  0.00    -0.089 OA 
BRANCH  18  20
HETATM   20  O   UNL     1      -7.628   3.986  70.494  1.00  0.00    -0.044 OA 
BRANCH  20  21
HETATM   21  C   UNL     1      -7.986   4.667  69.279  1.00  0.00    -0.070 C  
HETATM   22  C   UNL     1      -7.133   5.911  68.969  1.00  0.00    -0.069 C  
HETATM   23  C   UNL     1      -5.623   5.591  68.916  1.00  0.00    -0.011 C  
HETATM   24  C   UNL     1      -7.604   6.614  67.675  1.00  0.00    -0.106 C  
HETATM   25  C   UNL     1      -5.197   4.649  67.798  1.00  0.00    -0.011 C  
BRANCH  24  26
HETATM   26  C   UNL     1      -9.066   7.068  67.715  1.00  0.00    -0.126 C  
BRANCH  26  27
HETATM   27  C   UNL     1      -9.187   8.588  67.607  1.00  0.00    -0.147 C  
HETATM   28  C   UNL     1     -10.261   8.977  66.600  1.00  0.00    -0.333 C  
ENDBRANCH  26  27
ENDBRANCH  24  26
ENDBRANCH  20  21
ENDBRANCH  18  20
ENDBRANCH  13  18
ENDBRANCH  12  13
ENDBRANCH  10  12
ENDBRANCH   9  10
ENDBRANCH   7   9
ENDBRANCH   3   4
ENDBRANCH   2   3
TORSDOF 11
ENDMDL
MODEL      384
REMARK 921   NORMALIZED FREE ENERGY PREDICTED BY IDOCK:   -1.36 KCAL/MOL
REMARK 922        TOTAL FREE ENERGY PREDICTED BY IDOCK:   -4.48 KCAL/MOL
REMARK 923 INTER-LIGAND FREE ENERGY PREDICTED BY IDOCK:   -6.26 KCAL/MOL
REMARK 924 INTRA-LIGAND FREE ENERGY PREDICTED BY IDOCK:    1.78 KCAL/MOL
REMARK 927      BINDING AFFINITY PREDICTED BY RF-SCORE:    0.00 PKD
ROOT
HETATM    1  C   UNL     1     -12.614  15.488  74.365  1.00  0.00    -0.642 C  
HETATM    2  C   UNL     1     -13.102  15.879  72.977  1.00  0.00    -0.639 C  
ENDROOT
BRANCH   2   3
HETATM    3  C   UNL     1     -13.771  14.696  72.279  1.00  0.00    -0.565 C  
BRANCH   3   4
HETATM    4  C   UNL     1     -12.753  13.661  71.786  1.00  0.00    -0.359 C  
HETATM    5  C   UNL     1     -12.360  13.844  70.304  1.00  0.00    -0.413 C  
HETATM    6  C   UNL     1     -11.825  15.252  69.955  1.00  0.00    -0.363 C  
HETATM    7  C   UNL     1     -11.376  12.736  69.871  1.00  0.00     0.040 C  
HETATM    8  C   UNL     1     -10.486  15.601  70.587  1.00  0.00    -0.023 C  
BRANCH   7   9
HETATM    9  O   UNL     1     -11.009  12.951  68.496  1.00  0.00    -0.239 OA 
BRANCH   9  10
HETATM   10  C   UNL     1     -10.664  11.839  67.794  1.00  0.00    -0.205 C  
HETATM   11  O   UNL     1     -10.893  11.660  66.607  1.00  0.00    -0.258 OA 
BRANCH  10  12
HETATM   12  C   UNL     1      -9.784  10.932  68.613  1.00  0.00    -0.188 C  
BRANCH  12  13
HETATM   13  C   UNL     1      -8.395  10.717  68.018  1.00  0.00    -0.118 C  
HETATM   14  O   UNL     1      -8.691  12.856  66.480  1.00  0.00    -0.101 OA 
HETATM   15  S   UNL     1      -7.737  12.213  67.349  1.00  0.00    -0.173 S  
HETATM   16  O   UNL     1      -7.692  13.061  68.725  1.00  0.00    -0.094 OA 
HETATM   17  O   UNL     1      -6.349  12.036  66.987  1.00  0.00    -0.153 OA 
BRANCH  13  18
HETATM   18  C   UNL     1      -8.449   9.710  66.913  1.00  0.00    -0.120 C  
HETATM   19  O   UNL     1      -8.017   9.904  65.785  1.00  0.00    -0.113 OA 
BRANCH  18  20
HETATM   20  O   UNL     1      -9.200   8.633  67.278  1.00  0.00    -0.136 OA 
BRANCH  20  21
HETATM   21  C   UNL     1      -9.175   8.322  68.682  1.00  0.00    -0.143 C  
HETATM   22  C   UNL     1      -9.320   6.824  69.008  1.00  0.00    -0.134 C  
HETATM   23  C   UNL     1      -8.248   5.963  68.304  1.00  0.00    -0.109 C  
HETATM   24  C   UNL     1      -9.328   6.573  70.534  1.00  0.00    -0.167 C  
HETATM   25  C   UNL     1      -6.813   6.227  68.738  1.00  0.00    -0.070 C  
BRANCH  24  26
HETATM   26  C   UNL     1     -10.450   7.307  71.274  1.00  0.00    -0.215 C  
BRANCH  26  27
HETATM   27  C   UNL     1      -9.925   8.034  72.513  1.00  0.00    -0.338 C  
HETATM   28  C   UNL     1      -9.423   7.041  73.553  1.00  0.00    -0.226 C  
ENDBRANCH  26  27
ENDBRANCH  24  26
ENDBRANCH  20  21
ENDBRANCH  18  20
ENDBRANCH  13  18
ENDBRANCH  12  13
ENDBRANCH  10  12
ENDBRANCH   9  10
ENDBRANCH   7   9
ENDBRANCH   3   4
ENDBRANCH   2   3
TORSDOF 11
ENDMDL
MODEL      385
REMARK 921   NORMALIZED FREE ENERGY PREDICTED BY IDOCK:   -1.35 KCAL/MOL
REMARK 922        TOTAL FREE ENERGY PREDICTED BY IDOCK:   -4.47 KCAL/MOL
REMARK 923 INTER-LIGAND FREE ENERGY PREDICTED BY IDOCK:   -5.90 KCAL/MOL
REMARK 924 INTRA-LIGAND FREE ENERGY PREDICTED BY IDOCK:    1.44 KCAL/MOL
REMARK 927      BINDING AFFINITY PREDICTED BY RF-SCORE:    0.00 PKD
ROOT
HETATM    1  C   UNL     1     -11.485   4.623  73.368  1.00  0.00    -0.335 C  
HETATM    2  C   UNL     1     -10.299   4.166  74.207  1.00  0.00    -0.272 C  
ENDROOT
BRANCH   2   3
HETATM    3  C   UNL     1      -9.526   3.053  73.502  1.00  0.00    -0.120 C  
BRANCH   3   4
HETATM    4  C   UNL     1      -9.877   2.956  72.012  1.00  0.00    -0.242 C  
HETATM    5  C   UNL     1      -9.117   3.975  71.135  1.00  0.00    -0.180 C  
HETATM    6  C   UNL     1      -7.578   3.911  71.273  1.00  0.00    -0.052 C  
HETATM    7  C   UNL     1      -9.564   3.851  69.663  1.00  0.00    -0.189 C  
HETATM    8  C   UNL     1      -6.942   2.635  70.741  1.00  0.00    -0.033 C  
BRANCH   7   9
HETATM    9  O   UNL     1      -8.817   4.792  68.869  1.00  0.00    -0.091 OA 
BRANCH   9  10
HETATM   10  C   UNL     1      -9.545   5.776  68.278  1.00  0.00    -0.121 C  
HETATM   11  O   UNL     1     -10.761   5.771  68.154  1.00  0.00    -0.240 OA 
BRANCH  10  12
HETATM   12  C   UNL     1      -8.687   6.974  67.967  1.00  0.00    -0.126 C  
BRANCH  12  13
HETATM   13  C   UNL     1      -9.160   8.262  68.636  1.00  0.00    -0.140 C  
HETATM   14  O   UNL     1     -10.510   6.864  70.440  1.00  0.00    -0.200 OA 
HETATM   15  S   UNL     1      -9.615   7.989  70.321  1.00  0.00    -0.171 S  
HETATM   16  O   UNL     1      -8.168   7.512  70.859  1.00  0.00    -0.110 OA 
HETATM   17  O   UNL     1      -9.853   9.248  70.989  1.00  0.00    -0.273 OA 
BRANCH  13  18
HETATM   18  C   UNL     1     -10.355   8.813  67.925  1.00  0.00    -0.224 C  
HETATM   19  O   UNL     1     -10.828   8.334  66.904  1.00  0.00    -0.228 OA 
BRANCH  18  20
HETATM   20  O   UNL     1     -10.722  10.012  68.459  1.00  0.00    -0.211 OA 
BRANCH  20  21
HETATM   21  C   UNL     1     -11.171  10.990  67.504  1.00  0.00    -0.302 C  
HETATM   22  C   UNL     1     -10.151  12.105  67.205  1.00  0.00    -0.214 C  
HETATM   23  C   UNL     1      -8.793  11.547  66.724  1.00  0.00    -0.183 C  
HETATM   24  C   UNL     1     -10.719  13.140  66.207  1.00  0.00    -0.295 C  
HETATM   25  C   UNL     1      -8.830  10.808  65.393  1.00  0.00    -0.202 C  
BRANCH  24  26
HETATM   26  C   UNL     1     -12.004  13.821  66.687  1.00  0.00    -0.469 C  
BRANCH  26  27
HETATM   27  C   UNL     1     -11.768  14.636  67.958  1.00  0.00    -0.371 C  
HETATM   28  C   UNL     1     -10.799  15.782  67.696  1.00  0.00    -0.310 C  
ENDBRANCH  26  27
ENDBRANCH  24  26
ENDBRANCH  20  21
ENDBRANCH  18  20
ENDBRANCH  13  18
ENDBRANCH  12  13
ENDBRANCH  10  12
ENDBRANCH   9  10
ENDBRANCH   7   9
ENDBRANCH   3   4
ENDBRANCH   2   3
TORSDOF 11
ENDMDL
MODEL      386
REMARK 921   NORMALIZED FREE ENERGY PREDICTED BY IDOCK:   -1.34 KCAL/MOL
REMARK 922        TOTAL FREE ENERGY PREDICTED BY IDOCK:   -4.45 KCAL/MOL
REMARK 923 INTER-LIGAND FREE ENERGY PREDICTED BY IDOCK:   -5.88 KCAL/MOL
REMARK 924 INTRA-LIGAND FREE ENERGY PREDICTED BY IDOCK:    1.43 KCAL/MOL
REMARK 927      BINDING AFFINITY PREDICTED BY RF-SCORE:    0.00 PKD
ROOT
HETATM    1  C   UNL     1      -6.112   8.449  72.500  1.00  0.00    -0.072 C  
HETATM    2  C   UNL     1      -5.427   8.369  71.143  1.00  0.00    -0.033 C  
ENDROOT
BRANCH   2   3
HETATM    3  C   UNL     1      -5.262   9.759  70.530  1.00  0.00    -0.039 C  
BRANCH   3   4
HETATM    4  C   UNL     1      -6.587  10.316  69.994  1.00  0.00    -0.127 C  
HETATM    5  C   UNL     1      -6.709  10.236  68.456  1.00  0.00    -0.057 C  
HETATM    6  C   UNL     1      -6.511   8.817  67.875  1.00  0.00    -0.057 C  
HETATM    7  C   UNL     1      -8.041  10.863  67.992  1.00  0.00    -0.119 C  
HETATM    8  C   UNL     1      -7.601   7.820  68.240  1.00  0.00    -0.109 C  
BRANCH   7   9
HETATM    9  O   UNL     1      -8.136  10.746  66.561  1.00  0.00    -0.134 OA 
BRANCH   9  10
HETATM   10  C   UNL     1      -9.389  10.579  66.062  1.00  0.00    -0.178 C  
HETATM   11  O   UNL     1     -10.126   9.638  66.318  1.00  0.00    -0.258 OA 
BRANCH  10  12
HETATM   12  C   UNL     1      -9.842  11.802  65.308  1.00  0.00    -0.267 C  
BRANCH  12  13
HETATM   13  C   UNL     1     -10.911  12.614  66.032  1.00  0.00    -0.282 C  
HETATM   14  O   UNL     1      -9.046  14.139  67.138  1.00  0.00    -0.211 OA 
HETATM   15  S   UNL     1     -10.321  14.220  66.470  1.00  0.00    -0.284 S  
HETATM   16  O   UNL     1     -10.047  14.762  64.972  1.00  0.00    -0.371 OA 
HETATM   17  O   UNL     1     -11.407  15.040  66.959  1.00  0.00    -0.346 OA 
BRANCH  13  18
HETATM   18  C   UNL     1     -11.330  11.924  67.292  1.00  0.00    -0.329 C  
HETATM   19  O   UNL     1     -12.404  11.358  67.441  1.00  0.00    -0.017 OA 
BRANCH  18  20
HETATM   20  O   UNL     1     -10.440  12.170  68.295  1.00  0.00    -0.200 OA 
BRANCH  20  21
HETATM   21  C   UNL     1     -11.028  12.367  69.593  1.00  0.00     0.178 C  
HETATM   22  C   UNL     1     -11.989  11.248  70.035  1.00  0.00    -0.447 C  
HETATM   23  C   UNL     1     -11.321   9.856  70.014  1.00  0.00    -0.303 C  
HETATM   24  C   UNL     1     -12.614  11.550  71.416  1.00  0.00    -0.419 C  
HETATM   25  C   UNL     1     -10.172   9.671  70.997  1.00  0.00    -0.252 C  
BRANCH  24  26
HETATM   26  C   UNL     1     -13.399  12.865  71.465  1.00  0.00    -0.260 C  
BRANCH  26  27
HETATM   27  C   UNL     1     -12.552  14.004  72.033  1.00  0.00    -0.314 C  
HETATM   28  C   UNL     1     -13.385  14.901  72.939  1.00  0.00    -0.576 C  
ENDBRANCH  26  27
ENDBRANCH  24  26
ENDBRANCH  20  21
ENDBRANCH  18  20
ENDBRANCH  13  18
ENDBRANCH  12  13
ENDBRANCH  10  12
ENDBRANCH   9  10
ENDBRANCH   7   9
ENDBRANCH   3   4
ENDBRANCH   2   3
TORSDOF 11
ENDMDL
MODEL      387
REMARK 921   NORMALIZED FREE ENERGY PREDICTED BY IDOCK:   -1.34 KCAL/MOL
REMARK 922        TOTAL FREE ENERGY PREDICTED BY IDOCK:   -4.44 KCAL/MOL
REMARK 923 INTER-LIGAND FREE ENERGY PREDICTED BY IDOCK:   -4.09 KCAL/MOL
REMARK 924 INTRA-LIGAND FREE ENERGY PREDICTED BY IDOCK:   -0.35 KCAL/MOL
REMARK 927      BINDING AFFINITY PREDICTED BY RF-SCORE:    0.00 PKD
ROOT
HETATM    1  C   UNL     1     -11.187   3.804  73.429  1.00  0.00    -0.280 C  
HETATM    2  C   UNL     1      -9.933   3.017  73.787  1.00  0.00    -0.165 C  
ENDROOT
BRANCH   2   3
HETATM    3  C   UNL     1      -9.607   1.985  72.708  1.00  0.00    -0.139 C  
BRANCH   3   4
HETATM    4  C   UNL     1      -9.550   2.608  71.308  1.00  0.00    -0.226 C  
HETATM    5  C   UNL     1      -8.371   3.588  71.120  1.00  0.00    -0.087 C  
HETATM    6  C   UNL     1      -6.984   2.984  71.437  1.00  0.00    -0.032 C  
HETATM    7  C   UNL     1      -8.414   4.211  69.708  1.00  0.00    -0.060 C  
HETATM    8  C   UNL     1      -6.527   1.895  70.477  1.00  0.00    -0.024 C  
BRANCH   7   9
HETATM    9  O   UNL     1      -7.289   5.096  69.556  1.00  0.00    -0.055 OA 
BRANCH   9  10
HETATM   10  C   UNL     1      -7.459   6.357  70.032  1.00  0.00    -0.091 C  
HETATM   11  O   UNL     1      -6.665   6.950  70.747  1.00  0.00    -0.051 OA 
BRANCH  10  12
HETATM   12  C   UNL     1      -8.660   7.016  69.407  1.00  0.00    -0.134 C  
BRANCH  12  13
HETATM   13  C   UNL     1      -8.881   8.457  69.860  1.00  0.00    -0.137 C  
HETATM   14  O   UNL     1     -11.492   8.209  69.478  1.00  0.00     0.176 OA 
HETATM   15  S   UNL     1     -10.533   8.713  70.429  1.00  0.00    -0.215 S  
HETATM   16  O   UNL     1     -10.495   7.677  71.669  1.00  0.00    -0.197 OA 
HETATM   17  O   UNL     1     -10.658  10.013  71.047  1.00  0.00    -0.224 OA 
BRANCH  13  18
HETATM   18  C   UNL     1      -8.636   9.405  68.730  1.00  0.00    -0.127 C  
HETATM   19  O   UNL     1      -7.580   9.995  68.543  1.00  0.00    -0.084 OA 
BRANCH  18  20
HETATM   20  O   UNL     1      -9.793   9.660  68.056  1.00  0.00    -0.144 OA 
BRANCH  20  21
HETATM   21  C   UNL     1     -10.051  11.051  67.797  1.00  0.00    -0.177 C  
HETATM   22  C   UNL     1      -9.111  11.692  66.759  1.00  0.00    -0.186 C  
HETATM   23  C   UNL     1      -9.124  10.940  65.410  1.00  0.00    -0.218 C  
HETATM   24  C   UNL     1      -9.419  13.195  66.566  1.00  0.00    -0.246 C  
HETATM   25  C   UNL     1     -10.452  10.962  64.666  1.00  0.00    -0.384 C  
BRANCH  24  26
HETATM   26  C   UNL     1      -9.301  14.020  67.852  1.00  0.00    -0.206 C  
BRANCH  26  27
HETATM   27  C   UNL     1      -8.468  15.284  67.635  1.00  0.00    -0.172 C  
HETATM   28  C   UNL     1      -6.990  14.943  67.499  1.00  0.00    -0.203 C  
ENDBRANCH  26  27
ENDBRANCH  24  26
ENDBRANCH  20  21
ENDBRANCH  18  20
ENDBRANCH  13  18
ENDBRANCH  12  13
ENDBRANCH  10  12
ENDBRANCH   9  10
ENDBRANCH   7   9
ENDBRANCH   3   4
ENDBRANCH   2   3
TORSDOF 11
ENDMDL
MODEL      388
REMARK 921   NORMALIZED FREE ENERGY PREDICTED BY IDOCK:   -1.32 KCAL/MOL
REMARK 922        TOTAL FREE ENERGY PREDICTED BY IDOCK:   -4.41 KCAL/MOL
REMARK 923 INTER-LIGAND FREE ENERGY PREDICTED BY IDOCK:   -3.45 KCAL/MOL
REMARK 924 INTRA-LIGAND FREE ENERGY PREDICTED BY IDOCK:   -0.97 KCAL/MOL
REMARK 927      BINDING AFFINITY PREDICTED BY RF-SCORE:    0.00 PKD
ROOT
HETATM    1  C   UNL     1      -9.220   7.826  73.690  1.00  0.00    -0.344 C  
HETATM    2  C   UNL     1      -8.285   7.964  72.497  1.00  0.00    -0.184 C  
ENDROOT
BRANCH   2   3
HETATM    3  C   UNL     1      -9.064   7.931  71.183  1.00  0.00    -0.160 C  
BRANCH   3   4
HETATM    4  C   UNL     1      -9.555   6.521  70.835  1.00  0.00    -0.186 C  
HETATM    5  C   UNL     1      -8.747   5.851  69.702  1.00  0.00    -0.128 C  
HETATM    6  C   UNL     1      -7.224   5.783  69.961  1.00  0.00    -0.069 C  
HETATM    7  C   UNL     1      -9.334   4.462  69.376  1.00  0.00    -0.156 C  
HETATM    8  C   UNL     1      -6.811   4.867  71.104  1.00  0.00    -0.043 C  
BRANCH   7   9
HETATM    9  O   UNL     1      -8.543   3.854  68.338  1.00  0.00    -0.090 OA 
BRANCH   9  10
HETATM   10  C   UNL     1      -9.231   3.133  67.415  1.00  0.00    -0.188 C  
HETATM   11  O   UNL     1      -9.394   1.922  67.450  1.00  0.00    -0.125 OA 
BRANCH  10  12
HETATM   12  C   UNL     1      -9.942   4.034  66.441  1.00  0.00    -0.114 C  
BRANCH  12  13
HETATM   13  C   UNL     1      -9.151   4.313  65.166  1.00  0.00    -0.145 C  
HETATM   14  O   UNL     1      -9.336   1.765  64.458  1.00  0.00    -0.130 OA 
HETATM   15  S   UNL     1      -9.470   3.097  63.925  1.00  0.00    -0.137 S  
HETATM   16  O   UNL     1     -11.051   3.387  63.744  1.00  0.00    -0.300 OA 
HETATM   17  O   UNL     1      -8.883   3.495  62.666  1.00  0.00    -0.087 OA 
BRANCH  13  18
HETATM   18  C   UNL     1      -7.682   4.301  65.447  1.00  0.00    -0.086 C  
HETATM   19  O   UNL     1      -6.962   3.323  65.297  1.00  0.00    -0.051 OA 
BRANCH  18  20
HETATM   20  O   UNL     1      -7.299   5.456  66.062  1.00  0.00    -0.075 OA 
BRANCH  20  21
HETATM   21  C   UNL     1      -7.705   6.663  65.393  1.00  0.00    -0.100 C  
HETATM   22  C   UNL     1      -6.586   7.706  65.224  1.00  0.00    -0.044 C  
HETATM   23  C   UNL     1      -5.356   7.135  64.483  1.00  0.00    -0.029 C  
HETATM   24  C   UNL     1      -7.106   8.991  64.538  1.00  0.00    -0.089 C  
HETATM   25  C   UNL     1      -5.602   6.720  63.039  1.00  0.00    -0.031 C  
BRANCH  24  26
HETATM   26  C   UNL     1      -8.249   9.674  65.295  1.00  0.00    -0.131 C  
BRANCH  26  27
HETATM   27  C   UNL     1      -7.798  10.167  66.670  1.00  0.00    -0.110 C  
HETATM   28  C   UNL     1      -8.585   9.479  67.779  1.00  0.00    -0.115 C  
ENDBRANCH  26  27
ENDBRANCH  24  26
ENDBRANCH  20  21
ENDBRANCH  18  20
ENDBRANCH  13  18
ENDBRANCH  12  13
ENDBRANCH  10  12
ENDBRANCH   9  10
ENDBRANCH   7   9
ENDBRANCH   3   4
ENDBRANCH   2   3
TORSDOF 11
ENDMDL
MODEL      389
REMARK 921   NORMALIZED FREE ENERGY PREDICTED BY IDOCK:   -1.29 KCAL/MOL
REMARK 922        TOTAL FREE ENERGY PREDICTED BY IDOCK:   -4.36 KCAL/MOL
REMARK 923 INTER-LIGAND FREE ENERGY PREDICTED BY IDOCK:   -4.89 KCAL/MOL
REMARK 924 INTRA-LIGAND FREE ENERGY PREDICTED BY IDOCK:    0.53 KCAL/MOL
REMARK 927      BINDING AFFINITY PREDICTED BY RF-SCORE:    0.00 PKD
ROOT
HETATM    1  C   UNL     1     -12.034  14.018  67.202  1.00  0.00    -0.465 C  
HETATM    2  C   UNL     1     -11.666  14.446  68.616  1.00  0.00    -0.367 C  
ENDROOT
BRANCH   2   3
HETATM    3  C   UNL     1     -12.023  13.357  69.629  1.00  0.00    -0.386 C  
BRANCH   3   4
HETATM    4  C   UNL     1     -11.877  11.949  69.040  1.00  0.00    -0.368 C  
HETATM    5  C   UNL     1     -11.300  10.923  70.040  1.00  0.00    -0.386 C  
HETATM    6  C   UNL     1     -12.086  10.814  71.367  1.00  0.00    -0.297 C  
HETATM    7  C   UNL     1     -11.134   9.548  69.359  1.00  0.00    -0.110 C  
HETATM    8  C   UNL     1     -13.487  10.234  71.233  1.00  0.00    -0.267 C  
BRANCH   7   9
HETATM    9  O   UNL     1     -10.622   8.610  70.324  1.00  0.00    -0.212 OA 
BRANCH   9  10
HETATM   10  C   UNL     1      -9.886   7.584  69.820  1.00  0.00    -0.180 C  
HETATM   11  O   UNL     1      -9.871   7.243  68.646  1.00  0.00    -0.155 OA 
BRANCH  10  12
HETATM   12  C   UNL     1      -8.934   7.040  70.851  1.00  0.00    -0.152 C  
BRANCH  12  13
HETATM   13  C   UNL     1      -7.463   7.171  70.464  1.00  0.00    -0.087 C  
HETATM   14  O   UNL     1      -7.928   9.549  69.387  1.00  0.00    -0.085 OA 
HETATM   15  S   UNL     1      -6.997   8.861  70.247  1.00  0.00    -0.054 S  
HETATM   16  O   UNL     1      -7.280   9.356  71.759  1.00  0.00    -0.318 OA 
HETATM   17  O   UNL     1      -5.564   8.972  70.092  1.00  0.00    -0.030 OA 
BRANCH  13  18
HETATM   18  C   UNL     1      -7.195   6.456  69.177  1.00  0.00    -0.090 C  
HETATM   19  O   UNL     1      -6.974   7.017  68.113  1.00  0.00    -0.074 OA 
BRANCH  18  20
HETATM   20  O   UNL     1      -7.412   5.117  69.315  1.00  0.00    -0.057 OA 
BRANCH  20  21
HETATM   21  C   UNL     1      -8.227   4.526  68.289  1.00  0.00    -0.090 C  
HETATM   22  C   UNL     1      -7.466   3.599  67.323  1.00  0.00    -0.071 C  
HETATM   23  C   UNL     1      -6.720   2.465  68.060  1.00  0.00    -0.039 C  
HETATM   24  C   UNL     1      -8.397   3.037  66.224  1.00  0.00    -0.098 C  
HETATM   25  C   UNL     1      -7.611   1.470  68.792  1.00  0.00    -0.042 C  
BRANCH  24  26
HETATM   26  C   UNL     1      -9.072   4.118  65.374  1.00  0.00    -0.139 C  
BRANCH  26  27
HETATM   27  C   UNL     1     -10.095   3.517  64.410  1.00  0.00    -0.182 C  
HETATM   28  C   UNL     1      -9.406   2.923  63.188  1.00  0.00    -0.093 C  
ENDBRANCH  26  27
ENDBRANCH  24  26
ENDBRANCH  20  21
ENDBRANCH  18  20
ENDBRANCH  13  18
ENDBRANCH  12  13
ENDBRANCH  10  12
ENDBRANCH   9  10
ENDBRANCH   7   9
ENDBRANCH   3   4
ENDBRANCH   2   3
TORSDOF 11
ENDMDL
MODEL      390
REMARK 921   NORMALIZED FREE ENERGY PREDICTED BY IDOCK:   -1.18 KCAL/MOL
REMARK 922        TOTAL FREE ENERGY PREDICTED BY IDOCK:   -4.19 KCAL/MOL
REMARK 923 INTER-LIGAND FREE ENERGY PREDICTED BY IDOCK:   -5.22 KCAL/MOL
REMARK 924 INTRA-LIGAND FREE ENERGY PREDICTED BY IDOCK:    1.03 KCAL/MOL
REMARK 927      BINDING AFFINITY PREDICTED BY RF-SCORE:    0.00 PKD
ROOT
HETATM    1  C   UNL     1     -11.349  12.944  67.080  1.00  0.00    -0.352 C  
HETATM    2  C   UNL     1     -10.801  12.946  68.501  1.00  0.00    -0.283 C  
ENDROOT
BRANCH   2   3
HETATM    3  C   UNL     1     -11.716  12.164  69.443  1.00  0.00    -0.391 C  
BRANCH   3   4
HETATM    4  C   UNL     1     -11.685  10.657  69.162  1.00  0.00    -0.324 C  
HETATM    5  C   UNL     1     -11.283   9.812  70.392  1.00  0.00    -0.362 C  
HETATM    6  C   UNL     1     -12.158  10.053  71.643  1.00  0.00    -0.420 C  
HETATM    7  C   UNL     1     -11.222   8.316  70.016  1.00  0.00    -0.081 C  
HETATM    8  C   UNL     1     -13.601   9.588  71.512  1.00  0.00    -0.397 C  
BRANCH   7   9
HETATM    9  O   UNL     1     -10.874   7.556  71.187  1.00  0.00    -0.234 OA 
BRANCH   9  10
HETATM   10  C   UNL     1      -9.724   6.836  71.105  1.00  0.00    -0.174 C  
HETATM   11  O   UNL     1      -8.612   7.257  71.386  1.00  0.00    -0.115 OA 
BRANCH  10  12
HETATM   12  C   UNL     1     -10.010   5.386  70.816  1.00  0.00    -0.269 C  
BRANCH  12  13
HETATM   13  C   UNL     1      -9.727   4.454  71.990  1.00  0.00    -0.166 C  
HETATM   14  O   UNL     1     -10.210   6.419  73.704  1.00  0.00    -0.217 OA 
HETATM   15  S   UNL     1     -10.499   5.025  73.473  1.00  0.00    -0.259 S  
HETATM   16  O   UNL     1     -12.031   4.929  72.967  1.00  0.00    -0.209 OA 
HETATM   17  O   UNL     1     -10.397   4.026  74.512  1.00  0.00    -0.193 OA 
BRANCH  13  18
HETATM   18  C   UNL     1      -8.256   4.367  72.248  1.00  0.00    -0.108 C  
HETATM   19  O   UNL     1      -7.657   5.067  73.052  1.00  0.00    -0.090 OA 
BRANCH  18  20
HETATM   20  O   UNL     1      -7.656   3.544  71.342  1.00  0.00    -0.049 OA 
BRANCH  20  21
HETATM   21  C   UNL     1      -7.442   4.123  70.043  1.00  0.00    -0.046 C  
HETATM   22  C   UNL     1      -6.923   3.136  68.981  1.00  0.00    -0.044 C  
HETATM   23  C   UNL     1      -7.848   1.910  68.816  1.00  0.00    -0.051 C  
HETATM   24  C   UNL     1      -6.676   3.839  67.626  1.00  0.00    -0.043 C  
HETATM   25  C   UNL     1      -9.244   2.215  68.287  1.00  0.00    -0.238 C  
BRANCH  24  26
HETATM   26  C   UNL     1      -5.668   4.990  67.703  1.00  0.00    -0.017 C  
BRANCH  26  27
HETATM   27  C   UNL     1      -5.745   5.887  66.467  1.00  0.00    -0.017 C  
HETATM   28  C   UNL     1      -7.084   5.726  65.761  1.00  0.00    -0.070 C  
ENDBRANCH  26  27
ENDBRANCH  24  26
ENDBRANCH  20  21
ENDBRANCH  18  20
ENDBRANCH  13  18
ENDBRANCH  12  13
ENDBRANCH  10  12
ENDBRANCH   9  10
ENDBRANCH   7   9
ENDBRANCH   3   4
ENDBRANCH   2   3
TORSDOF 11
ENDMDL
MODEL      391
REMARK 921   NORMALIZED FREE ENERGY PREDICTED BY IDOCK:   -1.00 KCAL/MOL
REMARK 922        TOTAL FREE ENERGY PREDICTED BY IDOCK:   -3.89 KCAL/MOL
REMARK 923 INTER-LIGAND FREE ENERGY PREDICTED BY IDOCK:   -4.22 KCAL/MOL
REMARK 924 INTRA-LIGAND FREE ENERGY PREDICTED BY IDOCK:    0.33 KCAL/MOL
REMARK 927      BINDING AFFINITY PREDICTED BY RF-SCORE:    0.00 PKD
ROOT
HETATM    1  C   UNL     1     -11.144  11.964  67.133  1.00  0.00    -0.347 C  
HETATM    2  C   UNL     1     -10.657  12.022  68.574  1.00  0.00    -0.252 C  
ENDROOT
BRANCH   2   3
HETATM    3  C   UNL     1     -11.715  11.477  69.533  1.00  0.00    -0.413 C  
BRANCH   3   4
HETATM    4  C   UNL     1     -11.951   9.974  69.342  1.00  0.00     0.156 C  
HETATM    5  C   UNL     1     -10.959   9.092  70.131  1.00  0.00    -0.267 C  
HETATM    6  C   UNL     1     -10.914   9.384  71.648  1.00  0.00    -0.382 C  
HETATM    7  C   UNL     1     -11.227   7.599  69.844  1.00  0.00    -0.085 C  
HETATM    8  C   UNL     1     -12.184   9.027  72.405  1.00  0.00    -0.322 C  
BRANCH   7   9
HETATM    9  O   UNL     1     -10.306   6.805  70.615  1.00  0.00    -0.198 OA 
BRANCH   9  10
HETATM   10  C   UNL     1      -9.305   6.212  69.913  1.00  0.00    -0.149 C  
HETATM   11  O   UNL     1      -8.171   6.653  69.801  1.00  0.00    -0.123 OA 
BRANCH  10  12
HETATM   12  C   UNL     1      -9.706   4.836  69.450  1.00  0.00    -0.266 C  
BRANCH  12  13
HETATM   13  C   UNL     1      -8.701   3.746  69.810  1.00  0.00    -0.077 C  
HETATM   14  O   UNL     1      -8.051   5.036  72.033  1.00  0.00    -0.108 OA 
HETATM   15  S   UNL     1      -8.366   3.717  71.544  1.00  0.00    -0.070 S  
HETATM   16  O   UNL     1      -9.862   3.363  72.044  1.00  0.00    -0.154 OA 
HETATM   17  O   UNL     1      -7.584   2.552  71.887  1.00  0.00    -0.043 OA 
BRANCH  13  18
HETATM   18  C   UNL     1      -7.404   3.975  69.100  1.00  0.00    -0.054 C  
HETATM   19  O   UNL     1      -6.448   4.563  69.588  1.00  0.00    -0.030 OA 
BRANCH  18  20
HETATM   20  O   UNL     1      -7.500   3.609  67.791  1.00  0.00    -0.065 OA 
BRANCH  20  21
HETATM   21  C   UNL     1      -8.220   4.531  66.953  1.00  0.00    -0.102 C  
HETATM   22  C   UNL     1      -7.420   5.782  66.545  1.00  0.00    -0.083 C  
HETATM   23  C   UNL     1      -6.092   5.427  65.841  1.00  0.00    -0.033 C  
HETATM   24  C   UNL     1      -8.272   6.744  65.686  1.00  0.00    -0.134 C  
HETATM   25  C   UNL     1      -6.236   4.713  64.504  1.00  0.00    -0.030 C  
BRANCH  24  26
HETATM   26  C   UNL     1      -9.546   7.231  66.382  1.00  0.00    -0.169 C  
BRANCH  26  27
HETATM   27  C   UNL     1      -9.573   8.754  66.507  1.00  0.00    -0.302 C  
HETATM   28  C   UNL     1      -8.654   9.224  67.627  1.00  0.00    -0.116 C  
ENDBRANCH  26  27
ENDBRANCH  24  26
ENDBRANCH  20  21
ENDBRANCH  18  20
ENDBRANCH  13  18
ENDBRANCH  12  13
ENDBRANCH  10  12
ENDBRANCH   9  10
ENDBRANCH   7   9
ENDBRANCH   3   4
ENDBRANCH   2   3
TORSDOF 11
ENDMDL
MODEL      392
REMARK 921   NORMALIZED FREE ENERGY PREDICTED BY IDOCK:   -0.95 KCAL/MOL
REMARK 922        TOTAL FREE ENERGY PREDICTED BY IDOCK:   -3.82 KCAL/MOL
REMARK 923 INTER-LIGAND FREE ENERGY PREDICTED BY IDOCK:   -4.77 KCAL/MOL
REMARK 924 INTRA-LIGAND FREE ENERGY PREDICTED BY IDOCK:    0.95 KCAL/MOL
REMARK 927      BINDING AFFINITY PREDICTED BY RF-SCORE:    0.00 PKD
ROOT
HETATM    1  C   UNL     1     -12.411  15.863  71.519  1.00  0.00    -0.483 C  
HETATM    2  C   UNL     1     -12.265  14.348  71.509  1.00  0.00    -0.406 C  
ENDROOT
BRANCH   2   3
HETATM    3  C   UNL     1     -12.816  13.753  70.214  1.00  0.00    -0.093 C  
BRANCH   3   4
HETATM    4  C   UNL     1     -12.132  12.431  69.846  1.00  0.00    -0.317 C  
HETATM    5  C   UNL     1     -11.797  11.552  71.071  1.00  0.00     0.109 C  
HETATM    6  C   UNL     1     -13.009  11.233  71.977  1.00  0.00    -0.379 C  
HETATM    7  C   UNL     1     -11.065  10.269  70.624  1.00  0.00    -0.280 C  
HETATM    8  C   UNL     1     -14.064  10.340  71.340  1.00  0.00     0.610 C  
BRANCH   7   9
HETATM    9  O   UNL     1     -10.793   9.460  71.784  1.00  0.00    -0.354 OA 
BRANCH   9  10
HETATM   10  C   UNL     1     -10.232   8.246  71.541  1.00  0.00    -0.214 C  
HETATM   11  O   UNL     1      -9.035   8.004  71.596  1.00  0.00    -0.132 OA 
BRANCH  10  12
HETATM   12  C   UNL     1     -11.286   7.181  71.390  1.00  0.00    -0.278 C  
BRANCH  12  13
HETATM   13  C   UNL     1     -10.737   5.829  70.944  1.00  0.00    -0.264 C  
HETATM   14  O   UNL     1      -9.220   5.694  73.114  1.00  0.00    -0.133 OA 
HETATM   15  S   UNL     1     -10.113   4.898  72.309  1.00  0.00    -0.196 S  
HETATM   16  O   UNL     1     -11.502   4.759  73.125  1.00  0.00    -0.309 OA 
HETATM   17  O   UNL     1      -9.799   3.549  71.898  1.00  0.00    -0.158 OA 
BRANCH  13  18
HETATM   18  C   UNL     1      -9.617   6.014  69.970  1.00  0.00    -0.163 C  
HETATM   19  O   UNL     1      -8.442   5.785  70.222  1.00  0.00    -0.124 OA 
BRANCH  18  20
HETATM   20  O   UNL     1     -10.058   6.639  68.841  1.00  0.00    -0.155 OA 
BRANCH  20  21
HETATM   21  C   UNL     1      -9.061   6.824  67.821  1.00  0.00    -0.117 C  
HETATM   22  C   UNL     1      -9.446   7.839  66.729  1.00  0.00    -0.251 C  
HETATM   23  C   UNL     1      -9.801   9.225  67.313  1.00  0.00    -0.236 C  
HETATM   24  C   UNL     1      -8.347   7.952  65.646  1.00  0.00    -0.146 C  
HETATM   25  C   UNL     1      -8.657   9.950  68.008  1.00  0.00    -0.121 C  
BRANCH  24  26
HETATM   26  C   UNL     1      -8.037   6.627  64.942  1.00  0.00    -0.115 C  
BRANCH  26  27
HETATM   27  C   UNL     1      -6.545   6.489  64.637  1.00  0.00    -0.038 C  
HETATM   28  C   UNL     1      -5.797   5.913  65.832  1.00  0.00    -0.024 C  
ENDBRANCH  26  27
ENDBRANCH  24  26
ENDBRANCH  20  21
ENDBRANCH  18  20
ENDBRANCH  13  18
ENDBRANCH  12  13
ENDBRANCH  10  12
ENDBRANCH   9  10
ENDBRANCH   7   9
ENDBRANCH   3   4
ENDBRANCH   2   3
TORSDOF 11
ENDMDL
MODEL      393
REMARK 921   NORMALIZED FREE ENERGY PREDICTED BY IDOCK:   -0.91 KCAL/MOL
REMARK 922        TOTAL FREE ENERGY PREDICTED BY IDOCK:   -3.75 KCAL/MOL
REMARK 923 INTER-LIGAND FREE ENERGY PREDICTED BY IDOCK:   -3.90 KCAL/MOL
REMARK 924 INTRA-LIGAND FREE ENERGY PREDICTED BY IDOCK:    0.16 KCAL/MOL
REMARK 927      BINDING AFFINITY PREDICTED BY RF-SCORE:    0.00 PKD
ROOT
HETATM    1  C   UNL     1      -6.237   9.279  67.233  1.00  0.00    -0.058 C  
HETATM    2  C   UNL     1      -6.087   8.031  66.374  1.00  0.00    -0.045 C  
ENDROOT
BRANCH   2   3
HETATM    3  C   UNL     1      -6.532   8.297  64.936  1.00  0.00    -0.056 C  
BRANCH   3   4
HETATM    4  C   UNL     1      -7.184   9.677  64.778  1.00  0.00    -0.119 C  
HETATM    5  C   UNL     1      -8.702   9.610  64.504  1.00  0.00    -0.227 C  
HETATM    6  C   UNL     1      -9.506   8.815  65.559  1.00  0.00    -0.096 C  
HETATM    7  C   UNL     1      -9.272  11.031  64.304  1.00  0.00    -0.152 C  
HETATM    8  C   UNL     1      -9.553   9.453  66.940  1.00  0.00    -0.217 C  
BRANCH   7   9
HETATM    9  O   UNL     1     -10.690  10.936  64.080  1.00  0.00    -0.353 OA 
BRANCH   9  10
HETATM   10  C   UNL     1     -11.398  12.080  64.275  1.00  0.00    -0.364 C  
HETATM   11  O   UNL     1     -12.544  12.269  63.893  1.00  0.00    -0.591 OA 
BRANCH  10  12
HETATM   12  C   UNL     1     -10.669  13.020  65.197  1.00  0.00    -0.324 C  
BRANCH  12  13
HETATM   13  C   UNL     1     -11.485  14.243  65.605  1.00  0.00    -0.329 C  
HETATM   14  O   UNL     1      -9.281  15.709  65.736  1.00  0.00    -0.321 OA 
HETATM   15  S   UNL     1     -10.633  15.745  65.238  1.00  0.00    -0.400 S  
HETATM   16  O   UNL     1     -10.561  15.563  63.633  1.00  0.00     1.533 OA 
HETATM   17  O   UNL     1     -11.506  16.881  65.433  1.00  0.00     0.341 OA 
BRANCH  13  18
HETATM   18  C   UNL     1     -11.759  14.223  67.076  1.00  0.00    -0.403 C  
HETATM   19  O   UNL     1     -12.175  13.246  67.684  1.00  0.00    -0.292 OA 
BRANCH  18  20
HETATM   20  O   UNL     1     -11.660  15.477  67.602  1.00  0.00    -0.274 OA 
BRANCH  20  21
HETATM   21  C   UNL     1     -11.959  15.572  69.005  1.00  0.00    -0.301 C  
HETATM   22  C   UNL     1     -10.722  15.651  69.919  1.00  0.00    -0.328 C  
HETATM   23  C   UNL     1      -9.789  16.823  69.544  1.00  0.00     0.004 C  
HETATM   24  C   UNL     1     -11.121  15.706  71.412  1.00  0.00    -0.293 C  
HETATM   25  C   UNL     1     -10.386  18.213  69.725  1.00  0.00     0.707 C  
BRANCH  24  26
HETATM   26  C   UNL     1     -11.947  14.502  71.874  1.00  0.00    -0.248 C  
BRANCH  26  27
HETATM   27  C   UNL     1     -12.048  13.436  70.783  1.00  0.00    -0.333 C  
HETATM   28  C   UNL     1     -12.712  12.173  71.317  1.00  0.00    -0.363 C  
ENDBRANCH  26  27
ENDBRANCH  24  26
ENDBRANCH  20  21
ENDBRANCH  18  20
ENDBRANCH  13  18
ENDBRANCH  12  13
ENDBRANCH  10  12
ENDBRANCH   9  10
ENDBRANCH   7   9
ENDBRANCH   3   4
ENDBRANCH   2   3
TORSDOF 11
ENDMDL
MODEL      394
REMARK 921   NORMALIZED FREE ENERGY PREDICTED BY IDOCK:   -0.82 KCAL/MOL
REMARK 922        TOTAL FREE ENERGY PREDICTED BY IDOCK:   -3.60 KCAL/MOL
REMARK 923 INTER-LIGAND FREE ENERGY PREDICTED BY IDOCK:   -5.54 KCAL/MOL
REMARK 924 INTRA-LIGAND FREE ENERGY PREDICTED BY IDOCK:    1.94 KCAL/MOL
REMARK 927      BINDING AFFINITY PREDICTED BY RF-SCORE:    0.00 PKD
ROOT
HETATM    1  C   UNL     1     -10.397  19.043  66.433  1.00  0.00    -0.520 C  
HETATM    2  C   UNL     1     -10.401  18.797  67.935  1.00  0.00    -0.461 C  
ENDROOT
BRANCH   2   3
HETATM    3  C   UNL     1      -9.856  17.407  68.265  1.00  0.00    -0.310 C  
BRANCH   3   4
HETATM    4  C   UNL     1     -10.790  16.290  67.783  1.00  0.00    -0.315 C  
HETATM    5  C   UNL     1     -10.486  14.918  68.423  1.00  0.00    -0.243 C  
HETATM    6  C   UNL     1     -10.493  14.920  69.969  1.00  0.00    -0.060 C  
HETATM    7  C   UNL     1     -11.430  13.839  67.849  1.00  0.00    -0.314 C  
HETATM    8  C   UNL     1     -11.855  15.166  70.601  1.00  0.00    -0.371 C  
BRANCH   7   9
HETATM    9  O   UNL     1     -11.140  12.581  68.485  1.00  0.00    -0.232 OA 
BRANCH   9  10
HETATM   10  C   UNL     1     -10.925  11.531  67.649  1.00  0.00    -0.242 C  
HETATM   11  O   UNL     1     -10.555  11.623  66.488  1.00  0.00    -0.234 OA 
BRANCH  10  12
HETATM   12  C   UNL     1     -11.008  10.222  68.389  1.00  0.00    -0.308 C  
BRANCH  12  13
HETATM   13  C   UNL     1      -9.834   9.285  68.120  1.00  0.00    -0.162 C  
HETATM   14  O   UNL     1      -8.188  11.354  67.928  1.00  0.00    -0.122 OA 
HETATM   15  S   UNL     1      -8.291  10.045  68.522  1.00  0.00    -0.117 S  
HETATM   16  O   UNL     1      -8.561  10.253  70.102  1.00  0.00    -0.014 OA 
HETATM   17  O   UNL     1      -7.221   9.075  68.462  1.00  0.00    -0.072 OA 
BRANCH  13  18
HETATM   18  C   UNL     1      -9.790   8.903  66.674  1.00  0.00    -0.262 C  
HETATM   19  O   UNL     1     -10.515   9.384  65.814  1.00  0.00    -0.007 OA 
BRANCH  18  20
HETATM   20  O   UNL     1      -8.973   7.829  66.484  1.00  0.00    -0.145 OA 
BRANCH  20  21
HETATM   21  C   UNL     1      -9.652   6.580  66.268  1.00  0.00    -0.046 C  
HETATM   22  C   UNL     1      -8.780   5.331  66.495  1.00  0.00    -0.115 C  
HETATM   23  C   UNL     1      -8.151   5.301  67.905  1.00  0.00    -0.099 C  
HETATM   24  C   UNL     1      -9.564   4.031  66.202  1.00  0.00    -0.205 C  
HETATM   25  C   UNL     1      -9.141   5.189  69.057  1.00  0.00    -0.137 C  
BRANCH  24  26
HETATM   26  C   UNL     1     -10.110   3.947  64.773  1.00  0.00    -0.203 C  
BRANCH  26  27
HETATM   27  C   UNL     1      -9.027   4.255  63.739  1.00  0.00    -0.138 C  
HETATM   28  C   UNL     1      -8.007   3.127  63.668  1.00  0.00    -0.081 C  
ENDBRANCH  26  27
ENDBRANCH  24  26
ENDBRANCH  20  21
ENDBRANCH  18  20
ENDBRANCH  13  18
ENDBRANCH  12  13
ENDBRANCH  10  12
ENDBRANCH   9  10
ENDBRANCH   7   9
ENDBRANCH   3   4
ENDBRANCH   2   3
TORSDOF 11
ENDMDL
MODEL      395
REMARK 921   NORMALIZED FREE ENERGY PREDICTED BY IDOCK:   -0.75 KCAL/MOL
REMARK 922        TOTAL FREE ENERGY PREDICTED BY IDOCK:   -3.48 KCAL/MOL
REMARK 923 INTER-LIGAND FREE ENERGY PREDICTED BY IDOCK:   -2.92 KCAL/MOL
REMARK 924 INTRA-LIGAND FREE ENERGY PREDICTED BY IDOCK:   -0.56 KCAL/MOL
REMARK 927      BINDING AFFINITY PREDICTED BY RF-SCORE:    0.00 PKD
ROOT
HETATM    1  C   UNL     1      -9.455   5.022  73.334  1.00  0.00    -0.144 C  
HETATM    2  C   UNL     1      -9.024   3.563  73.280  1.00  0.00    -0.104 C  
ENDROOT
BRANCH   2   3
HETATM    3  C   UNL     1      -9.696   2.836  72.116  1.00  0.00    -0.223 C  
BRANCH   3   4
HETATM    4  C   UNL     1     -10.194   3.805  71.037  1.00  0.00     0.177 C  
HETATM    5  C   UNL     1      -9.098   4.219  70.030  1.00  0.00    -0.175 C  
HETATM    6  C   UNL     1      -8.398   3.033  69.328  1.00  0.00    -0.087 C  
HETATM    7  C   UNL     1      -9.663   5.234  69.013  1.00  0.00    -0.156 C  
HETATM    8  C   UNL     1      -9.285   2.238  68.381  1.00  0.00    -0.241 C  
BRANCH   7   9
HETATM    9  O   UNL     1      -8.627   5.576  68.074  1.00  0.00    -0.102 OA 
BRANCH   9  10
HETATM   10  C   UNL     1      -8.576   6.881  67.699  1.00  0.00    -0.121 C  
HETATM   11  O   UNL     1      -8.035   7.299  66.686  1.00  0.00    -0.109 OA 
BRANCH  10  12
HETATM   12  C   UNL     1      -9.443   7.736  68.586  1.00  0.00    -0.152 C  
BRANCH  12  13
HETATM   13  C   UNL     1      -8.679   8.441  69.703  1.00  0.00    -0.133 C  
HETATM   14  O   UNL     1     -10.933   9.492  70.621  1.00  0.00    -0.255 OA 
HETATM   15  S   UNL     1      -9.733   8.828  71.066  1.00  0.00    -0.254 S  
HETATM   16  O   UNL     1     -10.138   7.313  71.460  1.00  0.00    -0.186 OA 
HETATM   17  O   UNL     1      -8.954   9.298  72.189  1.00  0.00    -0.197 OA 
BRANCH  13  18
HETATM   18  C   UNL     1      -8.089   9.723  69.205  1.00  0.00    -0.115 C  
HETATM   19  O   UNL     1      -7.144  10.294  69.731  1.00  0.00    -0.106 OA 
BRANCH  18  20
HETATM   20  O   UNL     1      -8.858  10.254  68.213  1.00  0.00    -0.122 OA 
BRANCH  20  21
HETATM   21  C   UNL     1      -8.208  10.363  66.934  1.00  0.00    -0.124 C  
HETATM   22  C   UNL     1      -9.103  10.913  65.808  1.00  0.00    -0.214 C  
HETATM   23  C   UNL     1      -9.710  12.290  66.159  1.00  0.00    -0.256 C  
HETATM   24  C   UNL     1      -8.352  10.959  64.458  1.00  0.00     0.140 C  
HETATM   25  C   UNL     1      -8.704  13.421  66.324  1.00  0.00     0.358 C  
BRANCH  24  26
HETATM   26  C   UNL     1      -7.831   9.595  63.994  1.00  0.00    -0.137 C  
BRANCH  26  27
HETATM   27  C   UNL     1      -6.358   9.663  63.590  1.00  0.00    -0.109 C  
HETATM   28  C   UNL     1      -6.014  11.033  63.020  1.00  0.00     0.232 C  
ENDBRANCH  26  27
ENDBRANCH  24  26
ENDBRANCH  20  21
ENDBRANCH  18  20
ENDBRANCH  13  18
ENDBRANCH  12  13
ENDBRANCH  10  12
ENDBRANCH   9  10
ENDBRANCH   7   9
ENDBRANCH   3   4
ENDBRANCH   2   3
TORSDOF 11
ENDMDL
MODEL      396
REMARK 921   NORMALIZED FREE ENERGY PREDICTED BY IDOCK:   -0.64 KCAL/MOL
REMARK 922        TOTAL FREE ENERGY PREDICTED BY IDOCK:   -3.30 KCAL/MOL
REMARK 923 INTER-LIGAND FREE ENERGY PREDICTED BY IDOCK:   -5.47 KCAL/MOL
REMARK 924 INTRA-LIGAND FREE ENERGY PREDICTED BY IDOCK:    2.17 KCAL/MOL
REMARK 927      BINDING AFFINITY PREDICTED BY RF-SCORE:    0.00 PKD
ROOT
HETATM    1  C   UNL     1     -10.145  19.405  66.292  1.00  0.00    -0.539 C  
HETATM    2  C   UNL     1     -10.213  19.473  67.812  1.00  0.00    -0.550 C  
ENDROOT
BRANCH   2   3
HETATM    3  C   UNL     1      -9.437  18.321  68.448  1.00  0.00    -0.336 C  
BRANCH   3   4
HETATM    4  C   UNL     1      -9.403  17.079  67.549  1.00  0.00    -0.233 C  
HETATM    5  C   UNL     1      -8.676  15.877  68.190  1.00  0.00    -0.171 C  
HETATM    6  C   UNL     1      -9.230  15.458  69.571  1.00  0.00    -0.240 C  
HETATM    7  C   UNL     1      -8.638  14.688  67.205  1.00  0.00    -0.214 C  
HETATM    8  C   UNL     1     -10.638  14.882  69.545  1.00  0.00    -0.242 C  
BRANCH   7   9
HETATM    9  O   UNL     1      -7.979  13.578  67.842  1.00  0.00    -0.132 OA 
BRANCH   9  10
HETATM   10  C   UNL     1      -8.555  12.361  67.654  1.00  0.00    -0.172 C  
HETATM   11  O   UNL     1      -9.298  12.072  66.727  1.00  0.00    -0.193 OA 
BRANCH  10  12
HETATM   12  C   UNL     1      -8.008  11.346  68.622  1.00  0.00    -0.141 C  
BRANCH  12  13
HETATM   13  C   UNL     1      -8.022   9.915  68.090  1.00  0.00    -0.100 C  
HETATM   14  O   UNL     1      -7.727  10.803  65.610  1.00  0.00    -0.138 OA 
HETATM   15  S   UNL     1      -7.228   9.800  66.517  1.00  0.00    -0.096 S  
HETATM   16  O   UNL     1      -5.753  10.267  66.987  1.00  0.00    -0.045 OA 
HETATM   17  O   UNL     1      -7.065   8.416  66.135  1.00  0.00    -0.074 OA 
BRANCH  13  18
HETATM   18  C   UNL     1      -9.428   9.431  67.927  1.00  0.00    -0.132 C  
HETATM   19  O   UNL     1     -10.419  10.121  68.121  1.00  0.00    -0.181 OA 
BRANCH  18  20
HETATM   20  O   UNL     1      -9.452   8.084  67.718  1.00  0.00    -0.142 OA 
BRANCH  20  21
HETATM   21  C   UNL     1      -9.437   7.283  68.913  1.00  0.00    -0.143 C  
HETATM   22  C   UNL     1      -9.126   5.793  68.679  1.00  0.00    -0.116 C  
HETATM   23  C   UNL     1      -7.787   5.581  67.939  1.00  0.00    -0.096 C  
HETATM   24  C   UNL     1      -9.172   4.990  69.999  1.00  0.00    -0.182 C  
HETATM   25  C   UNL     1      -6.546   6.031  68.699  1.00  0.00    -0.058 C  
BRANCH  24  26
HETATM   26  C   UNL     1     -10.521   5.062  70.720  1.00  0.00    -0.222 C  
BRANCH  26  27
HETATM   27  C   UNL     1     -10.441   5.921  71.982  1.00  0.00    -0.259 C  
HETATM   28  C   UNL     1     -11.621   6.881  72.062  1.00  0.00    -0.322 C  
ENDBRANCH  26  27
ENDBRANCH  24  26
ENDBRANCH  20  21
ENDBRANCH  18  20
ENDBRANCH  13  18
ENDBRANCH  12  13
ENDBRANCH  10  12
ENDBRANCH   9  10
ENDBRANCH   7   9
ENDBRANCH   3   4
ENDBRANCH   2   3
TORSDOF 11
ENDMDL
MODEL      397
REMARK 921   NORMALIZED FREE ENERGY PREDICTED BY IDOCK:   -0.46 KCAL/MOL
REMARK 922        TOTAL FREE ENERGY PREDICTED BY IDOCK:   -3.01 KCAL/MOL
REMARK 923 INTER-LIGAND FREE ENERGY PREDICTED BY IDOCK:   -4.12 KCAL/MOL
REMARK 924 INTRA-LIGAND FREE ENERGY PREDICTED BY IDOCK:    1.11 KCAL/MOL
REMARK 927      BINDING AFFINITY PREDICTED BY RF-SCORE:    0.00 PKD
ROOT
HETATM    1  C   UNL     1     -12.368   8.057  72.753  1.00  0.00    -0.065 C  
HETATM    2  C   UNL     1     -11.338   7.171  72.066  1.00  0.00    -0.293 C  
ENDROOT
BRANCH   2   3
HETATM    3  C   UNL     1     -11.752   6.863  70.627  1.00  0.00    -0.417 C  
BRANCH   3   4
HETATM    4  C   UNL     1     -10.879   7.598  69.603  1.00  0.00    -0.195 C  
HETATM    5  C   UNL     1      -9.635   6.794  69.168  1.00  0.00    -0.139 C  
HETATM    6  C   UNL     1      -9.948   5.385  68.613  1.00  0.00    -0.232 C  
HETATM    7  C   UNL     1      -8.782   7.620  68.181  1.00  0.00    -0.122 C  
HETATM    8  C   UNL     1     -10.699   5.373  67.289  1.00  0.00    -0.180 C  
BRANCH   7   9
HETATM    9  O   UNL     1      -7.648   6.833  67.774  1.00  0.00    -0.102 OA 
BRANCH   9  10
HETATM   10  C   UNL     1      -7.212   7.036  66.503  1.00  0.00    -0.082 C  
HETATM   11  O   UNL     1      -6.275   6.451  65.981  1.00  0.00    -0.035 OA 
BRANCH  10  12
HETATM   12  C   UNL     1      -8.154   7.932  65.742  1.00  0.00    -0.123 C  
BRANCH  12  13
HETATM   13  C   UNL     1      -7.504   9.210  65.220  1.00  0.00    -0.097 C  
HETATM   14  O   UNL     1      -5.221   7.922  64.822  1.00  0.00    -0.029 OA 
HETATM   15  S   UNL     1      -6.115   8.857  64.187  1.00  0.00    -0.072 S  
HETATM   16  O   UNL     1      -6.909   8.055  63.030  1.00  0.00    -0.082 OA 
HETATM   17  O   UNL     1      -5.651  10.062  63.538  1.00  0.00    -0.095 OA 
BRANCH  13  18
HETATM   18  C   UNL     1      -7.022  10.055  66.357  1.00  0.00    -0.101 C  
HETATM   19  O   UNL     1      -5.853  10.129  66.710  1.00  0.00    -0.049 OA 
BRANCH  18  20
HETATM   20  O   UNL     1      -8.074  10.575  67.050  1.00  0.00    -0.115 OA 
BRANCH  20  21
HETATM   21  C   UNL     1      -7.788  11.791  67.764  1.00  0.00    -0.135 C  
HETATM   22  C   UNL     1      -8.370  13.062  67.119  1.00  0.00    -0.153 C  
HETATM   23  C   UNL     1      -9.898  12.971  66.914  1.00  0.00    -0.240 C  
HETATM   24  C   UNL     1      -7.985  14.330  67.916  1.00  0.00    -0.156 C  
HETATM   25  C   UNL     1     -10.721  12.879  68.192  1.00  0.00    -0.258 C  
BRANCH  24  26
HETATM   26  C   UNL     1      -6.474  14.542  68.048  1.00  0.00    -0.158 C  
BRANCH  26  27
HETATM   27  C   UNL     1      -6.106  16.025  67.983  1.00  0.00    -0.140 C  
HETATM   28  C   UNL     1      -6.910  16.737  66.904  1.00  0.00    -0.255 C  
ENDBRANCH  26  27
ENDBRANCH  24  26
ENDBRANCH  20  21
ENDBRANCH  18  20
ENDBRANCH  13  18
ENDBRANCH  12  13
ENDBRANCH  10  12
ENDBRANCH   9  10
ENDBRANCH   7   9
ENDBRANCH   3   4
ENDBRANCH   2   3
TORSDOF 11
ENDMDL
MODEL      398
REMARK 921   NORMALIZED FREE ENERGY PREDICTED BY IDOCK:   -0.38 KCAL/MOL
REMARK 922        TOTAL FREE ENERGY PREDICTED BY IDOCK:   -2.88 KCAL/MOL
REMARK 923 INTER-LIGAND FREE ENERGY PREDICTED BY IDOCK:   -5.20 KCAL/MOL
REMARK 924 INTRA-LIGAND FREE ENERGY PREDICTED BY IDOCK:    2.32 KCAL/MOL
REMARK 927      BINDING AFFINITY PREDICTED BY RF-SCORE:    0.00 PKD
ROOT
HETATM    1  C   UNL     1      -6.273   7.068  72.844  1.00  0.00    -0.057 C  
HETATM    2  C   UNL     1      -6.915   8.376  72.402  1.00  0.00    -0.108 C  
ENDROOT
BRANCH   2   3
HETATM    3  C   UNL     1      -8.438   8.255  72.367  1.00  0.00    -0.252 C  
BRANCH   3   4
HETATM    4  C   UNL     1      -9.046   8.953  71.144  1.00  0.00    -0.315 C  
HETATM    5  C   UNL     1      -9.105   8.053  69.890  1.00  0.00    -0.145 C  
HETATM    6  C   UNL     1      -9.847   6.713  70.100  1.00  0.00    -0.180 C  
HETATM    7  C   UNL     1      -9.677   8.842  68.693  1.00  0.00    -0.162 C  
HETATM    8  C   UNL     1     -11.342   6.845  70.353  1.00  0.00    -0.376 C  
BRANCH   7   9
HETATM    9  O   UNL     1      -9.744   7.969  67.550  1.00  0.00    -0.147 OA 
BRANCH   9  10
HETATM   10  C   UNL     1      -8.557   7.677  66.957  1.00  0.00    -0.122 C  
HETATM   11  O   UNL     1      -8.085   6.555  66.847  1.00  0.00    -0.110 OA 
BRANCH  10  12
HETATM   12  C   UNL     1      -7.980   8.887  66.271  1.00  0.00    -0.103 C  
BRANCH  12  13
HETATM   13  C   UNL     1      -8.838   9.414  65.124  1.00  0.00    -0.195 C  
HETATM   14  O   UNL     1      -6.790   9.200  63.455  1.00  0.00    -0.090 OA 
HETATM   15  S   UNL     1      -8.200   8.916  63.554  1.00  0.00    -0.163 S  
HETATM   16  O   UNL     1      -8.357   7.320  63.757  1.00  0.00     0.021 OA 
HETATM   17  O   UNL     1      -9.137   9.242  62.503  1.00  0.00    -0.239 OA 
BRANCH  13  18
HETATM   18  C   UNL     1      -8.880  10.909  65.145  1.00  0.00    -0.156 C  
HETATM   19  O   UNL     1      -9.064  11.605  64.155  1.00  0.00     0.084 OA 
BRANCH  18  20
HETATM   20  O   UNL     1      -8.503  11.385  66.365  1.00  0.00    -0.173 OA 
BRANCH  20  21
HETATM   21  C   UNL     1      -9.542  12.050  67.105  1.00  0.00    -0.192 C  
HETATM   22  C   UNL     1     -10.176  13.250  66.377  1.00  0.00    -0.292 C  
HETATM   23  C   UNL     1     -10.741  12.866  64.991  1.00  0.00    -0.326 C  
HETATM   24  C   UNL     1     -11.251  13.940  67.249  1.00  0.00    -0.329 C  
HETATM   25  C   UNL     1     -11.900  11.880  65.012  1.00  0.00    -0.213 C  
BRANCH  24  26
HETATM   26  C   UNL     1     -10.720  14.455  68.590  1.00  0.00    -0.258 C  
BRANCH  26  27
HETATM   27  C   UNL     1     -11.496  13.863  69.767  1.00  0.00    -0.281 C  
HETATM   28  C   UNL     1     -12.660  14.765  70.158  1.00  0.00    -0.319 C  
ENDBRANCH  26  27
ENDBRANCH  24  26
ENDBRANCH  20  21
ENDBRANCH  18  20
ENDBRANCH  13  18
ENDBRANCH  12  13
ENDBRANCH  10  12
ENDBRANCH   9  10
ENDBRANCH   7   9
ENDBRANCH   3   4
ENDBRANCH   2   3
TORSDOF 11
ENDMDL
MODEL      399
REMARK 921   NORMALIZED FREE ENERGY PREDICTED BY IDOCK:   -0.30 KCAL/MOL
REMARK 922        TOTAL FREE ENERGY PREDICTED BY IDOCK:   -2.74 KCAL/MOL
REMARK 923 INTER-LIGAND FREE ENERGY PREDICTED BY IDOCK:   -3.69 KCAL/MOL
REMARK 924 INTRA-LIGAND FREE ENERGY PREDICTED BY IDOCK:    0.95 KCAL/MOL
REMARK 927      BINDING AFFINITY PREDICTED BY RF-SCORE:    0.00 PKD
ROOT
HETATM    1  C   UNL     1     -12.180   5.880  72.650  1.00  0.00     0.036 C  
HETATM    2  C   UNL     1     -10.984   5.459  73.493  1.00  0.00    -0.323 C  
ENDROOT
BRANCH   2   3
HETATM    3  C   UNL     1     -10.534   4.043  73.137  1.00  0.00    -0.251 C  
BRANCH   3   4
HETATM    4  C   UNL     1     -10.250   3.884  71.638  1.00  0.00    -0.088 C  
HETATM    5  C   UNL     1      -9.098   4.781  71.133  1.00  0.00    -0.180 C  
HETATM    6  C   UNL     1      -7.767   4.599  71.898  1.00  0.00    -0.097 C  
HETATM    7  C   UNL     1      -8.911   4.604  69.611  1.00  0.00    -0.083 C  
HETATM    8  C   UNL     1      -7.100   3.245  71.706  1.00  0.00    -0.035 C  
BRANCH   7   9
HETATM    9  O   UNL     1      -7.814   5.430  69.179  1.00  0.00    -0.087 OA 
BRANCH   9  10
HETATM   10  C   UNL     1      -8.111   6.362  68.234  1.00  0.00    -0.113 C  
HETATM   11  O   UNL     1      -9.214   6.527  67.735  1.00  0.00    -0.116 OA 
BRANCH  10  12
HETATM   12  C   UNL     1      -6.956   7.304  68.019  1.00  0.00    -0.079 C  
BRANCH  12  13
HETATM   13  C   UNL     1      -7.217   8.724  68.513  1.00  0.00    -0.074 C  
HETATM   14  O   UNL     1      -8.980   7.819  70.274  1.00  0.00    -0.146 OA 
HETATM   15  S   UNL     1      -7.870   8.730  70.154  1.00  0.00    -0.104 S  
HETATM   16  O   UNL     1      -6.603   8.046  70.890  1.00  0.00    -0.037 OA 
HETATM   17  O   UNL     1      -7.907  10.077  70.676  1.00  0.00    -0.236 OA 
BRANCH  13  18
HETATM   18  C   UNL     1      -8.206   9.413  67.627  1.00  0.00    -0.114 C  
HETATM   19  O   UNL     1      -8.369   9.150  66.444  1.00  0.00    -0.119 OA 
BRANCH  18  20
HETATM   20  O   UNL     1      -8.759  10.485  68.264  1.00  0.00    -0.126 OA 
BRANCH  20  21
HETATM   21  C   UNL     1      -8.691  11.724  67.537  1.00  0.00    -0.159 C  
HETATM   22  C   UNL     1      -7.754  12.777  68.157  1.00  0.00    -0.137 C  
HETATM   23  C   UNL     1      -6.315  12.248  68.343  1.00  0.00    -0.054 C  
HETATM   24  C   UNL     1      -7.767  14.095  67.348  1.00  0.00    -0.189 C  
HETATM   25  C   UNL     1      -5.576  11.909  67.056  1.00  0.00    -0.126 C  
BRANCH  24  26
HETATM   26  C   UNL     1      -9.154  14.735  67.233  1.00  0.00    -0.214 C  
BRANCH  26  27
HETATM   27  C   UNL     1      -9.229  16.056  68.000  1.00  0.00    -0.193 C  
HETATM   28  C   UNL     1      -9.113  17.242  67.051  1.00  0.00    -0.247 C  
ENDBRANCH  26  27
ENDBRANCH  24  26
ENDBRANCH  20  21
ENDBRANCH  18  20
ENDBRANCH  13  18
ENDBRANCH  12  13
ENDBRANCH  10  12
ENDBRANCH   9  10
ENDBRANCH   7   9
ENDBRANCH   3   4
ENDBRANCH   2   3
TORSDOF 11
ENDMDL
MODEL      400
REMARK 921   NORMALIZED FREE ENERGY PREDICTED BY IDOCK:    0.04 KCAL/MOL
REMARK 922        TOTAL FREE ENERGY PREDICTED BY IDOCK:   -2.19 KCAL/MOL
REMARK 923 INTER-LIGAND FREE ENERGY PREDICTED BY IDOCK:   -4.71 KCAL/MOL
REMARK 924 INTRA-LIGAND FREE ENERGY PREDICTED BY IDOCK:    2.53 KCAL/MOL
REMARK 927      BINDING AFFINITY PREDICTED BY RF-SCORE:    0.00 PKD
ROOT
HETATM    1  C   UNL     1     -13.047   8.464  72.936  1.00  0.00     0.166 C  
HETATM    2  C   UNL     1     -12.325   7.760  71.796  1.00  0.00    -0.346 C  
ENDROOT
BRANCH   2   3
HETATM    3  C   UNL     1     -12.629   8.432  70.457  1.00  0.00     0.502 C  
BRANCH   3   4
HETATM    4  C   UNL     1     -11.434   9.232  69.925  1.00  0.00    -0.006 C  
HETATM    5  C   UNL     1     -10.161   8.379  69.731  1.00  0.00    -0.207 C  
HETATM    6  C   UNL     1     -10.356   7.142  68.824  1.00  0.00    -0.200 C  
HETATM    7  C   UNL     1      -8.993   9.264  69.247  1.00  0.00    -0.147 C  
HETATM    8  C   UNL     1     -10.639   7.461  67.363  1.00  0.00    -0.371 C  
BRANCH   7   9
HETATM    9  O   UNL     1      -7.832   8.435  69.049  1.00  0.00    -0.098 OA 
BRANCH   9  10
HETATM   10  C   UNL     1      -7.159   8.628  67.884  1.00  0.00    -0.083 C  
HETATM   11  O   UNL     1      -6.056   8.169  67.627  1.00  0.00    -0.048 OA 
BRANCH  10  12
HETATM   12  C   UNL     1      -8.026   9.317  66.863  1.00  0.00    -0.105 C  
BRANCH  12  13
HETATM   13  C   UNL     1      -7.609  10.755  66.568  1.00  0.00    -0.139 C  
HETATM   14  O   UNL     1      -5.742  10.630  68.446  1.00  0.00    -0.044 OA 
HETATM   15  S   UNL     1      -5.951  11.070  67.089  1.00  0.00    -0.083 S  
HETATM   16  O   UNL     1      -5.216  10.005  66.119  1.00  0.00    -0.040 OA 
HETATM   17  O   UNL     1      -5.509  12.360  66.611  1.00  0.00    -0.291 OA 
BRANCH  13  18
HETATM   18  C   UNL     1      -8.502  11.717  67.286  1.00  0.00    -0.160 C  
HETATM   19  O   UNL     1      -8.244  12.212  68.375  1.00  0.00    -0.154 OA 
BRANCH  18  20
HETATM   20  O   UNL     1      -9.706  11.819  66.656  1.00  0.00    -0.194 OA 
BRANCH  20  21
HETATM   21  C   UNL     1     -10.479  12.980  67.008  1.00  0.00    -0.247 C  
HETATM   22  C   UNL     1     -10.281  14.187  66.072  1.00  0.00    -0.318 C  
HETATM   23  C   UNL     1     -10.575  13.841  64.595  1.00  0.00    -0.443 C  
HETATM   24  C   UNL     1     -11.108  15.408  66.538  1.00  0.00    -0.227 C  
HETATM   25  C   UNL     1     -12.018  13.459  64.292  1.00  0.00    -0.481 C  
BRANCH  24  26
HETATM   26  C   UNL     1     -10.771  15.876  67.956  1.00  0.00    -0.301 C  
BRANCH  26  27
HETATM   27  C   UNL     1     -10.650  17.399  68.032  1.00  0.00    -0.389 C  
HETATM   28  C   UNL     1      -9.227  17.846  67.723  1.00  0.00    -0.258 C  
ENDBRANCH  26  27
ENDBRANCH  24  26
ENDBRANCH  20  21
ENDBRANCH  18  20
ENDBRANCH  13  18
ENDBRANCH  12  13
ENDBRANCH  10  12
ENDBRANCH   9  10
ENDBRANCH   7   9
ENDBRANCH   3   4
ENDBRANCH   2   3
TORSDOF 11
ENDMDL
MODEL      401
REMARK 921   NORMALIZED FREE ENERGY PREDICTED BY IDOCK:    0.17 KCAL/MOL
REMARK 922        TOTAL FREE ENERGY PREDICTED BY IDOCK:   -1.97 KCAL/MOL
REMARK 923 INTER-LIGAND FREE ENERGY PREDICTED BY IDOCK:   -1.24 KCAL/MOL
REMARK 924 INTRA-LIGAND FREE ENERGY PREDICTED BY IDOCK:   -0.73 KCAL/MOL
REMARK 927      BINDING AFFINITY PREDICTED BY RF-SCORE:    0.00 PKD
ROOT
HETATM    1  C   UNL     1      -7.515  11.517  62.684  1.00  0.00     0.786 C  
HETATM    2  C   UNL     1      -8.696  10.598  62.962  1.00  0.00    -0.210 C  
ENDROOT
BRANCH   2   3
HETATM    3  C   UNL     1      -8.544   9.902  64.314  1.00  0.00    -0.199 C  
BRANCH   3   4
HETATM    4  C   UNL     1      -7.076   9.632  64.665  1.00  0.00    -0.120 C  
HETATM    5  C   UNL     1      -6.837   8.227  65.260  1.00  0.00    -0.059 C  
HETATM    6  C   UNL     1      -7.344   7.065  64.376  1.00  0.00    -0.085 C  
HETATM    7  C   UNL     1      -5.350   8.052  65.635  1.00  0.00    -0.028 C  
HETATM    8  C   UNL     1      -6.593   6.885  63.065  1.00  0.00    -0.043 C  
BRANCH   7   9
HETATM    9  O   UNL     1      -5.155   6.725  66.159  1.00  0.00    -0.016 OA 
BRANCH   9  10
HETATM   10  C   UNL     1      -5.631   6.509  67.414  1.00  0.00    -0.012 C  
HETATM   11  O   UNL     1      -5.339   7.171  68.399  1.00  0.00    -0.019 OA 
BRANCH  10  12
HETATM   12  C   UNL     1      -6.723   5.472  67.409  1.00  0.00    -0.059 C  
BRANCH  12  13
HETATM   13  C   UNL     1      -6.954   4.812  68.766  1.00  0.00    -0.052 C  
HETATM   14  O   UNL     1      -8.529   2.996  67.647  1.00  0.00    -0.080 OA 
HETATM   15  S   UNL     1      -7.447   3.125  68.591  1.00  0.00    -0.048 S  
HETATM   16  O   UNL     1      -6.107   2.585  67.864  1.00  0.00    -0.023 OA 
HETATM   17  O   UNL     1      -7.452   2.465  69.877  1.00  0.00    -0.043 OA 
BRANCH  13  18
HETATM   18  C   UNL     1      -8.031   5.525  69.519  1.00  0.00    -0.094 C  
HETATM   19  O   UNL     1      -8.726   5.005  70.382  1.00  0.00    -0.104 OA 
BRANCH  18  20
HETATM   20  O   UNL     1      -8.254   6.761  68.988  1.00  0.00    -0.115 OA 
BRANCH  20  21
HETATM   21  C   UNL     1      -9.378   7.466  69.543  1.00  0.00    -0.156 C  
HETATM   22  C   UNL     1      -9.005   8.595  70.520  1.00  0.00    -0.185 C  
HETATM   23  C   UNL     1      -8.051   9.632  69.885  1.00  0.00    -0.180 C  
HETATM   24  C   UNL     1     -10.262   9.277  71.108  1.00  0.00    -0.387 C  
HETATM   25  C   UNL     1      -8.633  10.422  68.720  1.00  0.00    -0.141 C  
BRANCH  24  26
HETATM   26  C   UNL     1     -11.189   8.317  71.860  1.00  0.00    -0.365 C  
BRANCH  26  27
HETATM   27  C   UNL     1     -12.198   9.073  72.726  1.00  0.00     0.133 C  
HETATM   28  C   UNL     1     -13.420   8.210  73.015  1.00  0.00     0.666 C  
ENDBRANCH  26  27
ENDBRANCH  24  26
ENDBRANCH  20  21
ENDBRANCH  18  20
ENDBRANCH  13  18
ENDBRANCH  12  13
ENDBRANCH  10  12
ENDBRANCH   9  10
ENDBRANCH   7   9
ENDBRANCH   3   4
ENDBRANCH   2   3
TORSDOF 11
ENDMDL
MODEL      402
REMARK 921   NORMALIZED FREE ENERGY PREDICTED BY IDOCK:    0.18 KCAL/MOL
REMARK 922        TOTAL FREE ENERGY PREDICTED BY IDOCK:   -1.95 KCAL/MOL
REMARK 923 INTER-LIGAND FREE ENERGY PREDICTED BY IDOCK:   -1.41 KCAL/MOL
REMARK 924 INTRA-LIGAND FREE ENERGY PREDICTED BY IDOCK:   -0.53 KCAL/MOL
REMARK 927      BINDING AFFINITY PREDICTED BY RF-SCORE:    0.00 PKD
ROOT
HETATM    1  C   UNL     1      -5.713   7.660  72.820  1.00  0.00    -0.040 C  
HETATM    2  C   UNL     1      -6.293   8.952  72.259  1.00  0.00    -0.012 C  
ENDROOT
BRANCH   2   3
HETATM    3  C   UNL     1      -7.789   9.054  72.552  1.00  0.00     0.474 C  
BRANCH   3   4
HETATM    4  C   UNL     1      -8.564   9.690  71.392  1.00  0.00     0.885 C  
HETATM    5  C   UNL     1      -8.649   8.787  70.142  1.00  0.00    -0.149 C  
HETATM    6  C   UNL     1      -9.242   7.385  70.408  1.00  0.00    -0.158 C  
HETATM    7  C   UNL     1      -9.395   9.517  69.005  1.00  0.00    -0.155 C  
HETATM    8  C   UNL     1     -10.715   7.377  70.791  1.00  0.00    -0.245 C  
BRANCH   7   9
HETATM    9  O   UNL     1      -9.481   8.640  67.867  1.00  0.00    -0.138 OA 
BRANCH   9  10
HETATM   10  C   UNL     1      -8.301   8.141  67.413  1.00  0.00    -0.122 C  
HETATM   11  O   UNL     1      -8.065   6.956  67.228  1.00  0.00    -0.115 OA 
BRANCH  10  12
HETATM   12  C   UNL     1      -7.377   9.246  66.973  1.00  0.00    -0.091 C  
BRANCH  12  13
HETATM   13  C   UNL     1      -8.090  10.416  66.301  1.00  0.00    -0.136 C  
HETATM   14  O   UNL     1      -7.173   9.652  63.933  1.00  0.00    -0.105 OA 
HETATM   15  S   UNL     1      -8.377  10.102  64.586  1.00  0.00    -0.171 S  
HETATM   16  O   UNL     1      -9.340   8.815  64.763  1.00  0.00     0.118 OA 
HETATM   17  O   UNL     1      -9.234  11.121  64.024  1.00  0.00    -0.184 OA 
BRANCH  13  18
HETATM   18  C   UNL     1      -7.266  11.660  66.403  1.00  0.00     0.133 C  
HETATM   19  O   UNL     1      -6.254  11.871  65.748  1.00  0.00     0.547 OA 
BRANCH  18  20
HETATM   20  O   UNL     1      -7.687  12.433  67.445  1.00  0.00    -0.152 OA 
BRANCH  20  21
HETATM   21  C   UNL     1      -8.932  13.120  67.227  1.00  0.00    -0.216 C  
HETATM   22  C   UNL     1      -9.461  13.887  68.453  1.00  0.00    -0.211 C  
HETATM   23  C   UNL     1      -8.436  14.908  68.995  1.00  0.00    -0.178 C  
HETATM   24  C   UNL     1     -10.821  14.561  68.157  1.00  0.00    -0.246 C  
HETATM   25  C   UNL     1      -8.093  16.051  68.049  1.00  0.00    -0.148 C  
BRANCH  24  26
HETATM   26  C   UNL     1     -11.917  13.580  67.732  1.00  0.00    -0.369 C  
BRANCH  26  27
HETATM   27  C   UNL     1     -12.690  14.091  66.516  1.00  0.00    -0.037 C  
HETATM   28  C   UNL     1     -11.783  14.898  65.596  1.00  0.00    -0.194 C  
ENDBRANCH  26  27
ENDBRANCH  24  26
ENDBRANCH  20  21
ENDBRANCH  18  20
ENDBRANCH  13  18
ENDBRANCH  12  13
ENDBRANCH  10  12
ENDBRANCH   9  10
ENDBRANCH   7   9
ENDBRANCH   3   4
ENDBRANCH   2   3
TORSDOF 11
ENDMDL
MODEL      403
REMARK 921   NORMALIZED FREE ENERGY PREDICTED BY IDOCK:    0.19 KCAL/MOL
REMARK 922        TOTAL FREE ENERGY PREDICTED BY IDOCK:   -1.94 KCAL/MOL
REMARK 923 INTER-LIGAND FREE ENERGY PREDICTED BY IDOCK:   -2.02 KCAL/MOL
REMARK 924 INTRA-LIGAND FREE ENERGY PREDICTED BY IDOCK:    0.08 KCAL/MOL
REMARK 927      BINDING AFFINITY PREDICTED BY RF-SCORE:    0.00 PKD
ROOT
HETATM    1  C   UNL     1     -12.496  11.248  68.823  1.00  0.00     0.395 C  
HETATM    2  C   UNL     1     -11.112  11.669  68.351  1.00  0.00    -0.285 C  
ENDROOT
BRANCH   2   3
HETATM    3  C   UNL     1     -10.071  11.466  69.452  1.00  0.00     0.147 C  
BRANCH   3   4
HETATM    4  C   UNL     1      -9.275  10.169  69.264  1.00  0.00    -0.220 C  
HETATM    5  C   UNL     1      -9.305   9.245  70.501  1.00  0.00    -0.316 C  
HETATM    6  C   UNL     1     -10.725   8.873  70.985  1.00  0.00    -0.315 C  
HETATM    7  C   UNL     1      -8.439   7.992  70.253  1.00  0.00    -0.127 C  
HETATM    8  C   UNL     1     -11.515   7.993  70.027  1.00  0.00     0.065 C  
BRANCH   7   9
HETATM    9  O   UNL     1      -8.511   7.140  71.412  1.00  0.00    -0.115 OA 
BRANCH   9  10
HETATM   10  C   UNL     1      -8.944   5.872  71.188  1.00  0.00    -0.139 C  
HETATM   11  O   UNL     1      -9.400   5.463  70.130  1.00  0.00    -0.140 OA 
BRANCH  10  12
HETATM   12  C   UNL     1      -8.609   4.971  72.347  1.00  0.00    -0.124 C  
BRANCH  12  13
HETATM   13  C   UNL     1      -7.460   4.006  72.068  1.00  0.00    -0.065 C  
HETATM   14  O   UNL     1      -5.865   5.398  73.665  1.00  0.00    -0.030 OA 
HETATM   15  S   UNL     1      -6.254   4.044  73.358  1.00  0.00    -0.032 S  
HETATM   16  O   UNL     1      -7.208   3.532  74.558  1.00  0.00    -0.050 OA 
HETATM   17  O   UNL     1      -5.293   2.979  73.180  1.00  0.00     0.000 OA 
BRANCH  13  18
HETATM   18  C   UNL     1      -6.772   4.368  70.790  1.00  0.00    -0.035 C  
HETATM   19  O   UNL     1      -6.093   5.374  70.636  1.00  0.00    -0.020 OA 
BRANCH  18  20
HETATM   20  O   UNL     1      -7.152   3.531  69.784  1.00  0.00    -0.041 OA 
BRANCH  20  21
HETATM   21  C   UNL     1      -7.289   4.154  68.495  1.00  0.00    -0.056 C  
HETATM   22  C   UNL     1      -6.794   3.297  67.316  1.00  0.00    -0.046 C  
HETATM   23  C   UNL     1      -7.486   1.917  67.260  1.00  0.00    -0.059 C  
HETATM   24  C   UNL     1      -6.931   4.048  65.971  1.00  0.00    -0.065 C  
HETATM   25  C   UNL     1      -8.986   1.952  66.998  1.00  0.00    -0.140 C  
BRANCH  24  26
HETATM   26  C   UNL     1      -6.162   5.371  65.922  1.00  0.00    -0.034 C  
BRANCH  26  27
HETATM   27  C   UNL     1      -7.058   6.528  65.477  1.00  0.00    -0.064 C  
HETATM   28  C   UNL     1      -7.741   6.207  64.154  1.00  0.00    -0.106 C  
ENDBRANCH  26  27
ENDBRANCH  24  26
ENDBRANCH  20  21
ENDBRANCH  18  20
ENDBRANCH  13  18
ENDBRANCH  12  13
ENDBRANCH  10  12
ENDBRANCH   9  10
ENDBRANCH   7   9
ENDBRANCH   3   4
ENDBRANCH   2   3
TORSDOF 11
ENDMDL
MODEL      404
REMARK 921   NORMALIZED FREE ENERGY PREDICTED BY IDOCK:    0.36 KCAL/MOL
REMARK 922        TOTAL FREE ENERGY PREDICTED BY IDOCK:   -1.65 KCAL/MOL
REMARK 923 INTER-LIGAND FREE ENERGY PREDICTED BY IDOCK:   -2.66 KCAL/MOL
REMARK 924 INTRA-LIGAND FREE ENERGY PREDICTED BY IDOCK:    1.01 KCAL/MOL
REMARK 927      BINDING AFFINITY PREDICTED BY RF-SCORE:    0.00 PKD
ROOT
HETATM    1  C   UNL     1     -10.967   9.453  66.827  1.00  0.00     0.163 C  
HETATM    2  C   UNL     1     -10.524  10.792  67.399  1.00  0.00    -0.268 C  
ENDROOT
BRANCH   2   3
HETATM    3  C   UNL     1     -10.528  10.765  68.927  1.00  0.00    -0.228 C  
BRANCH   3   4
HETATM    4  C   UNL     1     -10.963   9.402  69.481  1.00  0.00    -0.193 C  
HETATM    5  C   UNL     1     -10.201   8.214  68.853  1.00  0.00    -0.221 C  
HETATM    6  C   UNL     1      -8.662   8.312  68.966  1.00  0.00    -0.143 C  
HETATM    7  C   UNL     1     -10.731   6.880  69.421  1.00  0.00    -0.246 C  
HETATM    8  C   UNL     1      -8.118   8.206  70.383  1.00  0.00    -0.108 C  
BRANCH   7   9
HETATM    9  O   UNL     1      -9.983   5.796  68.838  1.00  0.00    -0.140 OA 
BRANCH   9  10
HETATM   10  C   UNL     1      -9.467   4.895  69.715  1.00  0.00    -0.154 C  
HETATM   11  O   UNL     1     -10.125   4.188  70.463  1.00  0.00    -0.170 OA 
BRANCH  10  12
HETATM   12  C   UNL     1      -7.984   4.728  69.511  1.00  0.00    -0.066 C  
BRANCH  12  13
HETATM   13  C   UNL     1      -7.480   3.313  69.782  1.00  0.00    -0.044 C  
HETATM   14  O   UNL     1      -5.361   4.280  71.048  1.00  0.00    -0.003 OA 
HETATM   15  S   UNL     1      -6.382   3.269  71.165  1.00  0.00    -0.019 S  
HETATM   16  O   UNL     1      -7.432   3.773  72.287  1.00  0.00    -0.057 OA 
HETATM   17  O   UNL     1      -6.088   1.903  71.533  1.00  0.00    -0.013 OA 
BRANCH  13  18
HETATM   18  C   UNL     1      -6.737   2.785  68.596  1.00  0.00    -0.037 C  
HETATM   19  O   UNL     1      -5.550   2.491  68.603  1.00  0.00    -0.017 OA 
BRANCH  18  20
HETATM   20  O   UNL     1      -7.510   2.853  67.474  1.00  0.00    -0.057 OA 
BRANCH  20  21
HETATM   21  C   UNL     1      -7.440   4.102  66.764  1.00  0.00    -0.080 C  
HETATM   22  C   UNL     1      -7.735   3.996  65.256  1.00  0.00    -0.085 C  
HETATM   23  C   UNL     1      -9.110   3.354  64.969  1.00  0.00    -0.142 C  
HETATM   24  C   UNL     1      -7.598   5.367  64.554  1.00  0.00    -0.078 C  
HETATM   25  C   UNL     1     -10.314   4.150  65.456  1.00  0.00    -0.144 C  
BRANCH  24  26
HETATM   26  C   UNL     1      -6.211   6.000  64.699  1.00  0.00    -0.030 C  
BRANCH  26  27
HETATM   27  C   UNL     1      -6.139   7.363  64.012  1.00  0.00    -0.045 C  
HETATM   28  C   UNL     1      -5.383   8.367  64.872  1.00  0.00    -0.036 C  
ENDBRANCH  26  27
ENDBRANCH  24  26
ENDBRANCH  20  21
ENDBRANCH  18  20
ENDBRANCH  13  18
ENDBRANCH  12  13
ENDBRANCH  10  12
ENDBRANCH   9  10
ENDBRANCH   7   9
ENDBRANCH   3   4
ENDBRANCH   2   3
TORSDOF 11
ENDMDL
MODEL      405
REMARK 921   NORMALIZED FREE ENERGY PREDICTED BY IDOCK:    0.66 KCAL/MOL
REMARK 922        TOTAL FREE ENERGY PREDICTED BY IDOCK:   -1.16 KCAL/MOL
REMARK 923 INTER-LIGAND FREE ENERGY PREDICTED BY IDOCK:   -3.15 KCAL/MOL
REMARK 924 INTRA-LIGAND FREE ENERGY PREDICTED BY IDOCK:    1.98 KCAL/MOL
REMARK 927      BINDING AFFINITY PREDICTED BY RF-SCORE:    0.00 PKD
ROOT
HETATM    1  C   UNL     1     -11.095   9.410  66.858  1.00  0.00     0.338 C  
HETATM    2  C   UNL     1     -10.678  10.874  66.837  1.00  0.00    -0.318 C  
ENDROOT
BRANCH   2   3
HETATM    3  C   UNL     1     -10.673  11.463  68.247  1.00  0.00    -0.240 C  
BRANCH   3   4
HETATM    4  C   UNL     1     -11.295  10.510  69.276  1.00  0.00    -0.325 C  
HETATM    5  C   UNL     1     -10.722   9.078  69.210  1.00  0.00    -0.189 C  
HETATM    6  C   UNL     1      -9.184   9.000  69.348  1.00  0.00    -0.150 C  
HETATM    7  C   UNL     1     -11.434   8.170  70.235  1.00  0.00    -0.065 C  
HETATM    8  C   UNL     1      -8.644   9.397  70.714  1.00  0.00    -0.201 C  
BRANCH   7   9
HETATM    9  O   UNL     1     -10.858   6.852  70.169  1.00  0.00    -0.239 OA 
BRANCH   9  10
HETATM   10  C   UNL     1     -10.335   6.375  71.329  1.00  0.00    -0.207 C  
HETATM   11  O   UNL     1     -10.988   5.928  72.260  1.00  0.00    -0.238 OA 
BRANCH  10  12
HETATM   12  C   UNL     1      -8.835   6.279  71.250  1.00  0.00    -0.139 C  
BRANCH  12  13
HETATM   13  C   UNL     1      -8.234   5.220  72.171  1.00  0.00    -0.114 C  
HETATM   14  O   UNL     1      -6.260   6.865  72.824  1.00  0.00    -0.052 OA 
HETATM   15  S   UNL     1      -7.204   5.946  73.409  1.00  0.00    -0.086 S  
HETATM   16  O   UNL     1      -8.342   6.827  74.145  1.00  0.00    -0.125 OA 
HETATM   17  O   UNL     1      -6.822   4.956  74.390  1.00  0.00    -0.069 OA 
BRANCH  13  18
HETATM   18  C   UNL     1      -7.397   4.259  71.389  1.00  0.00    -0.051 C  
HETATM   19  O   UNL     1      -6.402   3.699  71.828  1.00  0.00    -0.014 OA 
BRANCH  18  20
HETATM   20  O   UNL     1      -7.783   4.238  70.081  1.00  0.00    -0.052 OA 
BRANCH  20  21
HETATM   21  C   UNL     1      -7.445   5.416  69.329  1.00  0.00    -0.073 C  
HETATM   22  C   UNL     1      -7.418   5.214  67.803  1.00  0.00    -0.079 C  
HETATM   23  C   UNL     1      -8.754   4.661  67.259  1.00  0.00    -0.104 C  
HETATM   24  C   UNL     1      -7.005   6.509  67.066  1.00  0.00    -0.068 C  
HETATM   25  C   UNL     1      -9.953   5.586  67.419  1.00  0.00    -0.189 C  
BRANCH  24  26
HETATM   26  C   UNL     1      -5.628   7.039  67.475  1.00  0.00    -0.024 C  
BRANCH  26  27
HETATM   27  C   UNL     1      -5.312   8.371  66.792  1.00  0.00    -0.032 C  
HETATM   28  C   UNL     1      -5.632   9.542  67.712  1.00  0.00    -0.040 C  
ENDBRANCH  26  27
ENDBRANCH  24  26
ENDBRANCH  20  21
ENDBRANCH  18  20
ENDBRANCH  13  18
ENDBRANCH  12  13
ENDBRANCH  10  12
ENDBRANCH   9  10
ENDBRANCH   7   9
ENDBRANCH   3   4
ENDBRANCH   2   3
TORSDOF 11
ENDMDL
MODEL      406
REMARK 921   NORMALIZED FREE ENERGY PREDICTED BY IDOCK:    0.78 KCAL/MOL
REMARK 922        TOTAL FREE ENERGY PREDICTED BY IDOCK:   -0.96 KCAL/MOL
REMARK 923 INTER-LIGAND FREE ENERGY PREDICTED BY IDOCK:   -4.10 KCAL/MOL
REMARK 924 INTRA-LIGAND FREE ENERGY PREDICTED BY IDOCK:    3.14 KCAL/MOL
REMARK 927      BINDING AFFINITY PREDICTED BY RF-SCORE:    0.00 PKD
ROOT
HETATM    1  C   UNL     1      -8.014   8.448  66.431  1.00  0.00    -0.099 C  
HETATM    2  C   UNL     1      -8.342   7.950  65.031  1.00  0.00    -0.111 C  
ENDROOT
BRANCH   2   3
HETATM    3  C   UNL     1      -8.865   9.087  64.153  1.00  0.00    -0.068 C  
BRANCH   3   4
HETATM    4  C   UNL     1      -8.840  10.438  64.879  1.00  0.00    -0.209 C  
HETATM    5  C   UNL     1     -10.248  10.987  65.202  1.00  0.00    -0.352 C  
HETATM    6  C   UNL     1     -11.139  10.019  66.013  1.00  0.00     0.678 C  
HETATM    7  C   UNL     1     -10.139  12.369  65.882  1.00  0.00    -0.253 C  
HETATM    8  C   UNL     1     -10.667   9.757  67.436  1.00  0.00    -0.314 C  
BRANCH   7   9
HETATM    9  O   UNL     1     -11.464  12.838  66.194  1.00  0.00    -0.315 OA 
BRANCH   9  10
HETATM   10  C   UNL     1     -11.603  14.186  66.305  1.00  0.00    -0.370 C  
HETATM   11  O   UNL     1     -12.166  14.902  65.490  1.00  0.00    -0.149 OA 
BRANCH  10  12
HETATM   12  C   UNL     1     -11.152  14.669  67.658  1.00  0.00    -0.311 C  
BRANCH  12  13
HETATM   13  C   UNL     1     -10.272  15.914  67.607  1.00  0.00    -0.263 C  
HETATM   14  O   UNL     1      -8.296  14.510  66.534  1.00  0.00     0.001 OA 
HETATM   15  S   UNL     1      -8.999  15.761  66.392  1.00  0.00    -0.352 S  
HETATM   16  O   UNL     1      -9.956  15.631  65.096  1.00  0.00    -0.357 OA 
HETATM   17  O   UNL     1      -8.317  17.022  66.214  1.00  0.00    -0.273 OA 
BRANCH  13  18
HETATM   18  C   UNL     1      -9.613  16.144  68.930  1.00  0.00    -0.245 C  
HETATM   19  O   UNL     1     -10.188  16.581  69.918  1.00  0.00    -0.149 OA 
BRANCH  18  20
HETATM   20  O   UNL     1      -8.263  15.979  68.832  1.00  0.00    -0.194 OA 
BRANCH  20  21
HETATM   21  C   UNL     1      -7.728  14.883  69.595  1.00  0.00    -0.072 C  
HETATM   22  C   UNL     1      -6.203  14.705  69.473  1.00  0.00    -0.120 C  
HETATM   23  C   UNL     1      -5.429  15.984  69.859  1.00  0.00    -0.143 C  
HETATM   24  C   UNL     1      -5.709  13.484  70.283  1.00  0.00    -0.150 C  
HETATM   25  C   UNL     1      -5.567  16.414  71.313  1.00  0.00     0.350 C  
BRANCH  24  26
HETATM   26  C   UNL     1      -6.353  12.160  69.860  1.00  0.00    -0.074 C  
BRANCH  26  27
HETATM   27  C   UNL     1      -7.265  12.341  68.646  1.00  0.00    -0.105 C  
HETATM   28  C   UNL     1      -6.980  11.282  67.590  1.00  0.00    -0.085 C  
ENDBRANCH  26  27
ENDBRANCH  24  26
ENDBRANCH  20  21
ENDBRANCH  18  20
ENDBRANCH  13  18
ENDBRANCH  12  13
ENDBRANCH  10  12
ENDBRANCH   9  10
ENDBRANCH   7   9
ENDBRANCH   3   4
ENDBRANCH   2   3
TORSDOF 11
ENDMDL
MODEL      407
REMARK 921   NORMALIZED FREE ENERGY PREDICTED BY IDOCK:    1.37 KCAL/MOL
REMARK 922        TOTAL FREE ENERGY PREDICTED BY IDOCK:   -0.00 KCAL/MOL
REMARK 923 INTER-LIGAND FREE ENERGY PREDICTED BY IDOCK:   -3.79 KCAL/MOL
REMARK 924 INTRA-LIGAND FREE ENERGY PREDICTED BY IDOCK:    3.79 KCAL/MOL
REMARK 927      BINDING AFFINITY PREDICTED BY RF-SCORE:    0.00 PKD
ROOT
HETATM    1  C   UNL     1      -5.358   7.557  71.815  1.00  0.00    -0.035 C  
HETATM    2  C   UNL     1      -6.429   7.545  70.733  1.00  0.00    -0.039 C  
ENDROOT
BRANCH   2   3
HETATM    3  C   UNL     1      -7.829   7.567  71.346  1.00  0.00    -0.093 C  
BRANCH   3   4
HETATM    4  C   UNL     1      -8.925   7.707  70.283  1.00  0.00    -0.146 C  
HETATM    5  C   UNL     1      -9.504   9.136  70.184  1.00  0.00    -0.235 C  
HETATM    6  C   UNL     1      -8.448  10.236  69.936  1.00  0.00    -0.013 C  
HETATM    7  C   UNL     1     -10.635   9.182  69.133  1.00  0.00    -0.208 C  
HETATM    8  C   UNL     1      -7.768  10.174  68.576  1.00  0.00    -0.090 C  
BRANCH   7   9
HETATM    9  O   UNL     1     -11.133  10.529  69.045  1.00  0.00    -0.219 OA 
BRANCH   9  10
HETATM   10  C   UNL     1     -11.355  10.997  67.789  1.00  0.00    -0.292 C  
HETATM   11  O   UNL     1     -12.415  11.455  67.388  1.00  0.00     0.375 OA 
BRANCH  10  12
HETATM   12  C   UNL     1     -10.074  11.068  67.001  1.00  0.00    -0.232 C  
BRANCH  12  13
HETATM   13  C   UNL     1     -10.264  10.903  65.495  1.00  0.00    -0.271 C  
HETATM   14  O   UNL     1      -7.676  11.310  65.093  1.00  0.00     0.367 OA 
HETATM   15  S   UNL     1      -8.757  10.443  64.697  1.00  0.00    -0.188 S  
HETATM   16  O   UNL     1      -8.540   9.028  65.449  1.00  0.00    -0.155 OA 
HETATM   17  O   UNL     1      -9.005  10.086  63.319  1.00  0.00    -0.216 OA 
BRANCH  13  18
HETATM   18  C   UNL     1     -10.731  12.184  64.882  1.00  0.00    -0.295 C  
HETATM   19  O   UNL     1     -11.044  12.309  63.706  1.00  0.00    -0.367 OA 
BRANCH  18  20
HETATM   20  O   UNL     1     -10.584  13.219  65.757  1.00  0.00    -0.276 OA 
BRANCH  20  21
HETATM   21  C   UNL     1      -9.433  13.129  66.616  1.00  0.00    -0.260 C  
HETATM   22  C   UNL     1      -9.161  14.392  67.453  1.00  0.00    -0.202 C  
HETATM   23  C   UNL     1     -10.375  14.800  68.316  1.00  0.00    -0.238 C  
HETATM   24  C   UNL     1      -7.887  14.238  68.315  1.00  0.00    -0.141 C  
HETATM   25  C   UNL     1     -10.769  13.802  69.396  1.00  0.00    -0.014 C  
BRANCH  24  26
HETATM   26  C   UNL     1      -6.621  13.954  67.501  1.00  0.00    -0.104 C  
BRANCH  26  27
HETATM   27  C   UNL     1      -6.311  12.458  67.445  1.00  0.00    -0.157 C  
HETATM   28  C   UNL     1      -5.259  12.082  68.479  1.00  0.00    -0.049 C  
ENDBRANCH  26  27
ENDBRANCH  24  26
ENDBRANCH  20  21
ENDBRANCH  18  20
ENDBRANCH  13  18
ENDBRANCH  12  13
ENDBRANCH  10  12
ENDBRANCH   9  10
ENDBRANCH   7   9
ENDBRANCH   3   4
ENDBRANCH   2   3
TORSDOF 11
ENDMDL
MODEL      408
REMARK 921   NORMALIZED FREE ENERGY PREDICTED BY IDOCK:    1.59 KCAL/MOL
REMARK 922        TOTAL FREE ENERGY PREDICTED BY IDOCK:    0.37 KCAL/MOL
REMARK 923 INTER-LIGAND FREE ENERGY PREDICTED BY IDOCK:   -4.73 KCAL/MOL
REMARK 924 INTRA-LIGAND FREE ENERGY PREDICTED BY IDOCK:    5.10 KCAL/MOL
REMARK 927      BINDING AFFINITY PREDICTED BY RF-SCORE:    0.00 PKD
ROOT
HETATM    1  C   UNL     1      -8.109   5.783  68.847  1.00  0.00    -0.102 C  
HETATM    2  C   UNL     1      -9.537   6.261  68.624  1.00  0.00    -0.128 C  
ENDROOT
BRANCH   2   3
HETATM    3  C   UNL     1      -9.907   7.364  69.615  1.00  0.00    -0.175 C  
BRANCH   3   4
HETATM    4  C   UNL     1      -9.541   8.759  69.093  1.00  0.00    -0.162 C  
HETATM    5  C   UNL     1     -10.753   9.546  68.547  1.00  0.00    -0.222 C  
HETATM    6  C   UNL     1     -11.919   9.697  69.550  1.00  0.00     0.420 C  
HETATM    7  C   UNL     1     -10.296  10.913  67.992  1.00  0.00    -0.185 C  
HETATM    8  C   UNL     1     -11.612  10.567  70.760  1.00  0.00    -0.432 C  
BRANCH   7   9
HETATM    9  O   UNL     1     -11.450  11.632  67.518  1.00  0.00    -0.342 OA 
BRANCH   9  10
HETATM   10  C   UNL     1     -11.426  12.977  67.706  1.00  0.00    -0.316 C  
HETATM   11  O   UNL     1     -12.409  13.704  67.693  1.00  0.00    -0.257 OA 
BRANCH  10  12
HETATM   12  C   UNL     1     -10.059  13.443  68.132  1.00  0.00    -0.244 C  
BRANCH  12  13
HETATM   13  C   UNL     1     -10.061  14.275  69.411  1.00  0.00     0.130 C  
HETATM   14  O   UNL     1     -12.365  15.389  68.719  1.00  0.00    -0.117 OA 
HETATM   15  S   UNL     1     -11.693  14.793  69.846  1.00  0.00    -0.325 S  
HETATM   16  O   UNL     1     -12.331  13.324  70.067  1.00  0.00    -0.281 OA 
HETATM   17  O   UNL     1     -11.698  15.392  71.162  1.00  0.00    -0.299 OA 
BRANCH  13  18
HETATM   18  C   UNL     1      -9.225  15.503  69.239  1.00  0.00    -0.268 C  
HETATM   19  O   UNL     1      -9.548  16.616  69.633  1.00  0.00    -0.041 OA 
BRANCH  18  20
HETATM   20  O   UNL     1      -8.157  15.250  68.430  1.00  0.00    -0.130 OA 
BRANCH  20  21
HETATM   21  C   UNL     1      -7.601  16.406  67.779  1.00  0.00    -0.145 C  
HETATM   22  C   UNL     1      -7.663  16.364  66.241  1.00  0.00    -0.144 C  
HETATM   23  C   UNL     1      -9.102  16.160  65.715  1.00  0.00    -0.143 C  
HETATM   24  C   UNL     1      -7.009  17.616  65.612  1.00  0.00    -0.000 C  
HETATM   25  C   UNL     1     -10.073  17.291  66.025  1.00  0.00    -0.275 C  
BRANCH  24  26
HETATM   26  C   UNL     1      -5.539  17.805  65.999  1.00  0.00    -0.241 C  
BRANCH  26  27
HETATM   27  C   UNL     1      -5.373  17.977  67.509  1.00  0.00    -0.142 C  
HETATM   28  C   UNL     1      -5.243  19.450  67.876  1.00  0.00    -0.170 C  
ENDBRANCH  26  27
ENDBRANCH  24  26
ENDBRANCH  20  21
ENDBRANCH  18  20
ENDBRANCH  13  18
ENDBRANCH  12  13
ENDBRANCH  10  12
ENDBRANCH   9  10
ENDBRANCH   7   9
ENDBRANCH   3   4
ENDBRANCH   2   3
TORSDOF 11
ENDMDL
MODEL      409
REMARK 921   NORMALIZED FREE ENERGY PREDICTED BY IDOCK:    1.64 KCAL/MOL
REMARK 922        TOTAL FREE ENERGY PREDICTED BY IDOCK:    0.44 KCAL/MOL
REMARK 923 INTER-LIGAND FREE ENERGY PREDICTED BY IDOCK:   -4.17 KCAL/MOL
REMARK 924 INTRA-LIGAND FREE ENERGY PREDICTED BY IDOCK:    4.61 KCAL/MOL
REMARK 927      BINDING AFFINITY PREDICTED BY RF-SCORE:    0.00 PKD
ROOT
HETATM    1  C   UNL     1     -14.294  15.798  71.313  1.00  0.00     0.280 C  
HETATM    2  C   UNL     1     -14.323  14.386  70.743  1.00  0.00     0.629 C  
ENDROOT
BRANCH   2   3
HETATM    3  C   UNL     1     -13.534  13.421  71.628  1.00  0.00    -0.378 C  
BRANCH   3   4
HETATM    4  C   UNL     1     -12.049  13.368  71.248  1.00  0.00     0.007 C  
HETATM    5  C   UNL     1     -11.538  14.669  70.591  1.00  0.00    -0.305 C  
HETATM    6  C   UNL     1     -11.776  15.944  71.431  1.00  0.00    -0.530 C  
HETATM    7  C   UNL     1     -10.054  14.517  70.190  1.00  0.00     0.630 C  
HETATM    8  C   UNL     1     -10.976  16.016  72.724  1.00  0.00     1.426 C  
BRANCH   7   9
HETATM    9  O   UNL     1      -9.602  15.753  69.607  1.00  0.00    -0.280 OA 
BRANCH   9  10
HETATM   10  C   UNL     1     -10.167  16.089  68.418  1.00  0.00    -0.236 C  
HETATM   11  O   UNL     1     -10.838  17.090  68.218  1.00  0.00    -0.370 OA 
BRANCH  10  12
HETATM   12  C   UNL     1      -9.699  15.174  67.316  1.00  0.00    -0.210 C  
BRANCH  12  13
HETATM   13  C   UNL     1      -9.101  15.906  66.118  1.00  0.00    -0.350 C  
HETATM   14  O   UNL     1      -8.875  18.126  67.549  1.00  0.00    -0.253 OA 
HETATM   15  S   UNL     1      -8.142  17.301  66.621  1.00  0.00    -0.290 S  
HETATM   16  O   UNL     1      -7.025  16.497  67.470  1.00  0.00    -0.125 OA 
HETATM   17  O   UNL     1      -7.418  17.847  65.496  1.00  0.00    -0.524 OA 
BRANCH  13  18
HETATM   18  C   UNL     1     -10.185  16.401  65.213  1.00  0.00    -0.082 C  
HETATM   19  O   UNL     1     -10.651  17.532  65.254  1.00  0.00    -0.664 OA 
BRANCH  18  20
HETATM   20  O   UNL     1     -10.702  15.379  64.475  1.00  0.00    -0.280 OA 
BRANCH  20  21
HETATM   21  C   UNL     1     -10.496  14.067  65.027  1.00  0.00    -0.420 C  
HETATM   22  C   UNL     1     -11.772  13.394  65.566  1.00  0.00    -0.366 C  
HETATM   23  C   UNL     1     -12.883  13.298  64.496  1.00  0.00    -0.123 C  
HETATM   24  C   UNL     1     -11.467  12.009  66.182  1.00  0.00    -0.401 C  
HETATM   25  C   UNL     1     -12.559  12.414  63.299  1.00  0.00    -0.381 C  
BRANCH  24  26
HETATM   26  C   UNL     1     -10.460  12.055  67.336  1.00  0.00    -0.239 C  
BRANCH  26  27
HETATM   27  C   UNL     1     -10.067  10.651  67.797  1.00  0.00    -0.203 C  
HETATM   28  C   UNL     1      -8.661  10.645  68.380  1.00  0.00    -0.134 C  
ENDBRANCH  26  27
ENDBRANCH  24  26
ENDBRANCH  20  21
ENDBRANCH  18  20
ENDBRANCH  13  18
ENDBRANCH  12  13
ENDBRANCH  10  12
ENDBRANCH   9  10
ENDBRANCH   7   9
ENDBRANCH   3   4
ENDBRANCH   2   3
TORSDOF 11
ENDMDL
MODEL      410
REMARK 921   NORMALIZED FREE ENERGY PREDICTED BY IDOCK:    6.21 KCAL/MOL
REMARK 922        TOTAL FREE ENERGY PREDICTED BY IDOCK:    7.96 KCAL/MOL
REMARK 923 INTER-LIGAND FREE ENERGY PREDICTED BY IDOCK:    6.54 KCAL/MOL
REMARK 924 INTRA-LIGAND FREE ENERGY PREDICTED BY IDOCK:    1.41 KCAL/MOL
REMARK 927      BINDING AFFINITY PREDICTED BY RF-SCORE:    0.00 PKD
ROOT
HETATM    1  C   UNL     1     -11.156   2.415  67.552  1.00  0.00     7.604 C  
HETATM    2  C   UNL     1     -10.273   2.821  66.380  1.00  0.00     1.619 C  
ENDROOT
BRANCH   2   3
HETATM    3  C   UNL     1      -9.041   3.586  66.861  1.00  0.00    -0.184 C  
BRANCH   3   4
HETATM    4  C   UNL     1      -9.182   5.099  66.656  1.00  0.00    -0.129 C  
HETATM    5  C   UNL     1      -7.892   5.885  66.979  1.00  0.00    -0.102 C  
HETATM    6  C   UNL     1      -6.643   5.407  66.204  1.00  0.00    -0.048 C  
HETATM    7  C   UNL     1      -8.130   7.400  66.801  1.00  0.00    -0.123 C  
HETATM    8  C   UNL     1      -6.688   5.656  64.704  1.00  0.00    -0.046 C  
BRANCH   7   9
HETATM    9  O   UNL     1      -6.904   8.100  67.082  1.00  0.00    -0.067 OA 
BRANCH   9  10
HETATM   10  C   UNL     1      -7.012   9.446  67.233  1.00  0.00    -0.085 C  
HETATM   11  O   UNL     1      -6.085  10.200  67.489  1.00  0.00    -0.056 OA 
BRANCH  10  12
HETATM   12  C   UNL     1      -8.386   9.928  66.847  1.00  0.00    -0.124 C  
BRANCH  12  13
HETATM   13  C   UNL     1      -9.235  10.385  68.029  1.00  0.00    -0.140 C  
HETATM   14  O   UNL     1      -8.460  12.892  67.654  1.00  0.00    -0.158 OA 
HETATM   15  S   UNL     1      -9.637  12.101  67.915  1.00  0.00    -0.203 S  
HETATM   16  O   UNL     1     -10.485  12.030  66.540  1.00  0.00    -0.214 OA 
HETATM   17  O   UNL     1     -10.610  12.459  68.922  1.00  0.00    -0.207 OA 
BRANCH  13  18
HETATM   18  C   UNL     1      -8.499  10.175  69.315  1.00  0.00    -0.163 C  
HETATM   19  O   UNL     1      -7.901  11.056  69.916  1.00  0.00     0.197 OA 
BRANCH  18  20
HETATM   20  O   UNL     1      -8.432   8.848  69.621  1.00  0.00    -0.121 OA 
BRANCH  20  21
HETATM   21  C   UNL     1      -8.289   8.555  71.021  1.00  0.00    -0.147 C  
HETATM   22  C   UNL     1      -6.938   7.924  71.407  1.00  0.00    -0.055 C  
HETATM   23  C   UNL     1      -5.738   8.792  70.971  1.00  0.00    -0.037 C  
HETATM   24  C   UNL     1      -6.875   7.596  72.917  1.00  0.00    -0.075 C  
HETATM   25  C   UNL     1      -5.639  10.152  71.649  1.00  0.00     0.070 C  
BRANCH  24  26
HETATM   26  C   UNL     1      -7.972   6.636  73.387  1.00  0.00    -0.103 C  
BRANCH  26  27
HETATM   27  C   UNL     1      -9.320   6.963  72.743  1.00  0.00    -0.154 C  
HETATM   28  C   UNL     1     -10.110   5.692  72.461  1.00  0.00    -0.208 C  
ENDBRANCH  26  27
ENDBRANCH  24  26
ENDBRANCH  20  21
ENDBRANCH  18  20
ENDBRANCH  13  18
ENDBRANCH  12  13
ENDBRANCH  10  12
ENDBRANCH   9  10
ENDBRANCH   7   9
ENDBRANCH   3   4
ENDBRANCH   2   3
TORSDOF 11
ENDMDL
MODEL      411
REMARK 921   NORMALIZED FREE ENERGY PREDICTED BY IDOCK:    8.40 KCAL/MOL
REMARK 922        TOTAL FREE ENERGY PREDICTED BY IDOCK:   11.55 KCAL/MOL
REMARK 923 INTER-LIGAND FREE ENERGY PREDICTED BY IDOCK:    8.59 KCAL/MOL
REMARK 924 INTRA-LIGAND FREE ENERGY PREDICTED BY IDOCK:    2.96 KCAL/MOL
REMARK 927      BINDING AFFINITY PREDICTED BY RF-SCORE:    0.00 PKD
ROOT
HETATM    1  C   UNL     1     -11.364   1.468  68.520  1.00  0.00     6.807 C  
HETATM    2  C   UNL     1     -10.718   1.657  67.155  1.00  0.00     4.304 C  
ENDROOT
BRANCH   2   3
HETATM    3  C   UNL     1      -9.296   2.200  67.291  1.00  0.00    -0.066 C  
BRANCH   3   4
HETATM    4  C   UNL     1      -9.194   3.670  66.867  1.00  0.00    -0.204 C  
HETATM    5  C   UNL     1      -7.745   4.205  66.849  1.00  0.00    -0.092 C  
HETATM    6  C   UNL     1      -6.772   3.381  65.974  1.00  0.00    -0.041 C  
HETATM    7  C   UNL     1      -7.731   5.700  66.466  1.00  0.00    -0.100 C  
HETATM    8  C   UNL     1      -7.053   3.439  64.480  1.00  0.00    -0.057 C  
BRANCH   7   9
HETATM    9  O   UNL     1      -6.368   6.159  66.431  1.00  0.00    -0.042 OA 
BRANCH   9  10
HETATM   10  C   UNL     1      -6.198   7.500  66.287  1.00  0.00    -0.041 C  
HETATM   11  O   UNL     1      -5.135   8.090  66.418  1.00  0.00    -0.024 OA 
BRANCH  10  12
HETATM   12  C   UNL     1      -7.444   8.151  65.750  1.00  0.00    -0.080 C  
BRANCH  12  13
HETATM   13  C   UNL     1      -8.303   8.820  66.820  1.00  0.00    -0.108 C  
HETATM   14  O   UNL     1      -7.036  11.118  66.442  1.00  0.00    -0.135 OA 
HETATM   15  S   UNL     1      -8.360  10.572  66.605  1.00  0.00    -0.135 S  
HETATM   16  O   UNL     1      -9.069  10.585  65.151  1.00  0.00    -0.177 OA 
HETATM   17  O   UNL     1      -9.341  11.156  67.490  1.00  0.00    -0.165 OA 
BRANCH  13  18
HETATM   18  C   UNL     1      -7.749   8.546  68.182  1.00  0.00    -0.102 C  
HETATM   19  O   UNL     1      -7.260   9.401  68.909  1.00  0.00    -0.070 OA 
BRANCH  18  20
HETATM   20  O   UNL     1      -7.694   7.205  68.420  1.00  0.00    -0.115 OA 
BRANCH  20  21
HETATM   21  C   UNL     1      -7.762   6.832  69.808  1.00  0.00    -0.113 C  
HETATM   22  C   UNL     1      -6.469   6.208  70.365  1.00  0.00    -0.040 C  
HETATM   23  C   UNL     1      -5.241   7.127  70.171  1.00  0.00    -0.023 C  
HETATM   24  C   UNL     1      -6.631   5.793  71.846  1.00  0.00    -0.058 C  
HETATM   25  C   UNL     1      -5.290   8.445  70.931  1.00  0.00    -0.028 C  
BRANCH  24  26
HETATM   26  C   UNL     1      -7.758   4.784  72.084  1.00  0.00    -0.092 C  
BRANCH  26  27
HETATM   27  C   UNL     1      -8.980   5.091  71.218  1.00  0.00    -0.164 C  
HETATM   28  C   UNL     1      -9.645   3.806  70.742  1.00  0.00    -0.249 C  
ENDBRANCH  26  27
ENDBRANCH  24  26
ENDBRANCH  20  21
ENDBRANCH  18  20
ENDBRANCH  13  18
ENDBRANCH  12  13
ENDBRANCH  10  12
ENDBRANCH   9  10
ENDBRANCH   7   9
ENDBRANCH   3   4
ENDBRANCH   2   3
TORSDOF 11
ENDMDL
MODEL      412
REMARK 921   NORMALIZED FREE ENERGY PREDICTED BY IDOCK:    8.53 KCAL/MOL
REMARK 922        TOTAL FREE ENERGY PREDICTED BY IDOCK:   11.76 KCAL/MOL
REMARK 923 INTER-LIGAND FREE ENERGY PREDICTED BY IDOCK:    3.72 KCAL/MOL
REMARK 924 INTRA-LIGAND FREE ENERGY PREDICTED BY IDOCK:    8.04 KCAL/MOL
REMARK 927      BINDING AFFINITY PREDICTED BY RF-SCORE:    0.00 PKD
ROOT
HETATM    1  C   UNL     1     -11.846  12.188  65.339  1.00  0.00    -0.357 C  
HETATM    2  C   UNL     1     -12.206  12.883  66.645  1.00  0.00    -0.229 C  
ENDROOT
BRANCH   2   3
HETATM    3  C   UNL     1     -11.850  12.010  67.847  1.00  0.00    -0.320 C  
BRANCH   3   4
HETATM    4  C   UNL     1     -10.492  12.383  68.452  1.00  0.00    -0.245 C  
HETATM    5  C   UNL     1      -9.323  11.534  67.906  1.00  0.00    -0.171 C  
HETATM    6  C   UNL     1      -9.187  11.552  66.366  1.00  0.00    -0.218 C  
HETATM    7  C   UNL     1      -8.003  11.932  68.601  1.00  0.00    -0.101 C  
HETATM    8  C   UNL     1      -8.784  12.896  65.777  1.00  0.00     0.896 C  
BRANCH   7   9
HETATM    9  O   UNL     1      -6.931  11.144  68.050  1.00  0.00    -0.066 OA 
BRANCH   9  10
HETATM   10  C   UNL     1      -7.307  10.103  67.261  1.00  0.00    -0.090 C  
HETATM   11  O   UNL     1      -6.544   9.404  66.611  1.00  0.00    -0.066 OA 
BRANCH  10  12
HETATM   12  C   UNL     1      -8.769   9.786  67.440  1.00  0.00    -0.133 C  
BRANCH  12  13
HETATM   13  C   UNL     1      -9.033   8.404  68.033  1.00  0.00    -0.138 C  
HETATM   14  O   UNL     1     -10.501   9.480  69.960  1.00  0.00    -0.212 OA 
HETATM   15  S   UNL     1     -10.499   8.390  69.017  1.00  0.00    -0.164 S  
HETATM   16  O   UNL     1     -11.547   8.766  67.844  1.00  0.00     0.979 OA 
HETATM   17  O   UNL     1     -10.844   7.036  69.389  1.00  0.00    -0.235 OA 
BRANCH  13  18
HETATM   18  C   UNL     1      -7.894   7.983  68.907  1.00  0.00    -0.113 C  
HETATM   19  O   UNL     1      -7.622   8.505  69.980  1.00  0.00    -0.061 OA 
BRANCH  18  20
HETATM   20  O   UNL     1      -7.104   7.077  68.266  1.00  0.00    -0.077 OA 
BRANCH  20  21
HETATM   21  C   UNL     1      -7.752   6.345  67.211  1.00  0.00    -0.100 C  
HETATM   22  C   UNL     1      -7.125   6.543  65.818  1.00  0.00    -0.062 C  
HETATM   23  C   UNL     1      -5.620   6.192  65.795  1.00  0.00    -0.017 C  
HETATM   24  C   UNL     1      -7.899   5.762  64.731  1.00  0.00    -0.114 C  
HETATM   25  C   UNL     1      -5.289   4.731  66.070  1.00  0.00    -0.009 C  
BRANCH  24  26
HETATM   26  C   UNL     1      -9.375   6.157  64.622  1.00  0.00     0.991 C  
BRANCH  26  27
HETATM   27  C   UNL     1      -9.670   6.874  63.303  1.00  0.00     3.993 C  
HETATM   28  C   UNL     1      -8.412   7.531  62.750  1.00  0.00     0.163 C  
ENDBRANCH  26  27
ENDBRANCH  24  26
ENDBRANCH  20  21
ENDBRANCH  18  20
ENDBRANCH  13  18
ENDBRANCH  12  13
ENDBRANCH  10  12
ENDBRANCH   9  10
ENDBRANCH   7   9
ENDBRANCH   3   4
ENDBRANCH   2   3
TORSDOF 11
ENDMDL
MODEL      413
REMARK 921   NORMALIZED FREE ENERGY PREDICTED BY IDOCK:   12.81 KCAL/MOL
REMARK 922        TOTAL FREE ENERGY PREDICTED BY IDOCK:   18.80 KCAL/MOL
REMARK 923 INTER-LIGAND FREE ENERGY PREDICTED BY IDOCK:   12.68 KCAL/MOL
REMARK 924 INTRA-LIGAND FREE ENERGY PREDICTED BY IDOCK:    6.12 KCAL/MOL
REMARK 927      BINDING AFFINITY PREDICTED BY RF-SCORE:    0.00 PKD
ROOT
HETATM    1  C   UNL     1      -8.185   8.417  66.388  1.00  0.00    -0.109 C  
HETATM    2  C   UNL     1      -8.314   7.881  64.969  1.00  0.00    -0.111 C  
ENDROOT
BRANCH   2   3
HETATM    3  C   UNL     1      -8.494   9.020  63.966  1.00  0.00    -0.175 C  
BRANCH   3   4
HETATM    4  C   UNL     1      -8.762  10.363  64.657  1.00  0.00    -0.198 C  
HETATM    5  C   UNL     1     -10.145  10.961  64.321  1.00  0.00    -0.413 C  
HETATM    6  C   UNL     1     -11.336  10.020  64.617  1.00  0.00     3.599 C  
HETATM    7  C   UNL     1     -10.316  12.333  65.008  1.00  0.00    -0.291 C  
HETATM    8  C   UNL     1     -11.568   9.730  66.093  1.00  0.00     2.852 C  
BRANCH   7   9
HETATM    9  O   UNL     1     -11.624  12.849  64.698  1.00  0.00    -0.319 OA 
BRANCH   9  10
HETATM   10  C   UNL     1     -11.736  14.203  64.680  1.00  0.00    -0.417 C  
HETATM   11  O   UNL     1     -12.002  14.871  63.692  1.00  0.00    -0.228 OA 
BRANCH  10  12
HETATM   12  C   UNL     1     -11.690  14.771  66.074  1.00  0.00    -0.248 C  
BRANCH  12  13
HETATM   13  C   UNL     1     -10.419  15.559  66.378  1.00  0.00    -0.306 C  
HETATM   14  O   UNL     1      -8.999  13.320  66.386  1.00  0.00    -0.125 OA 
HETATM   15  S   UNL     1      -8.973  14.672  65.886  1.00  0.00     0.580 S  
HETATM   16  O   UNL     1      -9.291  14.606  64.303  1.00  0.00     1.788 OA 
HETATM   17  O   UNL     1      -7.805  15.517  65.986  1.00  0.00     0.544 OA 
BRANCH  13  18
HETATM   18  C   UNL     1     -10.309  15.830  67.845  1.00  0.00    -0.261 C  
HETATM   19  O   UNL     1     -10.988  16.654  68.444  1.00  0.00    -0.346 OA 
BRANCH  18  20
HETATM   20  O   UNL     1      -9.238  15.177  68.378  1.00  0.00    -0.179 OA 
BRANCH  20  21
HETATM   21  C   UNL     1      -9.540  13.908  68.983  1.00  0.00     0.139 C  
HETATM   22  C   UNL     1      -8.319  12.993  69.191  1.00  0.00     0.584 C  
HETATM   23  C   UNL     1      -7.209  13.672  70.023  1.00  0.00     0.693 C  
HETATM   24  C   UNL     1      -8.727  11.633  69.803  1.00  0.00     1.651 C  
HETATM   25  C   UNL     1      -7.586  14.003  71.461  1.00  0.00     4.573 C  
BRANCH  24  26
HETATM   26  C   UNL     1      -9.737  10.852  68.957  1.00  0.00    -0.181 C  
BRANCH  26  27
HETATM   27  C   UNL     1     -11.172  11.103  69.420  1.00  0.00    -0.334 C  
HETATM   28  C   UNL     1     -12.078  11.414  68.236  1.00  0.00    -0.079 C  
ENDBRANCH  26  27
ENDBRANCH  24  26
ENDBRANCH  20  21
ENDBRANCH  18  20
ENDBRANCH  13  18
ENDBRANCH  12  13
ENDBRANCH  10  12
ENDBRANCH   9  10
ENDBRANCH   7   9
ENDBRANCH   3   4
ENDBRANCH   2   3
TORSDOF 11
ENDMDL
MODEL      414
REMARK 921   NORMALIZED FREE ENERGY PREDICTED BY IDOCK:   15.98 KCAL/MOL
REMARK 922        TOTAL FREE ENERGY PREDICTED BY IDOCK:   24.00 KCAL/MOL
REMARK 923 INTER-LIGAND FREE ENERGY PREDICTED BY IDOCK:    9.77 KCAL/MOL
REMARK 924 INTRA-LIGAND FREE ENERGY PREDICTED BY IDOCK:   14.24 KCAL/MOL
REMARK 927      BINDING AFFINITY PREDICTED BY RF-SCORE:    0.00 PKD
ROOT
HETATM    1  C   UNL     1      -8.196   8.445  66.495  1.00  0.00    -0.105 C  
HETATM    2  C   UNL     1      -8.508   8.114  65.042  1.00  0.00    -0.117 C  
ENDROOT
BRANCH   2   3
HETATM    3  C   UNL     1      -8.628   9.386  64.204  1.00  0.00    -0.216 C  
BRANCH   3   4
HETATM    4  C   UNL     1      -8.521  10.655  65.058  1.00  0.00    -0.135 C  
HETATM    5  C   UNL     1      -9.862  11.407  65.209  1.00  0.00    -0.290 C  
HETATM    6  C   UNL     1     -11.017  10.545  65.768  1.00  0.00     0.169 C  
HETATM    7  C   UNL     1      -9.661  12.697  66.033  1.00  0.00    -0.188 C  
HETATM    8  C   UNL     1     -10.842  10.103  67.213  1.00  0.00    -0.295 C  
BRANCH   7   9
HETATM    9  O   UNL     1     -10.931  13.358  66.180  1.00  0.00    -0.276 OA 
BRANCH   9  10
HETATM   10  C   UNL     1     -10.883  14.711  66.304  1.00  0.00    -0.321 C  
HETATM   11  O   UNL     1     -11.439  15.503  65.558  1.00  0.00    -0.168 OA 
BRANCH  10  12
HETATM   12  C   UNL     1     -10.223  15.115  67.595  1.00  0.00    -0.241 C  
BRANCH  12  13
HETATM   13  C   UNL     1     -10.109  13.982  68.612  1.00  0.00    -0.217 C  
HETATM   14  O   UNL     1     -12.606  14.399  69.400  1.00  0.00    -0.180 OA 
HETATM   15  S   UNL     1     -11.695  13.338  69.047  1.00  0.00    -0.333 S  
HETATM   16  O   UNL     1     -12.120  12.807  67.580  1.00  0.00    -0.359 OA 
HETATM   17  O   UNL     1     -11.552  12.138  69.839  1.00  0.00    -0.285 OA 
BRANCH  13  18
HETATM   18  C   UNL     1      -9.456  14.468  69.867  1.00  0.00     0.693 C  
HETATM   19  O   UNL     1      -8.286  14.820  69.941  1.00  0.00     0.122 OA 
BRANCH  18  20
HETATM   20  O   UNL     1     -10.279  14.291  70.939  1.00  0.00     1.493 OA 
BRANCH  20  21
HETATM   21  C   UNL     1     -11.439  15.141  70.961  1.00  0.00    -0.330 C  
HETATM   22  C   UNL     1     -12.580  14.640  71.866  1.00  0.00    -0.409 C  
HETATM   23  C   UNL     1     -12.120  14.416  73.323  1.00  0.00     0.019 C  
HETATM   24  C   UNL     1     -13.807  15.579  71.804  1.00  0.00    -0.575 C  
HETATM   25  C   UNL     1     -11.675  15.669  74.065  1.00  0.00     0.006 C  
BRANCH  24  26
HETATM   26  C   UNL     1     -14.388  15.744  70.396  1.00  0.00     1.864 C  
BRANCH  26  27
HETATM   27  C   UNL     1     -13.542  16.693  69.546  1.00  0.00     5.778 C  
HETATM   28  C   UNL     1     -13.295  16.109  68.162  1.00  0.00     4.660 C  
ENDBRANCH  26  27
ENDBRANCH  24  26
ENDBRANCH  20  21
ENDBRANCH  18  20
ENDBRANCH  13  18
ENDBRANCH  12  13
ENDBRANCH  10  12
ENDBRANCH   9  10
ENDBRANCH   7   9
ENDBRANCH   3   4
ENDBRANCH   2   3
TORSDOF 11
ENDMDL
MODEL      415
REMARK 921   NORMALIZED FREE ENERGY PREDICTED BY IDOCK:   16.00 KCAL/MOL
REMARK 922        TOTAL FREE ENERGY PREDICTED BY IDOCK:   24.04 KCAL/MOL
REMARK 923 INTER-LIGAND FREE ENERGY PREDICTED BY IDOCK:    7.08 KCAL/MOL
REMARK 924 INTRA-LIGAND FREE ENERGY PREDICTED BY IDOCK:   16.96 KCAL/MOL
REMARK 927      BINDING AFFINITY PREDICTED BY RF-SCORE:    0.00 PKD
ROOT
HETATM    1  C   UNL     1      -8.676   9.897  71.038  1.00  0.00     0.935 C  
HETATM    2  C   UNL     1     -10.181  10.052  71.201  1.00  0.00     0.484 C  
ENDROOT
BRANCH   2   3
HETATM    3  C   UNL     1     -10.933   9.042  70.335  1.00  0.00    -0.283 C  
BRANCH   3   4
HETATM    4  C   UNL     1     -11.545   9.690  69.087  1.00  0.00     0.238 C  
HETATM    5  C   UNL     1     -11.655  11.227  69.185  1.00  0.00    -0.387 C  
HETATM    6  C   UNL     1     -10.321  11.944  69.497  1.00  0.00     0.420 C  
HETATM    7  C   UNL     1     -12.327  11.798  67.918  1.00  0.00     0.769 C  
HETATM    8  C   UNL     1      -9.279  11.863  68.390  1.00  0.00    -0.173 C  
BRANCH   7   9
HETATM    9  O   UNL     1     -12.389  13.231  68.029  1.00  0.00    -0.168 OA 
BRANCH   9  10
HETATM   10  C   UNL     1     -11.635  13.781  69.017  1.00  0.00    -0.313 C  
HETATM   11  O   UNL     1     -11.713  13.492  70.202  1.00  0.00    -0.278 OA 
BRANCH  10  12
HETATM   12  C   UNL     1     -10.546  14.653  68.450  1.00  0.00    -0.241 C  
BRANCH  12  13
HETATM   13  C   UNL     1     -10.691  14.928  66.956  1.00  0.00    -0.307 C  
HETATM   14  O   UNL     1      -8.853  16.833  67.098  1.00  0.00    -0.193 OA 
HETATM   15  S   UNL     1      -9.248  15.702  66.295  1.00  0.00    -0.348 S  
HETATM   16  O   UNL     1      -8.204  14.506  66.602  1.00  0.00    -0.027 OA 
HETATM   17  O   UNL     1      -9.320  15.758  64.853  1.00  0.00     0.265 OA 
BRANCH  13  18
HETATM   18  C   UNL     1     -11.852  15.836  66.700  1.00  0.00     0.692 C  
HETATM   19  O   UNL     1     -12.426  15.930  65.624  1.00  0.00     1.303 OA 
BRANCH  18  20
HETATM   20  O   UNL     1     -12.057  16.666  67.761  1.00  0.00     0.719 OA 
BRANCH  20  21
HETATM   21  C   UNL     1     -10.869  17.276  68.294  1.00  0.00    -0.287 C  
HETATM   22  C   UNL     1     -10.436  18.567  67.574  1.00  0.00    -0.453 C  
HETATM   23  C   UNL     1     -11.555  19.631  67.550  1.00  0.00     0.933 C  
HETATM   24  C   UNL     1      -9.130  19.139  68.172  1.00  0.00    -0.371 C  
HETATM   25  C   UNL     1     -11.968  20.171  68.913  1.00  0.00     4.510 C  
BRANCH  24  26
HETATM   26  C   UNL     1      -7.946  18.169  68.111  1.00  0.00    -0.290 C  
BRANCH  26  27
HETATM   27  C   UNL     1      -6.984  18.527  66.977  1.00  0.00    -0.210 C  
HETATM   28  C   UNL     1      -7.733  18.702  65.663  1.00  0.00     0.146 C  
ENDBRANCH  26  27
ENDBRANCH  24  26
ENDBRANCH  20  21
ENDBRANCH  18  20
ENDBRANCH  13  18
ENDBRANCH  12  13
ENDBRANCH  10  12
ENDBRANCH   9  10
ENDBRANCH   7   9
ENDBRANCH   3   4
ENDBRANCH   2   3
TORSDOF 11
ENDMDL
MODEL      416
REMARK 921   NORMALIZED FREE ENERGY PREDICTED BY IDOCK:   22.48 KCAL/MOL
REMARK 922        TOTAL FREE ENERGY PREDICTED BY IDOCK:   34.69 KCAL/MOL
REMARK 923 INTER-LIGAND FREE ENERGY PREDICTED BY IDOCK:   18.67 KCAL/MOL
REMARK 924 INTRA-LIGAND FREE ENERGY PREDICTED BY IDOCK:   16.02 KCAL/MOL
REMARK 927      BINDING AFFINITY PREDICTED BY RF-SCORE:    0.00 PKD
ROOT
HETATM    1  C   UNL     1     -14.343  14.910  70.449  1.00  0.00     1.224 C  
HETATM    2  C   UNL     1     -13.617  13.597  70.709  1.00  0.00     0.325 C  
ENDROOT
BRANCH   2   3
HETATM    3  C   UNL     1     -12.511  13.779  71.747  1.00  0.00    -0.254 C  
BRANCH   3   4
HETATM    4  C   UNL     1     -11.162  13.237  71.258  1.00  0.00     2.595 C  
HETATM    5  C   UNL     1     -10.190  14.343  70.791  1.00  0.00     1.612 C  
HETATM    6  C   UNL     1      -9.916  15.438  71.848  1.00  0.00     2.771 C  
HETATM    7  C   UNL     1      -8.881  13.717  70.265  1.00  0.00     3.538 C  
HETATM    8  C   UNL     1      -9.148  14.964  73.073  1.00  0.00     8.546 C  
BRANCH   7   9
HETATM    9  O   UNL     1      -7.987  14.772  69.866  1.00  0.00     0.027 OA 
BRANCH   9  10
HETATM   10  C   UNL     1      -8.536  15.755  69.104  1.00  0.00    -0.251 C  
HETATM   11  O   UNL     1      -8.555  16.942  69.397  1.00  0.00    -0.011 OA 
BRANCH  10  12
HETATM   12  C   UNL     1      -8.944  15.231  67.753  1.00  0.00    -0.177 C  
BRANCH  12  13
HETATM   13  C   UNL     1      -8.137  15.812  66.595  1.00  0.00    -0.247 C  
HETATM   14  O   UNL     1      -6.505  17.019  68.300  1.00  0.00    -0.145 OA 
HETATM   15  S   UNL     1      -6.495  16.230  67.093  1.00  0.00    -0.133 S  
HETATM   16  O   UNL     1      -6.009  14.742  67.495  1.00  0.00    -0.328 OA 
HETATM   17  O   UNL     1      -5.691  16.575  65.943  1.00  0.00     0.539 OA 
BRANCH  13  18
HETATM   18  C   UNL     1      -8.786  17.057  66.077  1.00  0.00    -0.135 C  
HETATM   19  O   UNL     1      -8.314  18.179  66.198  1.00  0.00    -0.440 OA 
BRANCH  18  20
HETATM   20  O   UNL     1     -10.044  16.792  65.625  1.00  0.00    -0.534 OA 
BRANCH  20  21
HETATM   21  C   UNL     1     -10.549  15.488  65.961  1.00  0.00    -0.325 C  
HETATM   22  C   UNL     1     -10.436  15.126  67.454  1.00  0.00    -0.264 C  
HETATM   23  C   UNL     1     -11.131  16.161  68.365  1.00  0.00    -0.359 C  
HETATM   24  C   UNL     1     -10.956  13.696  67.731  1.00  0.00    -0.276 C  
HETATM   25  C   UNL     1     -12.641  16.268  68.194  1.00  0.00     1.926 C  
BRANCH  24  26
HETATM   26  C   UNL     1     -10.219  12.607  66.946  1.00  0.00    -0.242 C  
BRANCH  26  27
HETATM   27  C   UNL     1      -8.871  12.268  67.584  1.00  0.00    -0.175 C  
HETATM   28  C   UNL     1      -8.877  10.853  68.145  1.00  0.00    -0.137 C  
ENDBRANCH  26  27
ENDBRANCH  24  26
ENDBRANCH  20  21
ENDBRANCH  18  20
ENDBRANCH  13  18
ENDBRANCH  12  13
ENDBRANCH  10  12
ENDBRANCH   9  10
ENDBRANCH   7   9
ENDBRANCH   3   4
ENDBRANCH   2   3
TORSDOF 11
ENDMDL
MODEL      417
REMARK 921   NORMALIZED FREE ENERGY PREDICTED BY IDOCK:   24.64 KCAL/MOL
REMARK 922        TOTAL FREE ENERGY PREDICTED BY IDOCK:   38.24 KCAL/MOL
REMARK 923 INTER-LIGAND FREE ENERGY PREDICTED BY IDOCK:   12.48 KCAL/MOL
REMARK 924 INTRA-LIGAND FREE ENERGY PREDICTED BY IDOCK:   25.76 KCAL/MOL
REMARK 927      BINDING AFFINITY PREDICTED BY RF-SCORE:    0.00 PKD
ROOT
HETATM    1  C   UNL     1      -8.596  10.052  71.345  1.00  0.00     2.196 C  
HETATM    2  C   UNL     1     -10.095  10.319  71.355  1.00  0.00     2.060 C  
ENDROOT
BRANCH   2   3
HETATM    3  C   UNL     1     -10.796   9.553  70.234  1.00  0.00    -0.319 C  
BRANCH   3   4
HETATM    4  C   UNL     1     -10.842  10.354  68.927  1.00  0.00    -0.273 C  
HETATM    5  C   UNL     1     -10.681  11.876  69.133  1.00  0.00    -0.143 C  
HETATM    6  C   UNL     1      -9.404  12.283  69.903  1.00  0.00     2.713 C  
HETATM    7  C   UNL     1     -10.792  12.613  67.781  1.00  0.00    -0.221 C  
HETATM    8  C   UNL     1      -8.100  12.016  69.165  1.00  0.00     0.338 C  
BRANCH   7   9
HETATM    9  O   UNL     1     -10.610  14.023  68.005  1.00  0.00    -0.239 OA 
BRANCH   9  10
HETATM   10  C   UNL     1     -10.137  14.372  69.230  1.00  0.00    -0.024 C  
HETATM   11  O   UNL     1     -10.702  14.146  70.290  1.00  0.00     0.253 OA 
BRANCH  10  12
HETATM   12  C   UNL     1      -8.729  14.899  69.140  1.00  0.00    -0.149 C  
BRANCH  12  13
HETATM   13  C   UNL     1      -8.191  14.982  67.714  1.00  0.00    -0.153 C  
HETATM   14  O   UNL     1      -6.726  17.095  68.358  1.00  0.00    -0.159 OA 
HETATM   15  S   UNL     1      -6.649  15.841  67.651  1.00  0.00    -0.182 S  
HETATM   16  O   UNL     1      -5.798  14.821  68.571  1.00  0.00    -0.087 OA 
HETATM   17  O   UNL     1      -6.059  15.723  66.337  1.00  0.00     0.526 OA 
BRANCH  13  18
HETATM   18  C   UNL     1      -9.154  15.710  66.832  1.00  0.00    -0.236 C  
HETATM   19  O   UNL     1      -9.102  15.710  65.609  1.00  0.00    -0.238 OA 
BRANCH  18  20
HETATM   20  O   UNL     1      -9.972  16.513  67.570  1.00  0.00    -0.246 OA 
BRANCH  20  21
HETATM   21  C   UNL     1      -9.485  16.830  68.886  1.00  0.00    -0.246 C  
HETATM   22  C   UNL     1      -8.262  17.765  68.906  1.00  0.00    -0.147 C  
HETATM   23  C   UNL     1      -8.523  19.090  68.156  1.00  0.00    -0.351 C  
HETATM   24  C   UNL     1      -7.769  18.024  70.349  1.00  0.00     2.924 C  
HETATM   25  C   UNL     1      -9.594  19.983  68.767  1.00  0.00    -0.216 C  
BRANCH  24  26
HETATM   26  C   UNL     1      -7.376  16.752  71.105  1.00  0.00     4.890 C  
BRANCH  26  27
HETATM   27  C   UNL     1      -6.122  16.109  70.510  1.00  0.00     0.190 C  
HETATM   28  C   UNL     1      -5.378  15.297  71.562  1.00  0.00     0.019 C  
ENDBRANCH  26  27
ENDBRANCH  24  26
ENDBRANCH  20  21
ENDBRANCH  18  20
ENDBRANCH  13  18
ENDBRANCH  12  13
ENDBRANCH  10  12
ENDBRANCH   9  10
ENDBRANCH   7   9
ENDBRANCH   3   4
ENDBRANCH   2   3
TORSDOF 11
ENDMDL
MODEL      418
REMARK 921   NORMALIZED FREE ENERGY PREDICTED BY IDOCK:   36.35 KCAL/MOL
REMARK 922        TOTAL FREE ENERGY PREDICTED BY IDOCK:   57.48 KCAL/MOL
REMARK 923 INTER-LIGAND FREE ENERGY PREDICTED BY IDOCK:   45.84 KCAL/MOL
REMARK 924 INTRA-LIGAND FREE ENERGY PREDICTED BY IDOCK:   11.65 KCAL/MOL
REMARK 927      BINDING AFFINITY PREDICTED BY RF-SCORE:    0.00 PKD
ROOT
HETATM    1  C   UNL     1      -8.393   8.667  66.562  1.00  0.00    -0.108 C  
HETATM    2  C   UNL     1      -9.228   8.305  65.342  1.00  0.00     0.088 C  
ENDROOT
BRANCH   2   3
HETATM    3  C   UNL     1      -9.584   9.551  64.532  1.00  0.00     0.039 C  
BRANCH   3   4
HETATM    4  C   UNL     1      -9.023  10.832  65.162  1.00  0.00    -0.215 C  
HETATM    5  C   UNL     1     -10.111  11.874  65.505  1.00  0.00    -0.277 C  
HETATM    6  C   UNL     1     -11.239  11.341  66.418  1.00  0.00    -0.190 C  
HETATM    7  C   UNL     1      -9.464  13.151  66.084  1.00  0.00    -0.145 C  
HETATM    8  C   UNL     1     -10.804  10.993  67.834  1.00  0.00    -0.285 C  
BRANCH   7   9
HETATM    9  O   UNL     1     -10.504  14.088  66.419  1.00  0.00    -0.277 OA 
BRANCH   9  10
HETATM   10  C   UNL     1     -10.095  15.359  66.673  1.00  0.00    -0.265 C  
HETATM   11  O   UNL     1     -10.607  16.367  66.207  1.00  0.00    -0.303 OA 
BRANCH  10  12
HETATM   12  C   UNL     1      -9.056  15.388  67.763  1.00  0.00    -0.178 C  
BRANCH  12  13
HETATM   13  C   UNL     1      -8.653  14.005  68.269  1.00  0.00    -0.180 C  
HETATM   14  O   UNL     1      -9.875  14.462  70.577  1.00  0.00     1.125 OA 
HETATM   15  S   UNL     1      -9.722  13.451  69.561  1.00  0.00     1.350 S  
HETATM   16  O   UNL     1     -11.093  13.416  68.705  1.00  0.00    -0.242 OA 
HETATM   17  O   UNL     1      -9.457  12.065  69.875  1.00  0.00     1.703 OA 
BRANCH  13  18
HETATM   18  C   UNL     1      -7.260  14.032  68.811  1.00  0.00    -0.113 C  
HETATM   19  O   UNL     1      -6.258  13.820  68.141  1.00  0.00    -0.098 OA 
BRANCH  18  20
HETATM   20  O   UNL     1      -7.273  14.138  70.170  1.00  0.00     0.189 OA 
BRANCH  20  21
HETATM   21  C   UNL     1      -7.503  15.465  70.673  1.00  0.00     1.209 C  
HETATM   22  C   UNL     1      -7.984  15.520  72.135  1.00  0.00     7.151 C  
HETATM   23  C   UNL     1      -7.017  14.799  73.100  1.00  0.00     3.627 C  
HETATM   24  C   UNL     1      -8.252  16.973  72.590  1.00  0.00    17.024 C  
HETATM   25  C   UNL     1      -5.632  15.421  73.216  1.00  0.00     0.965 C  
BRANCH  24  26
HETATM   26  C   UNL     1      -9.299  17.702  71.743  1.00  0.00    10.042 C  
BRANCH  26  27
HETATM   27  C   UNL     1      -8.710  18.191  70.419  1.00  0.00     3.510 C  
HETATM   28  C   UNL     1      -7.981  17.063  69.700  1.00  0.00     0.691 C  
ENDBRANCH  26  27
ENDBRANCH  24  26
ENDBRANCH  20  21
ENDBRANCH  18  20
ENDBRANCH  13  18
ENDBRANCH  12  13
ENDBRANCH  10  12
ENDBRANCH   9  10
ENDBRANCH   7   9
ENDBRANCH   3   4
ENDBRANCH   2   3
TORSDOF 11
ENDMDL
MODEL      419
REMARK 921   NORMALIZED FREE ENERGY PREDICTED BY IDOCK:   37.82 KCAL/MOL
REMARK 922        TOTAL FREE ENERGY PREDICTED BY IDOCK:   59.89 KCAL/MOL
REMARK 923 INTER-LIGAND FREE ENERGY PREDICTED BY IDOCK:   12.95 KCAL/MOL
REMARK 924 INTRA-LIGAND FREE ENERGY PREDICTED BY IDOCK:   46.94 KCAL/MOL
REMARK 927      BINDING AFFINITY PREDICTED BY RF-SCORE:    0.00 PKD
ROOT
HETATM    1  C   UNL     1      -8.264   5.436  68.717  1.00  0.00    -0.094 C  
HETATM    2  C   UNL     1      -9.695   5.564  68.214  1.00  0.00    -0.167 C  
ENDROOT
BRANCH   2   3
HETATM    3  C   UNL     1     -10.475   6.591  69.035  1.00  0.00    -0.252 C  
BRANCH   3   4
HETATM    4  C   UNL     1     -10.209   8.028  68.570  1.00  0.00    -0.231 C  
HETATM    5  C   UNL     1     -11.347   8.613  67.704  1.00  0.00     0.974 C  
HETATM    6  C   UNL     1     -12.741   8.571  68.370  1.00  0.00     7.750 C  
HETATM    7  C   UNL     1     -10.981  10.036  67.232  1.00  0.00    -0.156 C  
HETATM    8  C   UNL     1     -12.895   9.475  69.585  1.00  0.00     1.650 C  
BRANCH   7   9
HETATM    9  O   UNL     1     -12.071  10.562  66.453  1.00  0.00     1.551 OA 
BRANCH   9  10
HETATM   10  C   UNL     1     -12.197  11.915  66.449  1.00  0.00     0.703 C  
HETATM   11  O   UNL     1     -13.250  12.522  66.579  1.00  0.00     1.747 OA 
BRANCH  10  12
HETATM   12  C   UNL     1     -10.849  12.587  66.464  1.00  0.00    -0.287 C  
BRANCH  12  13
HETATM   13  C   UNL     1      -9.676  11.618  66.349  1.00  0.00    -0.214 C  
HETATM   14  O   UNL     1     -10.930   9.868  67.895  1.00  0.00    -0.272 OA 
HETATM   15  S   UNL     1     -10.173   9.954  66.671  1.00  0.00    -0.209 S  
HETATM   16  O   UNL     1     -11.217   9.802  65.447  1.00  0.00     1.538 OA 
HETATM   17  O   UNL     1      -9.103   9.037  66.350  1.00  0.00    -0.150 OA 
BRANCH  13  18
HETATM   18  C   UNL     1      -8.606  11.972  67.333  1.00  0.00    -0.171 C  
HETATM   19  O   UNL     1      -8.152  11.196  68.163  1.00  0.00    -0.116 OA 
BRANCH  18  20
HETATM   20  O   UNL     1      -8.345  13.310  67.301  1.00  0.00    -0.181 OA 
BRANCH  20  21
HETATM   21  C   UNL     1      -7.746  13.840  68.496  1.00  0.00    -0.138 C  
HETATM   22  C   UNL     1      -8.122  15.301  68.805  1.00  0.00    -0.165 C  
HETATM   23  C   UNL     1      -9.650  15.507  68.900  1.00  0.00    -0.220 C  
HETATM   24  C   UNL     1      -7.407  15.815  70.076  1.00  0.00     0.284 C  
HETATM   25  C   UNL     1     -10.336  14.771  70.043  1.00  0.00     0.080 C  
BRANCH  24  26
HETATM   26  C   UNL     1      -5.879  15.751  69.994  1.00  0.00    -0.159 C  
BRANCH  26  27
HETATM   27  C   UNL     1      -5.408  14.498  69.253  1.00  0.00    -0.081 C  
HETATM   28  C   UNL     1      -5.569  14.665  67.748  1.00  0.00    -0.059 C  
ENDBRANCH  26  27
ENDBRANCH  24  26
ENDBRANCH  20  21
ENDBRANCH  18  20
ENDBRANCH  13  18
ENDBRANCH  12  13
ENDBRANCH  10  12
ENDBRANCH   9  10
ENDBRANCH   7   9
ENDBRANCH   3   4
ENDBRANCH   2   3
TORSDOF 11
ENDMDL
