MODEL        1
REMARK 921   NORMALIZED FREE ENERGY PREDICTED BY IDOCK:   -6.45 KCAL/MOL
REMARK 922        TOTAL FREE ENERGY PREDICTED BY IDOCK:  -12.16 KCAL/MOL
REMARK 923 INTER-LIGAND FREE ENERGY PREDICTED BY IDOCK:  -10.60 KCAL/MOL
REMARK 924 INTRA-LIGAND FREE ENERGY PREDICTED BY IDOCK:   -1.56 KCAL/MOL
REMARK 927      BINDING AFFINITY PREDICTED BY RF-SCORE:    0.00 PKD
ROOT
HETATM    1  C   UNL     1     -12.760  15.509  73.872  1.00  0.00    -0.580 C  
HETATM    2  N   UNL     1     -12.927  15.798  72.444  1.00  0.00    -0.452 NA 
ENDROOT
BRANCH   2   3
HETATM    3  C   UNL     1     -13.753  14.769  71.775  1.00  0.00    -0.421 C  
BRANCH   3   4
HETATM    4  C   UNL     1     -13.726  13.359  72.409  1.00  0.00    -0.698 C  
BRANCH   4   5
HETATM    5  C   UNL     1     -13.016  12.320  71.571  1.00  0.00    -0.390 A  
HETATM    6  C   UNL     1     -11.775  10.384  69.969  1.00  0.00    -0.286 A  
HETATM    7  C   UNL     1     -13.136  10.956  71.878  1.00  0.00    -0.537 A  
HETATM    8  C   UNL     1     -12.234  12.700  70.472  1.00  0.00    -0.383 A  
HETATM    9  C   UNL     1     -12.517   9.991  71.081  1.00  0.00    -0.480 A  
HETATM   10  C   UNL     1     -11.615  11.735  69.675  1.00  0.00    -0.393 A  
BRANCH   6  11
HETATM   11  N   UNL     1     -11.144   9.416  69.137  1.00  0.00    -0.433 N  
HETATM   12  H   UNL     1     -11.639   8.990  68.353  1.00  0.00     0.000 HD 
BRANCH  11  13
HETATM   13  S   UNL     1      -9.547   8.997  69.495  1.00  0.00    -0.170 S  
HETATM   14  O   UNL     1      -9.390   7.638  69.017  1.00  0.00    -0.147 OA 
HETATM   15  O   UNL     1      -9.228   9.349  70.860  1.00  0.00    -0.244 OA 
HETATM   16  C   UNL     1      -8.647  10.060  68.388  1.00  0.00    -0.113 C  
ENDBRANCH  11  13
ENDBRANCH   6  11
ENDBRANCH   4   5
ENDBRANCH   3   4
ENDBRANCH   2   3
BRANCH   2  17
HETATM   17  C   UNL     1     -11.591  15.932  71.820  1.00  0.00    -0.455 C  
BRANCH  17  18
HETATM   18  C   UNL     1     -11.599  15.947  70.283  1.00  0.00    -0.354 C  
BRANCH  18  19
HETATM   19  O   UNL     1     -10.266  15.740  69.799  1.00  0.00    -0.271 OA 
BRANCH  19  20
HETATM   20  C   UNL     1     -10.164  15.188  68.548  1.00  0.00    -0.231 A  
HETATM   21  C   UNL     1      -9.053  14.497  68.056  1.00  0.00    -0.185 A  
HETATM   22  C   UNL     1     -11.284  15.351  67.728  1.00  0.00    -0.321 A  
HETATM   23  C   UNL     1     -10.160  14.199  65.929  1.00  0.00    -0.321 A  
HETATM   24  C   UNL     1     -11.287  14.854  66.420  1.00  0.00    -0.308 A  
HETATM   25  C   UNL     1      -9.053  14.003  66.750  1.00  0.00    -0.250 A  
BRANCH  23  26
HETATM   26  N   UNL     1     -10.128  13.695  64.598  1.00  0.00    -0.631 N  
HETATM   27  H   UNL     1      -9.627  14.187  63.858  1.00  0.00     0.000 HD 
BRANCH  26  28
HETATM   28  S   UNL     1     -10.947  12.251  64.285  1.00  0.00    -0.377 S  
HETATM   29  O   UNL     1     -11.124  11.504  65.508  1.00  0.00    -0.271 OA 
HETATM   30  C   UNL     1      -9.790  11.398  63.234  1.00  0.00    -0.404 C  
HETATM   31  O   UNL     1     -12.083  12.627  63.466  1.00  0.00    -0.494 OA 
ENDBRANCH  26  28
ENDBRANCH  23  26
ENDBRANCH  19  20
ENDBRANCH  18  19
ENDBRANCH  17  18
ENDBRANCH   2  17
TORSDOF 11
ENDMDL
MODEL        2
REMARK 921   NORMALIZED FREE ENERGY PREDICTED BY IDOCK:   -6.22 KCAL/MOL
REMARK 922        TOTAL FREE ENERGY PREDICTED BY IDOCK:  -11.78 KCAL/MOL
REMARK 923 INTER-LIGAND FREE ENERGY PREDICTED BY IDOCK:  -10.20 KCAL/MOL
REMARK 924 INTRA-LIGAND FREE ENERGY PREDICTED BY IDOCK:   -1.59 KCAL/MOL
REMARK 927      BINDING AFFINITY PREDICTED BY RF-SCORE:    0.00 PKD
ROOT
HETATM    1  C   UNL     1     -12.469  15.748  74.030  1.00  0.00    -0.645 C  
HETATM    2  N   UNL     1     -12.695  15.336  72.640  1.00  0.00    -0.350 NA 
ENDROOT
BRANCH   2   3
HETATM    3  C   UNL     1     -13.381  14.028  72.568  1.00  0.00    -0.539 C  
BRANCH   3   4
HETATM    4  C   UNL     1     -13.408  13.351  71.178  1.00  0.00    -0.096 C  
BRANCH   4   5
HETATM    5  C   UNL     1     -12.858  11.942  71.168  1.00  0.00    -0.346 A  
HETATM    6  C   UNL     1     -11.903   9.309  71.092  1.00  0.00    -0.325 A  
HETATM    7  C   UNL     1     -13.400  10.963  72.014  1.00  0.00    -0.394 A  
HETATM    8  C   UNL     1     -11.807  11.591  70.311  1.00  0.00    -0.431 A  
HETATM    9  C   UNL     1     -12.923   9.650  71.978  1.00  0.00    -0.518 A  
HETATM   10  C   UNL     1     -11.331  10.279  70.274  1.00  0.00    -0.398 A  
BRANCH   6  11
HETATM   11  N   UNL     1     -11.411   7.974  71.031  1.00  0.00    -0.278 N  
HETATM   12  H   UNL     1     -11.788   7.302  70.362  1.00  0.00     0.000 HD 
BRANCH  11  13
HETATM   13  S   UNL     1     -10.180   7.544  72.105  1.00  0.00    -0.205 S  
HETATM   14  O   UNL     1     -10.847   7.260  73.360  1.00  0.00    -0.374 OA 
HETATM   15  O   UNL     1      -9.095   8.497  72.035  1.00  0.00    -0.207 OA 
HETATM   16  C   UNL     1      -9.643   5.991  71.422  1.00  0.00    -0.160 C  
ENDBRANCH  11  13
ENDBRANCH   6  11
ENDBRANCH   4   5
ENDBRANCH   3   4
ENDBRANCH   2   3
BRANCH   2  17
HETATM   17  C   UNL     1     -11.399  15.327  71.923  1.00  0.00    -0.366 C  
BRANCH  17  18
HETATM   18  C   UNL     1     -11.387  16.124  70.609  1.00  0.00    -0.370 C  
BRANCH  18  19
HETATM   19  O   UNL     1     -10.248  15.740  69.831  1.00  0.00    -0.284 OA 
BRANCH  19  20
HETATM   20  C   UNL     1     -10.480  14.813  68.847  1.00  0.00    -0.249 A  
HETATM   21  C   UNL     1      -9.574  13.837  68.424  1.00  0.00    -0.206 A  
HETATM   22  C   UNL     1     -11.738  14.883  68.244  1.00  0.00    -0.342 A  
HETATM   23  C   UNL     1     -11.156  13.062  66.771  1.00  0.00    -0.286 A  
HETATM   24  C   UNL     1     -12.082  14.007  67.209  1.00  0.00    -0.405 A  
HETATM   25  C   UNL     1      -9.913  12.963  67.389  1.00  0.00    -0.217 A  
BRANCH  23  26
HETATM   26  N   UNL     1     -11.471  12.164  65.711  1.00  0.00    -0.361 N  
HETATM   27  H   UNL     1     -11.807  11.220  65.901  1.00  0.00     0.000 HD 
BRANCH  26  28
HETATM   28  S   UNL     1     -11.270  12.718  64.128  1.00  0.00    -0.418 S  
HETATM   29  O   UNL     1     -12.538  12.730  63.439  1.00  0.00    -0.701 OA 
HETATM   30  C   UNL     1     -10.231  11.450  63.431  1.00  0.00    -0.411 C  
HETATM   31  O   UNL     1     -10.468  13.921  64.244  1.00  0.00    -0.313 OA 
ENDBRANCH  26  28
ENDBRANCH  23  26
ENDBRANCH  19  20
ENDBRANCH  18  19
ENDBRANCH  17  18
ENDBRANCH   2  17
TORSDOF 11
ENDMDL
MODEL        3
REMARK 921   NORMALIZED FREE ENERGY PREDICTED BY IDOCK:   -6.18 KCAL/MOL
REMARK 922        TOTAL FREE ENERGY PREDICTED BY IDOCK:  -11.71 KCAL/MOL
REMARK 923 INTER-LIGAND FREE ENERGY PREDICTED BY IDOCK:   -9.92 KCAL/MOL
REMARK 924 INTRA-LIGAND FREE ENERGY PREDICTED BY IDOCK:   -1.79 KCAL/MOL
REMARK 927      BINDING AFFINITY PREDICTED BY RF-SCORE:    0.00 PKD
ROOT
HETATM    1  C   UNL     1     -12.516  16.281  74.210  1.00  0.00    -0.506 C  
HETATM    2  N   UNL     1     -12.551  15.230  73.188  1.00  0.00    -0.415 NA 
ENDROOT
BRANCH   2   3
HETATM    3  C   UNL     1     -11.375  15.304  72.293  1.00  0.00    -0.300 C  
BRANCH   3   4
HETATM    4  C   UNL     1     -11.529  16.199  71.042  1.00  0.00    -0.424 C  
BRANCH   4   5
HETATM    5  C   UNL     1     -11.188  15.504  69.743  1.00  0.00    -0.307 A  
HETATM    6  C   UNL     1     -10.539  14.296  67.299  1.00  0.00    -0.278 A  
HETATM    7  C   UNL     1     -12.153  15.378  68.732  1.00  0.00    -0.183 A  
HETATM    8  C   UNL     1      -9.906  14.983  69.525  1.00  0.00    -0.136 A  
HETATM    9  C   UNL     1     -11.830  14.774  67.513  1.00  0.00    -0.326 A  
HETATM   10  C   UNL     1      -9.583  14.381  68.307  1.00  0.00    -0.211 A  
BRANCH   6  11
HETATM   11  N   UNL     1     -10.187  13.688  66.060  1.00  0.00    -0.300 N  
HETATM   12  H   UNL     1      -9.293  13.887  65.610  1.00  0.00     0.000 HD 
BRANCH  11  13
HETATM   13  S   UNL     1     -11.302  12.627  65.365  1.00  0.00    -0.327 S  
HETATM   14  O   UNL     1     -12.172  13.458  64.557  1.00  0.00    -0.391 OA 
HETATM   15  O   UNL     1     -11.841  11.735  66.366  1.00  0.00    -0.534 OA 
HETATM   16  C   UNL     1     -10.263  11.703  64.253  1.00  0.00    -0.311 C  
ENDBRANCH  11  13
ENDBRANCH   6  11
ENDBRANCH   4   5
ENDBRANCH   3   4
ENDBRANCH   2   3
BRANCH   2  17
HETATM   17  C   UNL     1     -13.827  15.328  72.441  1.00  0.00    -0.540 C  
BRANCH  17  18
HETATM   18  C   UNL     1     -14.341  13.995  71.874  1.00  0.00    -0.382 C  
BRANCH  18  19
HETATM   19  O   UNL     1     -13.744  12.910  72.595  1.00  0.00    -0.573 OA 
BRANCH  19  20
HETATM   20  C   UNL     1     -13.159  11.934  71.830  1.00  0.00    -0.360 A  
HETATM   21  C   UNL     1     -13.267  10.559  72.050  1.00  0.00    -0.483 A  
HETATM   22  C   UNL     1     -12.400  12.394  70.751  1.00  0.00    -0.377 A  
HETATM   23  C   UNL     1     -11.819  10.125  70.166  1.00  0.00    -0.222 A  
HETATM   24  C   UNL     1     -11.732  11.493  69.914  1.00  0.00    -0.420 A  
HETATM   25  C   UNL     1     -12.599   9.657  71.219  1.00  0.00    -0.443 A  
BRANCH  23  26
HETATM   26  N   UNL     1     -11.140   9.184  69.341  1.00  0.00    -0.428 N  
HETATM   27  H   UNL     1     -11.484   8.955  68.408  1.00  0.00     0.000 HD 
BRANCH  26  28
HETATM   28  S   UNL     1      -9.746   8.459  69.960  1.00  0.00    -0.178 S  
HETATM   29  O   UNL     1      -9.161   9.295  70.982  1.00  0.00    -0.246 OA 
HETATM   30  C   UNL     1      -8.681   8.443  68.531  1.00  0.00    -0.136 C  
HETATM   31  O   UNL     1     -10.121   7.086  70.237  1.00  0.00    -0.186 OA 
ENDBRANCH  26  28
ENDBRANCH  23  26
ENDBRANCH  19  20
ENDBRANCH  18  19
ENDBRANCH  17  18
ENDBRANCH   2  17
TORSDOF 11
ENDMDL
MODEL        4
REMARK 921   NORMALIZED FREE ENERGY PREDICTED BY IDOCK:   -6.13 KCAL/MOL
REMARK 922        TOTAL FREE ENERGY PREDICTED BY IDOCK:  -11.64 KCAL/MOL
REMARK 923 INTER-LIGAND FREE ENERGY PREDICTED BY IDOCK:  -10.40 KCAL/MOL
REMARK 924 INTRA-LIGAND FREE ENERGY PREDICTED BY IDOCK:   -1.24 KCAL/MOL
REMARK 927      BINDING AFFINITY PREDICTED BY RF-SCORE:    0.00 PKD
ROOT
HETATM    1  C   UNL     1     -12.701   8.306  72.160  1.00  0.00    -0.329 C  
HETATM    2  N   UNL     1     -11.923   9.500  71.815  1.00  0.00    -0.382 NA 
ENDROOT
BRANCH   2   3
HETATM    3  C   UNL     1     -12.747  10.495  71.095  1.00  0.00    -0.418 C  
BRANCH   3   4
HETATM    4  C   UNL     1     -13.308  11.656  71.946  1.00  0.00    -0.403 C  
BRANCH   4   5
HETATM    5  C   UNL     1     -12.832  13.024  71.513  1.00  0.00    -0.386 A  
HETATM    6  C   UNL     1     -11.874  15.547  70.756  1.00  0.00    -0.367 A  
HETATM    7  C   UNL     1     -13.041  14.142  72.334  1.00  0.00    -0.525 A  
HETATM    8  C   UNL     1     -12.169  13.197  70.290  1.00  0.00    -0.376 A  
HETATM    9  C   UNL     1     -12.565  15.401  71.957  1.00  0.00    -0.448 A  
HETATM   10  C   UNL     1     -11.692  14.454  69.913  1.00  0.00    -0.363 A  
BRANCH   6  11
HETATM   11  N   UNL     1     -11.371  16.818  70.358  1.00  0.00    -0.374 N  
HETATM   12  H   UNL     1     -11.645  17.672  70.846  1.00  0.00     0.000 HD 
BRANCH  11  13
HETATM   13  S   UNL     1     -10.303  16.862  69.050  1.00  0.00    -0.335 S  
HETATM   14  O   UNL     1     -11.082  16.441  67.903  1.00  0.00    -0.326 OA 
HETATM   15  O   UNL     1      -9.062  16.205  69.390  1.00  0.00    -0.240 OA 
HETATM   16  C   UNL     1     -10.016  18.611  68.887  1.00  0.00    -0.354 C  
ENDBRANCH  11  13
ENDBRANCH   6  11
ENDBRANCH   4   5
ENDBRANCH   3   4
ENDBRANCH   2   3
BRANCH   2  17
HETATM   17  C   UNL     1     -10.733   9.090  71.033  1.00  0.00    -0.269 C  
BRANCH  17  18
HETATM   18  C   UNL     1     -10.741   9.549  69.566  1.00  0.00    -0.228 C  
BRANCH  18  19
HETATM   19  O   UNL     1      -9.640  10.438  69.341  1.00  0.00    -0.217 OA 
BRANCH  19  20
HETATM   20  C   UNL     1      -9.753  11.268  68.256  1.00  0.00    -0.198 A  
HETATM   21  C   UNL     1      -9.116  12.503  68.110  1.00  0.00    -0.204 A  
HETATM   22  C   UNL     1     -10.584  10.805  67.233  1.00  0.00    -0.304 A  
HETATM   23  C   UNL     1     -10.188  12.823  65.969  1.00  0.00    -0.278 A  
HETATM   24  C   UNL     1     -10.800  11.577  66.086  1.00  0.00    -0.330 A  
HETATM   25  C   UNL     1      -9.332  13.277  66.969  1.00  0.00    -0.242 A  
BRANCH  23  26
HETATM   26  N   UNL     1     -10.399  13.638  64.821  1.00  0.00    -0.512 N  
HETATM   27  H   UNL     1      -9.644  13.825  64.160  1.00  0.00     0.000 HD 
BRANCH  26  28
HETATM   28  S   UNL     1     -11.941  14.285  64.590  1.00  0.00    -0.472 S  
HETATM   29  O   UNL     1     -12.532  13.749  63.386  1.00  0.00    -0.817 OA 
HETATM   30  C   UNL     1     -11.577  16.013  64.349  1.00  0.00    -0.212 C  
HETATM   31  O   UNL     1     -12.605  14.156  65.872  1.00  0.00    -0.486 OA 
ENDBRANCH  26  28
ENDBRANCH  23  26
ENDBRANCH  19  20
ENDBRANCH  18  19
ENDBRANCH  17  18
ENDBRANCH   2  17
TORSDOF 11
ENDMDL
MODEL        5
REMARK 921   NORMALIZED FREE ENERGY PREDICTED BY IDOCK:   -6.09 KCAL/MOL
REMARK 922        TOTAL FREE ENERGY PREDICTED BY IDOCK:  -11.57 KCAL/MOL
REMARK 923 INTER-LIGAND FREE ENERGY PREDICTED BY IDOCK:  -10.28 KCAL/MOL
REMARK 924 INTRA-LIGAND FREE ENERGY PREDICTED BY IDOCK:   -1.29 KCAL/MOL
REMARK 927      BINDING AFFINITY PREDICTED BY RF-SCORE:    0.00 PKD
ROOT
HETATM    1  C   UNL     1     -12.329  12.312  63.617  1.00  0.00    -0.562 C  
HETATM    2  N   UNL     1     -11.211  12.647  64.505  1.00  0.00    -0.317 NA 
ENDROOT
BRANCH   2   3
HETATM    3  C   UNL     1     -11.370  12.023  65.837  1.00  0.00    -0.337 C  
BRANCH   3   4
HETATM    4  C   UNL     1     -10.316  10.959  66.218  1.00  0.00    -0.306 C  
BRANCH   4   5
HETATM    5  C   UNL     1     -10.387  10.511  67.661  1.00  0.00    -0.257 A  
HETATM    6  C   UNL     1     -10.563   9.608  70.308  1.00  0.00    -0.278 A  
HETATM    7  C   UNL     1     -11.510  10.815  68.445  1.00  0.00    -0.358 A  
HETATM    8  C   UNL     1      -9.338   9.779  68.235  1.00  0.00    -0.134 A  
HETATM    9  C   UNL     1     -11.598  10.367  69.765  1.00  0.00    -0.339 A  
HETATM   10  C   UNL     1      -9.426   9.331  69.554  1.00  0.00    -0.178 A  
BRANCH   6  11
HETATM   11  N   UNL     1     -10.638   9.132  71.648  1.00  0.00    -0.362 N  
HETATM   12  H   UNL     1     -10.039   9.514  72.379  1.00  0.00     0.000 HD 
BRANCH  11  13
HETATM   13  S   UNL     1     -11.756   7.910  71.982  1.00  0.00    -0.332 S  
HETATM   14  O   UNL     1     -11.285   7.281  73.200  1.00  0.00    -0.302 OA 
HETATM   15  O   UNL     1     -12.021   7.131  70.794  1.00  0.00    -0.332 OA 
HETATM   16  C   UNL     1     -13.203   8.859  72.396  1.00  0.00    -0.430 C  
ENDBRANCH  11  13
ENDBRANCH   6  11
ENDBRANCH   4   5
ENDBRANCH   3   4
ENDBRANCH   2   3
BRANCH   2  17
HETATM   17  C   UNL     1     -11.089  14.121  64.592  1.00  0.00    -0.371 C  
BRANCH  17  18
HETATM   18  C   UNL     1     -10.404  14.634  65.868  1.00  0.00    -0.319 C  
BRANCH  18  19
HETATM   19  O   UNL     1     -11.270  15.563  66.532  1.00  0.00    -0.243 OA 
BRANCH  19  20
HETATM   20  C   UNL     1     -11.307  15.474  67.899  1.00  0.00    -0.308 A  
HETATM   21  C   UNL     1     -10.809  16.430  68.787  1.00  0.00    -0.338 A  
HETATM   22  C   UNL     1     -11.900  14.315  68.407  1.00  0.00    -0.373 A  
HETATM   23  C   UNL     1     -11.439  15.043  70.662  1.00  0.00    -0.293 A  
HETATM   24  C   UNL     1     -11.972  14.098  69.788  1.00  0.00    -0.396 A  
HETATM   25  C   UNL     1     -10.876  16.215  70.165  1.00  0.00    -0.328 A  
BRANCH  23  26
HETATM   26  N   UNL     1     -11.485  14.845  72.072  1.00  0.00    -0.467 N  
HETATM   27  H   UNL     1     -10.643  14.615  72.600  1.00  0.00     0.000 HD 
BRANCH  26  28
HETATM   28  S   UNL     1     -12.981  15.004  72.838  1.00  0.00    -0.504 S  
HETATM   29  O   UNL     1     -13.812  15.941  72.121  1.00  0.00    -0.392 OA 
HETATM   30  C   UNL     1     -12.512  15.710  74.405  1.00  0.00    -0.634 C  
HETATM   31  O   UNL     1     -13.426  13.647  73.090  1.00  0.00    -0.488 OA 
ENDBRANCH  26  28
ENDBRANCH  23  26
ENDBRANCH  19  20
ENDBRANCH  18  19
ENDBRANCH  17  18
ENDBRANCH   2  17
TORSDOF 11
ENDMDL
MODEL        6
REMARK 921   NORMALIZED FREE ENERGY PREDICTED BY IDOCK:   -6.08 KCAL/MOL
REMARK 922        TOTAL FREE ENERGY PREDICTED BY IDOCK:  -11.56 KCAL/MOL
REMARK 923 INTER-LIGAND FREE ENERGY PREDICTED BY IDOCK:   -9.76 KCAL/MOL
REMARK 924 INTRA-LIGAND FREE ENERGY PREDICTED BY IDOCK:   -1.80 KCAL/MOL
REMARK 927      BINDING AFFINITY PREDICTED BY RF-SCORE:    0.00 PKD
ROOT
HETATM    1  C   UNL     1     -12.416  15.993  73.196  1.00  0.00    -0.526 C  
HETATM    2  N   UNL     1     -12.600  15.818  71.751  1.00  0.00    -0.444 NA 
ENDROOT
BRANCH   2   3
HETATM    3  C   UNL     1     -13.622  14.791  71.455  1.00  0.00    -0.416 C  
BRANCH   3   4
HETATM    4  C   UNL     1     -13.551  13.498  72.300  1.00  0.00    -0.690 C  
BRANCH   4   5
HETATM    5  C   UNL     1     -12.961  12.315  71.567  1.00  0.00    -0.390 A  
HETATM    6  C   UNL     1     -11.791  10.134  70.252  1.00  0.00    -0.261 A  
HETATM    7  C   UNL     1     -12.207  12.506  70.399  1.00  0.00    -0.368 A  
HETATM    8  C   UNL     1     -13.151  11.011  72.043  1.00  0.00    -0.449 A  
HETATM    9  C   UNL     1     -11.625  11.419  69.743  1.00  0.00    -0.407 A  
HETATM   10  C   UNL     1     -12.569   9.924  71.388  1.00  0.00    -0.497 A  
BRANCH   6  11
HETATM   11  N   UNL     1     -11.197   9.013  69.605  1.00  0.00    -0.434 N  
HETATM   12  H   UNL     1     -11.648   8.563  68.808  1.00  0.00     0.000 HD 
BRANCH  11  13
HETATM   13  S   UNL     1      -9.719   8.457  70.204  1.00  0.00    -0.174 S  
HETATM   14  O   UNL     1     -10.058   7.466  71.205  1.00  0.00    -0.189 OA 
HETATM   15  O   UNL     1      -8.852   9.570  70.520  1.00  0.00    -0.233 OA 
HETATM   16  C   UNL     1      -9.069   7.589  68.792  1.00  0.00    -0.135 C  
ENDBRANCH  11  13
ENDBRANCH   6  11
ENDBRANCH   4   5
ENDBRANCH   3   4
ENDBRANCH   2   3
BRANCH   2  17
HETATM   17  C   UNL     1     -11.292  15.496  71.134  1.00  0.00    -0.390 C  
BRANCH  17  18
HETATM   18  C   UNL     1     -10.958  16.315  69.877  1.00  0.00    -0.365 C  
BRANCH  18  19
HETATM   19  O   UNL     1     -11.863  15.960  68.825  1.00  0.00    -0.393 OA 
BRANCH  19  20
HETATM   20  C   UNL     1     -11.412  15.011  67.943  1.00  0.00    -0.340 A  
HETATM   21  C   UNL     1     -12.222  14.184  67.161  1.00  0.00    -0.348 A  
HETATM   22  C   UNL     1     -10.023  14.894  67.849  1.00  0.00    -0.219 A  
HETATM   23  C   UNL     1     -10.263  13.097  66.255  1.00  0.00    -0.293 A  
HETATM   24  C   UNL     1      -9.445  13.941  67.002  1.00  0.00    -0.256 A  
HETATM   25  C   UNL     1     -11.647  13.230  66.318  1.00  0.00    -0.384 A  
BRANCH  23  26
HETATM   26  N   UNL     1      -9.705  12.109  65.394  1.00  0.00    -0.375 N  
HETATM   27  H   UNL     1      -9.554  12.296  64.403  1.00  0.00     0.000 HD 
BRANCH  26  28
HETATM   28  S   UNL     1      -9.301  10.616  66.073  1.00  0.00    -0.196 S  
HETATM   29  O   UNL     1      -8.066  10.722  66.813  1.00  0.00    -0.126 OA 
HETATM   30  C   UNL     1      -9.034   9.619  64.620  1.00  0.00    -0.231 C  
HETATM   31  O   UNL     1     -10.517  10.143  66.706  1.00  0.00    -0.232 OA 
ENDBRANCH  26  28
ENDBRANCH  23  26
ENDBRANCH  19  20
ENDBRANCH  18  19
ENDBRANCH  17  18
ENDBRANCH   2  17
TORSDOF 11
ENDMDL
MODEL        7
REMARK 921   NORMALIZED FREE ENERGY PREDICTED BY IDOCK:   -6.06 KCAL/MOL
REMARK 922        TOTAL FREE ENERGY PREDICTED BY IDOCK:  -11.52 KCAL/MOL
REMARK 923 INTER-LIGAND FREE ENERGY PREDICTED BY IDOCK:   -9.92 KCAL/MOL
REMARK 924 INTRA-LIGAND FREE ENERGY PREDICTED BY IDOCK:   -1.60 KCAL/MOL
REMARK 927      BINDING AFFINITY PREDICTED BY RF-SCORE:    0.00 PKD
ROOT
HETATM    1  C   UNL     1     -12.287  15.920  73.306  1.00  0.00    -0.523 C  
HETATM    2  N   UNL     1     -12.340  15.092  72.097  1.00  0.00    -0.336 NA 
ENDROOT
BRANCH   2   3
HETATM    3  C   UNL     1     -12.021  15.879  70.886  1.00  0.00    -0.394 C  
BRANCH   3   4
HETATM    4  C   UNL     1     -10.674  15.555  70.201  1.00  0.00    -0.345 C  
BRANCH   4   5
HETATM    5  C   UNL     1     -10.792  14.613  69.024  1.00  0.00    -0.252 A  
HETATM    6  C   UNL     1     -11.019  12.798  66.901  1.00  0.00    -0.260 A  
HETATM    7  C   UNL     1      -9.659  13.955  68.524  1.00  0.00    -0.185 A  
HETATM    8  C   UNL     1     -12.034  14.376  68.420  1.00  0.00    -0.328 A  
HETATM    9  C   UNL     1      -9.770  13.051  67.465  1.00  0.00    -0.206 A  
HETATM   10  C   UNL     1     -12.146  13.472  67.361  1.00  0.00    -0.360 A  
BRANCH   6  11
HETATM   11  N   UNL     1     -11.157  11.872  65.828  1.00  0.00    -0.316 N  
HETATM   12  H   UNL     1     -11.173  10.866  65.997  1.00  0.00     0.000 HD 
BRANCH  11  13
HETATM   13  S   UNL     1     -11.293  12.500  64.265  1.00  0.00    -0.392 S  
HETATM   14  O   UNL     1     -10.640  13.793  64.312  1.00  0.00    -0.367 OA 
HETATM   15  O   UNL     1     -12.649  12.366  63.784  1.00  0.00    -0.633 OA 
HETATM   16  C   UNL     1     -10.234  11.400  63.350  1.00  0.00    -0.411 C  
ENDBRANCH  11  13
ENDBRANCH   6  11
ENDBRANCH   4   5
ENDBRANCH   3   4
ENDBRANCH   2   3
BRANCH   2  17
HETATM   17  C   UNL     1     -13.673  14.452  72.010  1.00  0.00    -0.442 C  
BRANCH  17  18
HETATM   18  C   UNL     1     -13.661  12.923  72.166  1.00  0.00    -0.495 C  
BRANCH  18  19
HETATM   19  O   UNL     1     -13.265  12.322  70.927  1.00  0.00     0.046 OA 
BRANCH  19  20
HETATM   20  C   UNL     1     -12.558  11.152  71.028  1.00  0.00    -0.403 A  
HETATM   21  C   UNL     1     -12.808  10.132  71.951  1.00  0.00    -0.526 A  
HETATM   22  C   UNL     1     -11.509  11.005  70.117  1.00  0.00    -0.383 A  
HETATM   23  C   UNL     1     -10.936   8.871  71.089  1.00  0.00    -0.286 A  
HETATM   24  C   UNL     1     -10.699   9.864  70.141  1.00  0.00    -0.361 A  
HETATM   25  C   UNL     1     -11.999   8.995  71.979  1.00  0.00    -0.433 A  
BRANCH  23  26
HETATM   26  N   UNL     1     -10.120   7.705  71.148  1.00  0.00    -0.185 N  
HETATM   27  H   UNL     1      -9.120   7.770  71.340  1.00  0.00     0.000 HD 
BRANCH  26  28
HETATM   28  S   UNL     1     -10.865   6.212  70.889  1.00  0.00    -0.295 S  
HETATM   29  O   UNL     1     -11.330   5.663  72.141  1.00  0.00    -0.267 OA 
HETATM   30  C   UNL     1      -9.507   5.231  70.282  1.00  0.00    -0.168 C  
HETATM   31  O   UNL     1     -11.775   6.427  69.781  1.00  0.00    -0.414 OA 
ENDBRANCH  26  28
ENDBRANCH  23  26
ENDBRANCH  19  20
ENDBRANCH  18  19
ENDBRANCH  17  18
ENDBRANCH   2  17
TORSDOF 11
ENDMDL
MODEL        8
REMARK 921   NORMALIZED FREE ENERGY PREDICTED BY IDOCK:   -6.05 KCAL/MOL
REMARK 922        TOTAL FREE ENERGY PREDICTED BY IDOCK:  -11.50 KCAL/MOL
REMARK 923 INTER-LIGAND FREE ENERGY PREDICTED BY IDOCK:  -10.58 KCAL/MOL
REMARK 924 INTRA-LIGAND FREE ENERGY PREDICTED BY IDOCK:   -0.92 KCAL/MOL
REMARK 927      BINDING AFFINITY PREDICTED BY RF-SCORE:    0.00 PKD
ROOT
HETATM    1  C   UNL     1     -12.265  16.105  73.108  1.00  0.00    -0.542 C  
HETATM    2  N   UNL     1     -12.413  15.074  72.076  1.00  0.00    -0.320 NA 
ENDROOT
BRANCH   2   3
HETATM    3  C   UNL     1     -12.219  15.631  70.720  1.00  0.00    -0.418 C  
BRANCH   3   4
HETATM    4  C   UNL     1     -10.763  15.668  70.202  1.00  0.00    -0.355 C  
BRANCH   4   5
HETATM    5  C   UNL     1     -10.603  15.185  68.778  1.00  0.00    -0.236 A  
HETATM    6  C   UNL     1     -10.376  14.237  66.151  1.00  0.00    -0.299 A  
HETATM    7  C   UNL     1      -9.862  14.027  68.500  1.00  0.00    -0.225 A  
HETATM    8  C   UNL     1     -11.196  15.881  67.716  1.00  0.00    -0.258 A  
HETATM    9  C   UNL     1      -9.748  13.554  67.190  1.00  0.00    -0.244 A  
HETATM   10  C   UNL     1     -11.082  15.409  66.407  1.00  0.00    -0.230 A  
BRANCH   6  11
HETATM   11  N   UNL     1     -10.281  13.766  64.810  1.00  0.00    -0.588 N  
HETATM   12  H   UNL     1      -9.459  13.961  64.238  1.00  0.00     0.000 HD 
BRANCH  11  13
HETATM   13  S   UNL     1     -11.579  12.872  64.201  1.00  0.00    -0.431 S  
HETATM   14  O   UNL     1     -12.340  13.802  63.391  1.00  0.00    -0.750 OA 
HETATM   15  O   UNL     1     -12.210  12.116  65.259  1.00  0.00    -0.484 OA 
HETATM   16  C   UNL     1     -10.749  11.754  63.093  1.00  0.00    -0.251 C  
ENDBRANCH  11  13
ENDBRANCH   6  11
ENDBRANCH   4   5
ENDBRANCH   3   4
ENDBRANCH   2   3
BRANCH   2  17
HETATM   17  C   UNL     1     -13.736  14.426  72.228  1.00  0.00    -0.471 C  
BRANCH  17  18
HETATM   18  C   UNL     1     -13.695  12.891  72.293  1.00  0.00    -0.458 C  
BRANCH  18  19
HETATM   19  O   UNL     1     -12.789  12.398  71.299  1.00  0.00    -0.353 OA 
BRANCH  19  20
HETATM   20  C   UNL     1     -12.583  11.042  71.298  1.00  0.00    -0.412 A  
HETATM   21  C   UNL     1     -13.382  10.101  71.952  1.00  0.00    -0.505 A  
HETATM   22  C   UNL     1     -11.473  10.606  70.571  1.00  0.00    -0.407 A  
HETATM   23  C   UNL     1     -11.929   8.322  71.205  1.00  0.00    -0.265 A  
HETATM   24  C   UNL     1     -11.145   9.247  70.518  1.00  0.00    -0.317 A  
HETATM   25  C   UNL     1     -13.056   8.744  71.904  1.00  0.00    -0.420 A  
BRANCH  23  26
HETATM   26  N   UNL     1     -11.613   6.933  71.182  1.00  0.00    -0.300 N  
HETATM   27  H   UNL     1     -11.777   6.369  70.348  1.00  0.00     0.000 HD 
BRANCH  26  28
HETATM   28  S   UNL     1     -10.957   6.254  72.582  1.00  0.00    -0.262 S  
HETATM   29  O   UNL     1     -10.542   7.294  73.493  1.00  0.00    -0.368 OA 
HETATM   30  C   UNL     1      -9.517   5.423  71.940  1.00  0.00    -0.149 C  
HETATM   31  O   UNL     1     -11.902   5.233  72.989  1.00  0.00    -0.265 OA 
ENDBRANCH  26  28
ENDBRANCH  23  26
ENDBRANCH  19  20
ENDBRANCH  18  19
ENDBRANCH  17  18
ENDBRANCH   2  17
TORSDOF 11
ENDMDL
MODEL        9
REMARK 921   NORMALIZED FREE ENERGY PREDICTED BY IDOCK:   -6.04 KCAL/MOL
REMARK 922        TOTAL FREE ENERGY PREDICTED BY IDOCK:  -11.48 KCAL/MOL
REMARK 923 INTER-LIGAND FREE ENERGY PREDICTED BY IDOCK:  -10.13 KCAL/MOL
REMARK 924 INTRA-LIGAND FREE ENERGY PREDICTED BY IDOCK:   -1.35 KCAL/MOL
REMARK 927      BINDING AFFINITY PREDICTED BY RF-SCORE:    0.00 PKD
ROOT
HETATM    1  C   UNL     1     -11.994  15.887  73.248  1.00  0.00    -0.447 C  
HETATM    2  N   UNL     1     -12.180  15.067  72.046  1.00  0.00    -0.342 NA 
ENDROOT
BRANCH   2   3
HETATM    3  C   UNL     1     -11.869  15.827  70.817  1.00  0.00    -0.404 C  
BRANCH   3   4
HETATM    4  C   UNL     1     -10.588  15.403  70.062  1.00  0.00    -0.319 C  
BRANCH   4   5
HETATM    5  C   UNL     1     -10.835  14.449  68.915  1.00  0.00    -0.266 A  
HETATM    6  C   UNL     1     -11.267  12.744  66.734  1.00  0.00    -0.295 A  
HETATM    7  C   UNL     1     -12.053  14.477  68.218  1.00  0.00    -0.234 A  
HETATM    8  C   UNL     1      -9.853  13.528  68.526  1.00  0.00    -0.189 A  
HETATM    9  C   UNL     1     -12.269  13.626  67.131  1.00  0.00    -0.340 A  
HETATM   10  C   UNL     1     -10.069  12.678  67.440  1.00  0.00    -0.218 A  
BRANCH   6  11
HETATM   11  N   UNL     1     -11.463  11.876  65.622  1.00  0.00    -0.298 N  
HETATM   12  H   UNL     1     -11.728  10.900  65.753  1.00  0.00     0.000 HD 
BRANCH  11  13
HETATM   13  S   UNL     1     -11.239  12.522  64.077  1.00  0.00    -0.441 S  
HETATM   14  O   UNL     1     -10.385  13.678  64.263  1.00  0.00    -0.376 OA 
HETATM   15  O   UNL     1     -12.506  12.634  63.389  1.00  0.00    -0.663 OA 
HETATM   16  C   UNL     1     -10.260  11.254  63.302  1.00  0.00    -0.368 C  
ENDBRANCH  11  13
ENDBRANCH   6  11
ENDBRANCH   4   5
ENDBRANCH   3   4
ENDBRANCH   2   3
BRANCH   2  17
HETATM   17  C   UNL     1     -13.562  14.532  72.037  1.00  0.00    -0.416 C  
BRANCH  17  18
HETATM   18  C   UNL     1     -13.656  13.001  71.957  1.00  0.00    -0.441 C  
BRANCH  18  19
HETATM   19  O   UNL     1     -12.631  12.506  71.086  1.00  0.00    -0.365 OA 
BRANCH  19  20
HETATM   20  C   UNL     1     -12.389  11.158  71.152  1.00  0.00    -0.346 A  
HETATM   21  C   UNL     1     -11.379  10.482  70.464  1.00  0.00    -0.400 A  
HETATM   22  C   UNL     1     -13.246  10.437  71.987  1.00  0.00    -0.497 A  
HETATM   23  C   UNL     1     -12.127   8.382  71.395  1.00  0.00    -0.301 A  
HETATM   24  C   UNL     1     -13.115   9.050  72.115  1.00  0.00    -0.496 A  
HETATM   25  C   UNL     1     -11.248   9.097  70.587  1.00  0.00    -0.322 A  
BRANCH  23  26
HETATM   26  N   UNL     1     -11.977   6.969  71.493  1.00  0.00    -0.313 N  
HETATM   27  H   UNL     1     -12.613   6.336  71.008  1.00  0.00     0.000 HD 
BRANCH  26  28
HETATM   28  S   UNL     1     -10.710   6.378  72.441  1.00  0.00    -0.237 S  
HETATM   29  O   UNL     1      -9.569   6.070  71.611  1.00  0.00    -0.152 OA 
HETATM   30  C   UNL     1     -11.406   4.864  73.072  1.00  0.00    -0.273 C  
HETATM   31  O   UNL     1     -10.601   7.303  73.552  1.00  0.00    -0.368 OA 
ENDBRANCH  26  28
ENDBRANCH  23  26
ENDBRANCH  19  20
ENDBRANCH  18  19
ENDBRANCH  17  18
ENDBRANCH   2  17
TORSDOF 11
ENDMDL
MODEL       10
REMARK 921   NORMALIZED FREE ENERGY PREDICTED BY IDOCK:   -6.00 KCAL/MOL
REMARK 922        TOTAL FREE ENERGY PREDICTED BY IDOCK:  -11.42 KCAL/MOL
REMARK 923 INTER-LIGAND FREE ENERGY PREDICTED BY IDOCK:   -9.32 KCAL/MOL
REMARK 924 INTRA-LIGAND FREE ENERGY PREDICTED BY IDOCK:   -2.10 KCAL/MOL
REMARK 927      BINDING AFFINITY PREDICTED BY RF-SCORE:    0.00 PKD
ROOT
HETATM    1  C   UNL     1      -9.398   8.506  71.930  1.00  0.00    -0.267 C  
HETATM    2  N   UNL     1     -10.621   8.036  71.270  1.00  0.00    -0.207 NA 
ENDROOT
BRANCH   2   3
HETATM    3  C   UNL     1     -10.768   8.619  69.920  1.00  0.00    -0.225 C  
BRANCH   3   4
HETATM    4  C   UNL     1      -9.474   9.160  69.269  1.00  0.00    -0.158 C  
BRANCH   4   5
HETATM    5  C   UNL     1      -9.707  10.246  68.243  1.00  0.00    -0.154 A  
HETATM    6  C   UNL     1     -10.075  12.225  66.293  1.00  0.00    -0.234 A  
HETATM    7  C   UNL     1      -8.940  11.421  68.266  1.00  0.00    -0.175 A  
HETATM    8  C   UNL     1     -10.686  10.095  67.252  1.00  0.00    -0.316 A  
HETATM    9  C   UNL     1      -9.124  12.408  67.294  1.00  0.00    -0.187 A  
HETATM   10  C   UNL     1     -10.869  11.082  66.280  1.00  0.00    -0.234 A  
BRANCH   6  11
HETATM   11  N   UNL     1     -10.270  13.213  65.287  1.00  0.00    -0.368 N  
HETATM   12  H   UNL     1      -9.555  13.399  64.582  1.00  0.00     0.000 HD 
BRANCH  11  13
HETATM   13  S   UNL     1     -11.727  14.067  65.302  1.00  0.00    -0.364 S  
HETATM   14  O   UNL     1     -12.041  14.269  66.702  1.00  0.00    -0.426 OA 
HETATM   15  O   UNL     1     -12.680  13.454  64.405  1.00  0.00    -0.643 OA 
HETATM   16  C   UNL     1     -11.222  15.639  64.636  1.00  0.00    -0.369 C  
ENDBRANCH  11  13
ENDBRANCH   6  11
ENDBRANCH   4   5
ENDBRANCH   3   4
ENDBRANCH   2   3
BRANCH   2  17
HETATM   17  C   UNL     1     -11.783   8.338  72.138  1.00  0.00    -0.365 C  
BRANCH  17  18
HETATM   18  C   UNL     1     -12.875   9.190  71.472  1.00  0.00    -0.347 C  
BRANCH  18  19
HETATM   19  O   UNL     1     -13.143  10.339  72.285  1.00  0.00    -0.396 OA 
BRANCH  19  20
HETATM   20  C   UNL     1     -12.966  11.556  71.677  1.00  0.00    -0.394 A  
HETATM   21  C   UNL     1     -13.432  12.780  72.164  1.00  0.00    -0.591 A  
HETATM   22  C   UNL     1     -12.256  11.526  70.474  1.00  0.00    -0.469 A  
HETATM   23  C   UNL     1     -12.538  13.910  70.225  1.00  0.00    -0.264 A  
HETATM   24  C   UNL     1     -12.036  12.702  69.748  1.00  0.00    -0.365 A  
HETATM   25  C   UNL     1     -13.217  13.954  71.439  1.00  0.00    -0.392 A  
BRANCH  23  26
HETATM   26  N   UNL     1     -12.342  15.122  69.502  1.00  0.00    -0.566 N  
HETATM   27  H   UNL     1     -13.018  15.436  68.807  1.00  0.00     0.000 HD 
BRANCH  26  28
HETATM   28  S   UNL     1     -10.951  16.019  69.837  1.00  0.00    -0.374 S  
HETATM   29  O   UNL     1     -11.123  16.769  71.059  1.00  0.00    -0.015 OA 
HETATM   30  C   UNL     1     -10.905  17.144  68.456  1.00  0.00    -0.281 C  
HETATM   31  O   UNL     1      -9.849  15.090  69.677  1.00  0.00    -0.178 OA 
ENDBRANCH  26  28
ENDBRANCH  23  26
ENDBRANCH  19  20
ENDBRANCH  18  19
ENDBRANCH  17  18
ENDBRANCH   2  17
TORSDOF 11
ENDMDL
MODEL       11
REMARK 921   NORMALIZED FREE ENERGY PREDICTED BY IDOCK:   -5.94 KCAL/MOL
REMARK 922        TOTAL FREE ENERGY PREDICTED BY IDOCK:  -11.33 KCAL/MOL
REMARK 923 INTER-LIGAND FREE ENERGY PREDICTED BY IDOCK:   -9.67 KCAL/MOL
REMARK 924 INTRA-LIGAND FREE ENERGY PREDICTED BY IDOCK:   -1.66 KCAL/MOL
REMARK 927      BINDING AFFINITY PREDICTED BY RF-SCORE:    0.00 PKD
ROOT
HETATM    1  C   UNL     1      -8.097   8.698  67.284  1.00  0.00    -0.101 C  
HETATM    2  N   UNL     1      -9.272   9.501  66.933  1.00  0.00    -0.140 NA 
ENDROOT
BRANCH   2   3
HETATM    3  C   UNL     1     -10.442   9.143  67.764  1.00  0.00    -0.247 C  
BRANCH   3   4
HETATM    4  C   UNL     1     -10.281   9.348  69.288  1.00  0.00    -0.209 C  
BRANCH   4   5
HETATM    5  C   UNL     1     -11.145  10.452  69.855  1.00  0.00    -0.367 A  
HETATM    6  C   UNL     1     -12.681  12.519  70.962  1.00  0.00    -0.225 A  
HETATM    7  C   UNL     1     -11.912  10.231  71.009  1.00  0.00    -0.483 A  
HETATM    8  C   UNL     1     -11.189  11.712  69.244  1.00  0.00    -0.328 A  
HETATM    9  C   UNL     1     -12.679  11.260  71.561  1.00  0.00    -0.481 A  
HETATM   10  C   UNL     1     -11.955  12.741  69.796  1.00  0.00    -0.362 A  
BRANCH   6  11
HETATM   11  N   UNL     1     -13.446  13.585  71.515  1.00  0.00    -0.288 N  
HETATM   12  H   UNL     1     -14.397  13.433  71.851  1.00  0.00     0.000 HD 
BRANCH  11  13
HETATM   13  S   UNL     1     -12.722  15.109  71.594  1.00  0.00    -0.393 S  
HETATM   14  O   UNL     1     -13.187  15.817  70.419  1.00  0.00    -0.365 OA 
HETATM   15  O   UNL     1     -11.310  14.982  71.878  1.00  0.00    -0.375 OA 
HETATM   16  C   UNL     1     -13.543  15.817  73.005  1.00  0.00    -0.555 C  
ENDBRANCH  11  13
ENDBRANCH   6  11
ENDBRANCH   4   5
ENDBRANCH   3   4
ENDBRANCH   2   3
BRANCH   2  17
HETATM   17  C   UNL     1      -9.548   9.345  65.486  1.00  0.00    -0.258 C  
BRANCH  17  18
HETATM   18  C   UNL     1      -9.723  10.666  64.720  1.00  0.00    -0.292 C  
BRANCH  18  19
HETATM   19  O   UNL     1     -11.034  11.187  64.966  1.00  0.00    -0.218 OA 
BRANCH  19  20
HETATM   20  C   UNL     1     -11.086  12.412  65.579  1.00  0.00    -0.300 A  
HETATM   21  C   UNL     1     -12.252  13.126  65.866  1.00  0.00    -0.497 A  
HETATM   22  C   UNL     1      -9.849  12.958  65.930  1.00  0.00    -0.239 A  
HETATM   23  C   UNL     1     -10.940  14.934  66.785  1.00  0.00    -0.326 A  
HETATM   24  C   UNL     1      -9.772  14.216  66.537  1.00  0.00    -0.307 A  
HETATM   25  C   UNL     1     -12.179  14.383  66.469  1.00  0.00    -0.358 A  
BRANCH  23  26
HETATM   26  N   UNL     1     -10.894  16.223  67.390  1.00  0.00    -0.286 N  
HETATM   27  H   UNL     1     -11.292  16.387  68.314  1.00  0.00     0.000 HD 
BRANCH  26  28
HETATM   28  S   UNL     1     -10.158  17.471  66.522  1.00  0.00    -0.340 S  
HETATM   29  O   UNL     1      -8.723  17.404  66.674  1.00  0.00    -0.237 OA 
HETATM   30  C   UNL     1     -10.774  18.912  67.368  1.00  0.00    -0.444 C  
HETATM   31  O   UNL     1     -10.775  17.439  65.211  1.00  0.00    -0.646 OA 
ENDBRANCH  26  28
ENDBRANCH  23  26
ENDBRANCH  19  20
ENDBRANCH  18  19
ENDBRANCH  17  18
ENDBRANCH   2  17
TORSDOF 11
ENDMDL
MODEL       12
REMARK 921   NORMALIZED FREE ENERGY PREDICTED BY IDOCK:   -5.93 KCAL/MOL
REMARK 922        TOTAL FREE ENERGY PREDICTED BY IDOCK:  -11.31 KCAL/MOL
REMARK 923 INTER-LIGAND FREE ENERGY PREDICTED BY IDOCK:  -10.79 KCAL/MOL
REMARK 924 INTRA-LIGAND FREE ENERGY PREDICTED BY IDOCK:   -0.52 KCAL/MOL
REMARK 927      BINDING AFFINITY PREDICTED BY RF-SCORE:    0.00 PKD
ROOT
HETATM    1  C   UNL     1     -14.127  15.648  72.574  1.00  0.00    -0.479 C  
HETATM    2  N   UNL     1     -13.193  14.531  72.745  1.00  0.00    -0.479 NA 
ENDROOT
BRANCH   2   3
HETATM    3  C   UNL     1     -11.979  14.708  71.919  1.00  0.00    -0.255 C  
BRANCH   3   4
HETATM    4  C   UNL     1     -12.041  15.823  70.851  1.00  0.00    -0.459 C  
BRANCH   4   5
HETATM    5  C   UNL     1     -11.747  15.347  69.446  1.00  0.00    -0.369 A  
HETATM    6  C   UNL     1     -11.116  14.459  66.864  1.00  0.00    -0.323 A  
HETATM    7  C   UNL     1     -11.324  16.255  68.463  1.00  0.00    -0.330 A  
HETATM    8  C   UNL     1     -11.885  13.995  69.105  1.00  0.00    -0.391 A  
HETATM    9  C   UNL     1     -11.011  15.813  67.175  1.00  0.00    -0.244 A  
HETATM   10  C   UNL     1     -11.571  13.553  67.818  1.00  0.00    -0.374 A  
BRANCH   6  11
HETATM   11  N   UNL     1     -10.791  13.986  65.561  1.00  0.00    -0.299 N  
HETATM   12  H   UNL     1      -9.821  13.917  65.250  1.00  0.00     0.000 HD 
BRANCH  11  13
HETATM   13  S   UNL     1     -12.068  13.543  64.548  1.00  0.00    -0.418 S  
HETATM   14  O   UNL     1     -12.426  14.749  63.830  1.00  0.00    -0.811 OA 
HETATM   15  O   UNL     1     -13.059  12.792  65.285  1.00  0.00    -0.658 OA 
HETATM   16  C   UNL     1     -11.247  12.461  63.397  1.00  0.00    -0.422 C  
ENDBRANCH  11  13
ENDBRANCH   6  11
ENDBRANCH   4   5
ENDBRANCH   3   4
ENDBRANCH   2   3
BRANCH   2  17
HETATM   17  C   UNL     1     -13.897  13.264  72.437  1.00  0.00    -0.529 C  
BRANCH  17  18
HETATM   18  C   UNL     1     -13.078  12.261  71.609  1.00  0.00    -0.306 C  
BRANCH  18  19
HETATM   19  O   UNL     1     -13.430  10.927  71.995  1.00  0.00    -0.373 OA 
BRANCH  19  20
HETATM   20  C   UNL     1     -12.515   9.953  71.686  1.00  0.00    -0.415 A  
HETATM   21  C   UNL     1     -11.427  10.110  70.822  1.00  0.00    -0.442 A  
HETATM   22  C   UNL     1     -12.721   8.719  72.306  1.00  0.00    -0.466 A  
HETATM   23  C   UNL     1     -10.809   7.798  71.156  1.00  0.00    -0.235 A  
HETATM   24  C   UNL     1     -11.868   7.640  72.047  1.00  0.00    -0.342 A  
HETATM   25  C   UNL     1     -10.577   9.034  70.560  1.00  0.00    -0.274 A  
BRANCH  23  26
HETATM   26  N   UNL     1      -9.932   6.716  70.861  1.00  0.00    -0.187 N  
HETATM   27  H   UNL     1      -9.100   6.542  71.425  1.00  0.00     0.000 HD 
BRANCH  26  28
HETATM   28  S   UNL     1     -10.316   5.729  69.546  1.00  0.00    -0.292 S  
HETATM   29  O   UNL     1     -10.076   4.344  69.874  1.00  0.00    -0.222 OA 
HETATM   30  C   UNL     1      -9.126   6.263  68.333  1.00  0.00    -0.114 C  
HETATM   31  O   UNL     1     -11.621   6.178  69.101  1.00  0.00    -0.287 OA 
ENDBRANCH  26  28
ENDBRANCH  23  26
ENDBRANCH  19  20
ENDBRANCH  18  19
ENDBRANCH  17  18
ENDBRANCH   2  17
TORSDOF 11
ENDMDL
MODEL       13
REMARK 921   NORMALIZED FREE ENERGY PREDICTED BY IDOCK:   -5.92 KCAL/MOL
REMARK 922        TOTAL FREE ENERGY PREDICTED BY IDOCK:  -11.30 KCAL/MOL
REMARK 923 INTER-LIGAND FREE ENERGY PREDICTED BY IDOCK:  -10.47 KCAL/MOL
REMARK 924 INTRA-LIGAND FREE ENERGY PREDICTED BY IDOCK:   -0.83 KCAL/MOL
REMARK 927      BINDING AFFINITY PREDICTED BY RF-SCORE:    0.00 PKD
ROOT
HETATM    1  C   UNL     1     -14.222  15.286  71.462  1.00  0.00    -0.526 C  
HETATM    2  N   UNL     1     -13.017  14.634  70.940  1.00  0.00    -0.356 NA 
ENDROOT
BRANCH   2   3
HETATM    3  C   UNL     1     -12.908  13.237  71.412  1.00  0.00    -0.322 C  
BRANCH   3   4
HETATM    4  C   UNL     1     -12.213  12.247  70.449  1.00  0.00    -0.371 C  
BRANCH   4   5
HETATM    5  C   UNL     1     -12.230  10.811  70.923  1.00  0.00    -0.487 A  
HETATM    6  C   UNL     1     -12.210   8.173  71.868  1.00  0.00    -0.331 A  
HETATM    7  C   UNL     1     -11.218   9.922  70.533  1.00  0.00    -0.399 A  
HETATM    8  C   UNL     1     -13.252  10.348  71.763  1.00  0.00    -0.529 A  
HETATM    9  C   UNL     1     -11.208   8.606  71.003  1.00  0.00    -0.321 A  
HETATM   10  C   UNL     1     -13.242   9.033  72.233  1.00  0.00    -0.519 A  
BRANCH   6  11
HETATM   11  N   UNL     1     -12.212   6.839  72.367  1.00  0.00    -0.513 N  
HETATM   12  H   UNL     1     -13.066   6.281  72.381  1.00  0.00     0.000 HD 
BRANCH  11  13
HETATM   13  S   UNL     1     -10.749   6.215  72.937  1.00  0.00    -0.260 S  
HETATM   14  O   UNL     1     -10.373   7.067  74.047  1.00  0.00    -0.364 OA 
HETATM   15  O   UNL     1      -9.840   5.979  71.838  1.00  0.00    -0.161 OA 
HETATM   16  C   UNL     1     -11.270   4.654  73.614  1.00  0.00    -0.267 C  
ENDBRANCH  11  13
ENDBRANCH   6  11
ENDBRANCH   4   5
ENDBRANCH   3   4
ENDBRANCH   2   3
BRANCH   2  17
HETATM   17  C   UNL     1     -11.832  15.442  71.313  1.00  0.00    -0.380 C  
BRANCH  17  18
HETATM   18  C   UNL     1     -10.867  15.738  70.154  1.00  0.00    -0.351 C  
BRANCH  18  19
HETATM   19  O   UNL     1     -11.620  16.077  68.983  1.00  0.00    -0.367 OA 
BRANCH  19  20
HETATM   20  C   UNL     1     -11.232  15.460  67.822  1.00  0.00    -0.321 A  
HETATM   21  C   UNL     1     -10.150  15.842  67.024  1.00  0.00    -0.261 A  
HETATM   22  C   UNL     1     -12.007  14.362  67.440  1.00  0.00    -0.407 A  
HETATM   23  C   UNL     1     -10.666  14.081  65.453  1.00  0.00    -0.337 A  
HETATM   24  C   UNL     1     -11.724  13.667  66.259  1.00  0.00    -0.396 A  
HETATM   25  C   UNL     1      -9.868  15.152  65.844  1.00  0.00    -0.372 A  
BRANCH  23  26
HETATM   26  N   UNL     1     -10.361  13.402  64.238  1.00  0.00    -0.635 N  
HETATM   27  H   UNL     1     -10.275  13.910  63.358  1.00  0.00     0.000 HD 
BRANCH  26  28
HETATM   28  S   UNL     1     -10.149  11.728  64.306  1.00  0.00    -0.294 S  
HETATM   29  O   UNL     1      -9.379  11.370  65.474  1.00  0.00    -0.221 OA 
HETATM   30  C   UNL     1      -9.176  11.427  62.844  1.00  0.00    -0.281 C  
HETATM   31  O   UNL     1     -11.466  11.167  64.075  1.00  0.00    -0.118 OA 
ENDBRANCH  26  28
ENDBRANCH  23  26
ENDBRANCH  19  20
ENDBRANCH  18  19
ENDBRANCH  17  18
ENDBRANCH   2  17
TORSDOF 11
ENDMDL
MODEL       14
REMARK 921   NORMALIZED FREE ENERGY PREDICTED BY IDOCK:   -5.92 KCAL/MOL
REMARK 922        TOTAL FREE ENERGY PREDICTED BY IDOCK:  -11.30 KCAL/MOL
REMARK 923 INTER-LIGAND FREE ENERGY PREDICTED BY IDOCK:  -10.05 KCAL/MOL
REMARK 924 INTRA-LIGAND FREE ENERGY PREDICTED BY IDOCK:   -1.24 KCAL/MOL
REMARK 927      BINDING AFFINITY PREDICTED BY RF-SCORE:    0.00 PKD
ROOT
HETATM    1  C   UNL     1      -9.481  11.113  62.832  1.00  0.00    -0.359 C  
HETATM    2  N   UNL     1     -10.290  11.607  63.952  1.00  0.00    -0.329 NA 
ENDROOT
BRANCH   2   3
HETATM    3  C   UNL     1     -10.098  10.784  65.165  1.00  0.00    -0.299 C  
BRANCH   3   4
HETATM    4  C   UNL     1      -9.486  11.506  66.386  1.00  0.00    -0.230 C  
BRANCH   4   5
HETATM    5  C   UNL     1      -9.994  11.002  67.719  1.00  0.00    -0.194 A  
HETATM    6  C   UNL     1     -10.909  10.144  70.225  1.00  0.00    -0.310 A  
HETATM    7  C   UNL     1      -9.124  10.365  68.615  1.00  0.00    -0.157 A  
HETATM    8  C   UNL     1     -11.337  11.169  68.082  1.00  0.00    -0.377 A  
HETATM    9  C   UNL     1      -9.579   9.936  69.864  1.00  0.00    -0.265 A  
HETATM   10  C   UNL     1     -11.793  10.740  69.330  1.00  0.00    -0.370 A  
BRANCH   6  11
HETATM   11  N   UNL     1     -11.391   9.724  71.497  1.00  0.00    -0.345 N  
HETATM   12  H   UNL     1     -11.402  10.361  72.295  1.00  0.00     0.000 HD 
BRANCH  11  13
HETATM   13  S   UNL     1     -11.943   8.134  71.639  1.00  0.00    -0.316 S  
HETATM   14  O   UNL     1     -11.438   7.664  72.913  1.00  0.00    -0.354 OA 
HETATM   15  O   UNL     1     -11.689   7.402  70.419  1.00  0.00    -0.237 OA 
HETATM   16  C   UNL     1     -13.696   8.385  71.819  1.00  0.00    -0.393 C  
ENDBRANCH  11  13
ENDBRANCH   6  11
ENDBRANCH   4   5
ENDBRANCH   3   4
ENDBRANCH   2   3
BRANCH   2  17
HETATM   17  C   UNL     1     -11.710  11.660  63.533  1.00  0.00    -0.279 C  
BRANCH  17  18
HETATM   18  C   UNL     1     -12.313  13.073  63.486  1.00  0.00    -0.417 C  
BRANCH  18  19
HETATM   19  O   UNL     1     -12.876  13.392  64.764  1.00  0.00    -0.680 OA 
BRANCH  19  20
HETATM   20  C   UNL     1     -12.106  14.184  65.576  1.00  0.00    -0.414 A  
HETATM   21  C   UNL     1     -12.133  14.179  66.973  1.00  0.00    -0.449 A  
HETATM   22  C   UNL     1     -11.237  15.054  64.914  1.00  0.00    -0.423 A  
HETATM   23  C   UNL     1     -10.482  15.943  67.027  1.00  0.00    -0.306 A  
HETATM   24  C   UNL     1     -10.420  15.931  65.635  1.00  0.00    -0.411 A  
HETATM   25  C   UNL     1     -11.321  15.056  67.696  1.00  0.00    -0.342 A  
BRANCH  23  26
HETATM   26  N   UNL     1      -9.673  16.833  67.789  1.00  0.00    -0.244 N  
HETATM   27  H   UNL     1      -9.139  16.504  68.593  1.00  0.00     0.000 HD 
BRANCH  26  28
HETATM   28  S   UNL     1      -9.630  18.454  67.316  1.00  0.00    -0.296 S  
HETATM   29  O   UNL     1      -8.823  18.605  66.129  1.00  0.00    -0.452 OA 
HETATM   30  C   UNL     1      -8.797  19.212  68.697  1.00  0.00    -0.365 C  
HETATM   31  O   UNL     1     -11.010  18.897  67.346  1.00  0.00    -0.437 OA 
ENDBRANCH  26  28
ENDBRANCH  23  26
ENDBRANCH  19  20
ENDBRANCH  18  19
ENDBRANCH  17  18
ENDBRANCH   2  17
TORSDOF 11
ENDMDL
MODEL       15
REMARK 921   NORMALIZED FREE ENERGY PREDICTED BY IDOCK:   -5.88 KCAL/MOL
REMARK 922        TOTAL FREE ENERGY PREDICTED BY IDOCK:  -11.22 KCAL/MOL
REMARK 923 INTER-LIGAND FREE ENERGY PREDICTED BY IDOCK:  -10.11 KCAL/MOL
REMARK 924 INTRA-LIGAND FREE ENERGY PREDICTED BY IDOCK:   -1.10 KCAL/MOL
REMARK 927      BINDING AFFINITY PREDICTED BY RF-SCORE:    0.00 PKD
ROOT
HETATM    1  C   UNL     1      -9.932  11.584  63.141  1.00  0.00    -0.377 C  
HETATM    2  N   UNL     1     -10.341  11.054  64.446  1.00  0.00    -0.339 NA 
ENDROOT
BRANCH   2   3
HETATM    3  C   UNL     1     -10.453  12.127  65.457  1.00  0.00    -0.265 C  
BRANCH   3   4
HETATM    4  C   UNL     1     -11.875  12.414  65.988  1.00  0.00    -0.459 C  
BRANCH   4   5
HETATM    5  C   UNL     1     -11.910  12.929  67.410  1.00  0.00    -0.418 A  
HETATM    6  C   UNL     1     -11.886  13.875  70.047  1.00  0.00    -0.315 A  
HETATM    7  C   UNL     1     -11.942  12.033  68.488  1.00  0.00    -0.273 A  
HETATM    8  C   UNL     1     -11.905  14.305  67.672  1.00  0.00    -0.420 A  
HETATM    9  C   UNL     1     -11.931  12.504  69.804  1.00  0.00    -0.359 A  
HETATM   10  C   UNL     1     -11.893  14.776  68.987  1.00  0.00    -0.337 A  
BRANCH   6  11
HETATM   11  N   UNL     1     -11.863  14.375  71.380  1.00  0.00    -0.460 N  
HETATM   12  H   UNL     1     -10.983  14.508  71.880  1.00  0.00     0.000 HD 
BRANCH  11  13
HETATM   13  S   UNL     1     -13.345  14.741  72.104  1.00  0.00    -0.417 S  
HETATM   14  O   UNL     1     -13.843  13.480  72.618  1.00  0.00    -0.724 OA 
HETATM   15  O   UNL     1     -14.149  15.557  71.223  1.00  0.00    -0.548 OA 
HETATM   16  C   UNL     1     -12.826  15.717  73.499  1.00  0.00    -0.584 C  
ENDBRANCH  11  13
ENDBRANCH   6  11
ENDBRANCH   4   5
ENDBRANCH   3   4
ENDBRANCH   2   3
BRANCH   2  17
HETATM   17  C   UNL     1      -9.387   9.997  64.857  1.00  0.00    -0.266 C  
BRANCH  17  18
HETATM   18  C   UNL     1      -9.506   9.563  66.326  1.00  0.00    -0.210 C  
BRANCH  18  19
HETATM   19  O   UNL     1     -10.034   8.233  66.387  1.00  0.00    -0.252 OA 
BRANCH  19  20
HETATM   20  C   UNL     1     -10.421   7.799  67.629  1.00  0.00    -0.239 A  
HETATM   21  C   UNL     1     -10.809   6.495  67.947  1.00  0.00    -0.383 A  
HETATM   22  C   UNL     1     -10.412   8.771  68.632  1.00  0.00    -0.213 A  
HETATM   23  C   UNL     1     -11.232   7.159  70.230  1.00  0.00    -0.276 A  
HETATM   24  C   UNL     1     -10.812   8.454  69.935  1.00  0.00    -0.207 A  
HETATM   25  C   UNL     1     -11.212   6.176  69.245  1.00  0.00    -0.438 A  
BRANCH  23  26
HETATM   26  N   UNL     1     -11.658   6.809  71.543  1.00  0.00    -0.283 N  
HETATM   27  H   UNL     1     -12.641   6.865  71.812  1.00  0.00     0.000 HD 
BRANCH  26  28
HETATM   28  S   UNL     1     -10.481   6.297  72.641  1.00  0.00    -0.221 S  
HETATM   29  O   UNL     1      -9.227   6.076  71.959  1.00  0.00    -0.147 OA 
HETATM   30  C   UNL     1     -11.144   4.733  73.179  1.00  0.00    -0.310 C  
HETATM   31  O   UNL     1     -10.575   7.216  73.758  1.00  0.00    -0.377 OA 
ENDBRANCH  26  28
ENDBRANCH  23  26
ENDBRANCH  19  20
ENDBRANCH  18  19
ENDBRANCH  17  18
ENDBRANCH   2  17
TORSDOF 11
ENDMDL
MODEL       16
REMARK 921   NORMALIZED FREE ENERGY PREDICTED BY IDOCK:   -5.87 KCAL/MOL
REMARK 922        TOTAL FREE ENERGY PREDICTED BY IDOCK:  -11.20 KCAL/MOL
REMARK 923 INTER-LIGAND FREE ENERGY PREDICTED BY IDOCK:   -9.83 KCAL/MOL
REMARK 924 INTRA-LIGAND FREE ENERGY PREDICTED BY IDOCK:   -1.37 KCAL/MOL
REMARK 927      BINDING AFFINITY PREDICTED BY RF-SCORE:    0.00 PKD
ROOT
HETATM    1  C   UNL     1     -12.359  12.474  63.689  1.00  0.00    -0.522 C  
HETATM    2  N   UNL     1     -11.203  12.238  64.560  1.00  0.00    -0.312 NA 
ENDROOT
BRANCH   2   3
HETATM    3  C   UNL     1     -10.655  13.506  65.088  1.00  0.00    -0.355 C  
BRANCH   3   4
HETATM    4  C   UNL     1     -11.680  14.486  65.702  1.00  0.00    -0.335 C  
BRANCH   4   5
HETATM    5  C   UNL     1     -11.673  14.517  67.214  1.00  0.00    -0.429 A  
HETATM    6  C   UNL     1     -11.746  14.598  70.015  1.00  0.00    -0.294 A  
HETATM    7  C   UNL     1     -11.445  15.720  67.899  1.00  0.00    -0.221 A  
HETATM    8  C   UNL     1     -11.901  13.349  67.955  1.00  0.00    -0.392 A  
HETATM    9  C   UNL     1     -11.480  15.761  69.295  1.00  0.00    -0.368 A  
HETATM   10  C   UNL     1     -11.936  13.390  69.350  1.00  0.00    -0.369 A  
BRANCH   6  11
HETATM   11  N   UNL     1     -11.797  14.621  71.437  1.00  0.00    -0.412 N  
HETATM   12  H   UNL     1     -10.945  14.597  71.998  1.00  0.00     0.000 HD 
BRANCH  11  13
HETATM   13  S   UNL     1     -13.321  14.689  72.164  1.00  0.00    -0.417 S  
HETATM   14  O   UNL     1     -13.498  13.401  72.806  1.00  0.00    -0.607 OA 
HETATM   15  O   UNL     1     -14.301  15.200  71.233  1.00  0.00    -0.459 OA 
HETATM   16  C   UNL     1     -13.046  15.891  73.447  1.00  0.00    -0.587 C  
ENDBRANCH  11  13
ENDBRANCH   6  11
ENDBRANCH   4   5
ENDBRANCH   3   4
ENDBRANCH   2   3
BRANCH   2  17
HETATM   17  C   UNL     1     -10.187  11.460  63.812  1.00  0.00    -0.382 C  
BRANCH  17  18
HETATM   18  C   UNL     1      -9.187  10.698  64.695  1.00  0.00    -0.227 C  
BRANCH  18  19
HETATM   19  O   UNL     1      -9.765   9.451  65.101  1.00  0.00    -0.229 OA 
BRANCH  19  20
HETATM   20  C   UNL     1      -9.907   9.270  66.453  1.00  0.00    -0.277 A  
HETATM   21  C   UNL     1     -10.459  10.198  67.340  1.00  0.00    -0.310 A  
HETATM   22  C   UNL     1      -9.452   8.044  66.944  1.00  0.00    -0.244 A  
HETATM   23  C   UNL     1     -10.038   8.702  69.190  1.00  0.00    -0.199 A  
HETATM   24  C   UNL     1      -9.520   7.754  68.311  1.00  0.00    -0.150 A  
HETATM   25  C   UNL     1     -10.525   9.913  68.706  1.00  0.00    -0.234 A  
BRANCH  23  26
HETATM   26  N   UNL     1     -10.108   8.443  70.589  1.00  0.00    -0.190 N  
HETATM   27  H   UNL     1      -9.293   8.567  71.190  1.00  0.00     0.000 HD 
BRANCH  26  28
HETATM   28  S   UNL     1     -11.587   7.922  71.218  1.00  0.00    -0.280 S  
HETATM   29  O   UNL     1     -12.494   9.038  71.348  1.00  0.00    -0.306 OA 
HETATM   30  C   UNL     1     -11.111   7.357  72.839  1.00  0.00    -0.349 C  
HETATM   31  O   UNL     1     -11.943   6.754  70.438  1.00  0.00    -0.373 OA 
ENDBRANCH  26  28
ENDBRANCH  23  26
ENDBRANCH  19  20
ENDBRANCH  18  19
ENDBRANCH  17  18
ENDBRANCH   2  17
TORSDOF 11
ENDMDL
MODEL       17
REMARK 921   NORMALIZED FREE ENERGY PREDICTED BY IDOCK:   -5.85 KCAL/MOL
REMARK 922        TOTAL FREE ENERGY PREDICTED BY IDOCK:  -11.17 KCAL/MOL
REMARK 923 INTER-LIGAND FREE ENERGY PREDICTED BY IDOCK:   -9.06 KCAL/MOL
REMARK 924 INTRA-LIGAND FREE ENERGY PREDICTED BY IDOCK:   -2.11 KCAL/MOL
REMARK 927      BINDING AFFINITY PREDICTED BY RF-SCORE:    0.00 PKD
ROOT
HETATM    1  C   UNL     1      -9.229  11.031  62.567  1.00  0.00    -0.299 C  
HETATM    2  N   UNL     1      -9.856  11.654  63.738  1.00  0.00    -0.310 NA 
ENDROOT
BRANCH   2   3
HETATM    3  C   UNL     1     -10.013  10.688  64.847  1.00  0.00    -0.318 C  
BRANCH   3   4
HETATM    4  C   UNL     1      -8.956  10.769  65.972  1.00  0.00    -0.196 C  
BRANCH   4   5
HETATM    5  C   UNL     1      -9.508  10.506  67.355  1.00  0.00    -0.172 A  
HETATM    6  C   UNL     1     -10.534   9.932  69.899  1.00  0.00    -0.269 A  
HETATM    7  C   UNL     1     -10.893  10.444  67.568  1.00  0.00    -0.358 A  
HETATM    8  C   UNL     1      -8.646  10.313  68.444  1.00  0.00    -0.125 A  
HETATM    9  C   UNL     1     -11.405  10.160  68.836  1.00  0.00    -0.176 A  
HETATM   10  C   UNL     1      -9.158  10.027  69.711  1.00  0.00    -0.219 A  
BRANCH   6  11
HETATM   11  N   UNL     1     -11.036   9.629  71.197  1.00  0.00    -0.360 N  
HETATM   12  H   UNL     1     -10.796  10.205  72.004  1.00  0.00     0.000 HD 
BRANCH  11  13
HETATM   13  S   UNL     1     -12.042   8.280  71.351  1.00  0.00    -0.298 S  
HETATM   14  O   UNL     1     -11.598   7.350  70.333  1.00  0.00    -0.264 OA 
HETATM   15  O   UNL     1     -13.425   8.691  71.435  1.00  0.00    -0.311 OA 
HETATM   16  C   UNL     1     -11.525   7.633  72.927  1.00  0.00    -0.290 C  
ENDBRANCH  11  13
ENDBRANCH   6  11
ENDBRANCH   4   5
ENDBRANCH   3   4
ENDBRANCH   2   3
BRANCH   2  17
HETATM   17  C   UNL     1     -11.150  12.250  63.331  1.00  0.00    -0.418 C  
BRANCH  17  18
HETATM   18  C   UNL     1     -11.594  13.455  64.175  1.00  0.00    -0.398 C  
BRANCH  18  19
HETATM   19  O   UNL     1     -10.465  13.981  64.883  1.00  0.00    -0.393 OA 
BRANCH  19  20
HETATM   20  C   UNL     1     -10.578  14.013  66.249  1.00  0.00    -0.281 A  
HETATM   21  C   UNL     1      -9.523  14.211  67.144  1.00  0.00    -0.237 A  
HETATM   22  C   UNL     1     -11.870  13.828  66.747  1.00  0.00    -0.454 A  
HETATM   23  C   UNL     1     -11.041  13.975  69.009  1.00  0.00    -0.264 A  
HETATM   24  C   UNL     1     -12.106  13.813  68.126  1.00  0.00    -0.316 A  
HETATM   25  C   UNL     1      -9.756  14.194  68.521  1.00  0.00    -0.219 A  
BRANCH  23  26
HETATM   26  N   UNL     1     -11.247  13.951  70.418  1.00  0.00    -0.463 N  
HETATM   27  H   UNL     1     -11.131  13.091  70.954  1.00  0.00     0.000 HD 
BRANCH  26  28
HETATM   28  S   UNL     1     -11.691  15.397  71.171  1.00  0.00    -0.411 S  
HETATM   29  O   UNL     1     -11.361  15.348  72.576  1.00  0.00    -0.431 OA 
HETATM   30  C   UNL     1     -13.462  15.375  70.980  1.00  0.00    -0.444 C  
HETATM   31  O   UNL     1     -11.174  16.447  70.316  1.00  0.00    -0.367 OA 
ENDBRANCH  26  28
ENDBRANCH  23  26
ENDBRANCH  19  20
ENDBRANCH  18  19
ENDBRANCH  17  18
ENDBRANCH   2  17
TORSDOF 11
ENDMDL
MODEL       18
REMARK 921   NORMALIZED FREE ENERGY PREDICTED BY IDOCK:   -5.83 KCAL/MOL
REMARK 922        TOTAL FREE ENERGY PREDICTED BY IDOCK:  -11.14 KCAL/MOL
REMARK 923 INTER-LIGAND FREE ENERGY PREDICTED BY IDOCK:   -9.77 KCAL/MOL
REMARK 924 INTRA-LIGAND FREE ENERGY PREDICTED BY IDOCK:   -1.37 KCAL/MOL
REMARK 927      BINDING AFFINITY PREDICTED BY RF-SCORE:    0.00 PKD
ROOT
HETATM    1  C   UNL     1     -12.670  12.056  63.943  1.00  0.00    -0.354 C  
HETATM    2  N   UNL     1     -11.211  12.193  63.870  1.00  0.00    -0.377 NA 
ENDROOT
BRANCH   2   3
HETATM    3  C   UNL     1     -10.528  11.130  64.637  1.00  0.00    -0.335 C  
BRANCH   3   4
HETATM    4  C   UNL     1      -9.612  11.604  65.789  1.00  0.00    -0.255 C  
BRANCH   4   5
HETATM    5  C   UNL     1      -9.649  10.716  67.012  1.00  0.00    -0.196 A  
HETATM    6  C   UNL     1      -9.651   9.020  69.243  1.00  0.00    -0.162 A  
HETATM    7  C   UNL     1     -10.400   9.531  67.006  1.00  0.00    -0.319 A  
HETATM    8  C   UNL     1      -8.929  11.056  68.165  1.00  0.00    -0.152 A  
HETATM    9  C   UNL     1     -10.403   8.686  68.119  1.00  0.00    -0.267 A  
HETATM   10  C   UNL     1      -8.931  10.211  69.277  1.00  0.00    -0.193 A  
BRANCH   6  11
HETATM   11  N   UNL     1      -9.631   8.167  70.383  1.00  0.00    -0.170 N  
HETATM   12  H   UNL     1      -8.865   7.512  70.539  1.00  0.00     0.000 HD 
BRANCH  11  13
HETATM   13  S   UNL     1     -10.921   8.281  71.468  1.00  0.00    -0.270 S  
HETATM   14  O   UNL     1     -11.586   9.527  71.146  1.00  0.00    -0.307 OA 
HETATM   15  O   UNL     1     -10.474   7.999  72.813  1.00  0.00    -0.307 OA 
HETATM   16  C   UNL     1     -11.970   6.956  70.908  1.00  0.00    -0.381 C  
ENDBRANCH  11  13
ENDBRANCH   6  11
ENDBRANCH   4   5
ENDBRANCH   3   4
ENDBRANCH   2   3
BRANCH   2  17
HETATM   17  C   UNL     1     -10.831  13.548  64.334  1.00  0.00    -0.389 C  
BRANCH  17  18
HETATM   18  C   UNL     1     -11.908  14.268  65.160  1.00  0.00    -0.384 C  
BRANCH  18  19
HETATM   19  O   UNL     1     -11.291  15.277  65.969  1.00  0.00    -0.286 OA 
BRANCH  19  20
HETATM   20  C   UNL     1     -11.464  15.146  67.323  1.00  0.00    -0.279 A  
HETATM   21  C   UNL     1     -11.349  16.179  68.258  1.00  0.00    -0.316 A  
HETATM   22  C   UNL     1     -11.779  13.859  67.765  1.00  0.00    -0.401 A  
HETATM   23  C   UNL     1     -11.799  14.626  70.053  1.00  0.00    -0.308 A  
HETATM   24  C   UNL     1     -11.952  13.596  69.128  1.00  0.00    -0.394 A  
HETATM   25  C   UNL     1     -11.518  15.918  69.619  1.00  0.00    -0.346 A  
BRANCH  23  26
HETATM   26  N   UNL     1     -11.955  14.387  71.449  1.00  0.00    -0.423 N  
HETATM   27  H   UNL     1     -11.173  14.070  72.021  1.00  0.00     0.000 HD 
BRANCH  26  28
HETATM   28  S   UNL     1     -13.482  14.647  72.123  1.00  0.00    -0.441 S  
HETATM   29  O   UNL     1     -14.328  15.347  71.186  1.00  0.00    -0.490 OA 
HETATM   30  C   UNL     1     -13.095  15.724  73.488  1.00  0.00    -0.548 C  
HETATM   31  O   UNL     1     -13.876  13.367  72.678  1.00  0.00    -0.726 OA 
ENDBRANCH  26  28
ENDBRANCH  23  26
ENDBRANCH  19  20
ENDBRANCH  18  19
ENDBRANCH  17  18
ENDBRANCH   2  17
TORSDOF 11
ENDMDL
MODEL       19
REMARK 921   NORMALIZED FREE ENERGY PREDICTED BY IDOCK:   -5.73 KCAL/MOL
REMARK 922        TOTAL FREE ENERGY PREDICTED BY IDOCK:  -10.98 KCAL/MOL
REMARK 923 INTER-LIGAND FREE ENERGY PREDICTED BY IDOCK:   -9.48 KCAL/MOL
REMARK 924 INTRA-LIGAND FREE ENERGY PREDICTED BY IDOCK:   -1.50 KCAL/MOL
REMARK 927      BINDING AFFINITY PREDICTED BY RF-SCORE:    0.00 PKD
ROOT
HETATM    1  C   UNL     1      -9.519  15.661  69.335  1.00  0.00    -0.279 C  
HETATM    2  N   UNL     1     -10.723  16.499  69.352  1.00  0.00    -0.318 NA 
ENDROOT
BRANCH   2   3
HETATM    3  C   UNL     1     -11.949  15.684  69.491  1.00  0.00    -0.345 C  
BRANCH   3   4
HETATM    4  C   UNL     1     -12.199  15.065  70.884  1.00  0.00    -0.386 C  
BRANCH   4   5
HETATM    5  C   UNL     1     -12.396  13.565  70.866  1.00  0.00    -0.437 A  
HETATM    6  C   UNL     1     -12.685  10.778  70.877  1.00  0.00    -0.384 A  
HETATM    7  C   UNL     1     -11.786  12.781  69.875  1.00  0.00    -0.371 A  
HETATM    8  C   UNL     1     -13.183  12.935  71.839  1.00  0.00    -0.521 A  
HETATM    9  C   UNL     1     -11.931  11.392  69.880  1.00  0.00    -0.434 A  
HETATM   10  C   UNL     1     -13.327  11.546  71.844  1.00  0.00    -0.408 A  
BRANCH   6  11
HETATM   11  N   UNL     1     -12.836   9.362  70.907  1.00  0.00    -0.523 N  
HETATM   12  H   UNL     1     -13.753   8.926  70.809  1.00  0.00     0.000 HD 
BRANCH  11  13
HETATM   13  S   UNL     1     -11.441   8.431  71.110  1.00  0.00    -0.279 S  
HETATM   14  O   UNL     1     -10.677   9.104  72.141  1.00  0.00    -0.288 OA 
HETATM   15  O   UNL     1     -10.852   8.120  69.827  1.00  0.00    -0.245 OA 
HETATM   16  C   UNL     1     -12.110   6.945  71.825  1.00  0.00    -0.346 C  
ENDBRANCH  11  13
ENDBRANCH   6  11
ENDBRANCH   4   5
ENDBRANCH   3   4
ENDBRANCH   2   3
BRANCH   2  17
HETATM   17  C   UNL     1     -10.744  17.336  68.130  1.00  0.00    -0.363 C  
BRANCH  17  18
HETATM   18  C   UNL     1     -10.186  16.649  66.873  1.00  0.00    -0.291 C  
BRANCH  18  19
HETATM   19  O   UNL     1     -11.266  16.074  66.127  1.00  0.00    -0.056 OA 
BRANCH  19  20
HETATM   20  C   UNL     1     -11.165  14.731  65.867  1.00  0.00    -0.340 A  
HETATM   21  C   UNL     1     -11.751  13.714  66.625  1.00  0.00    -0.420 A  
HETATM   22  C   UNL     1     -10.405  14.395  64.745  1.00  0.00    -0.352 A  
HETATM   23  C   UNL     1     -10.766  12.048  65.178  1.00  0.00    -0.288 A  
HETATM   24  C   UNL     1     -10.207  13.055  64.394  1.00  0.00    -0.335 A  
HETATM   25  C   UNL     1     -11.552  12.376  66.279  1.00  0.00    -0.449 A  
BRANCH  23  26
HETATM   26  N   UNL     1     -10.572  10.675  64.855  1.00  0.00    -0.219 N  
HETATM   27  H   UNL     1     -11.003  10.260  64.029  1.00  0.00     0.000 HD 
BRANCH  26  28
HETATM   28  S   UNL     1      -9.602   9.755  65.888  1.00  0.00    -0.269 S  
HETATM   29  O   UNL     1      -8.755  10.619  66.676  1.00  0.00    -0.135 OA 
HETATM   30  C   UNL     1      -8.601   8.845  64.729  1.00  0.00    -0.158 C  
HETATM   31  O   UNL     1     -10.504   8.811  66.518  1.00  0.00    -0.242 OA 
ENDBRANCH  26  28
ENDBRANCH  23  26
ENDBRANCH  19  20
ENDBRANCH  18  19
ENDBRANCH  17  18
ENDBRANCH   2  17
TORSDOF 11
ENDMDL
MODEL       20
REMARK 921   NORMALIZED FREE ENERGY PREDICTED BY IDOCK:   -5.72 KCAL/MOL
REMARK 922        TOTAL FREE ENERGY PREDICTED BY IDOCK:  -10.96 KCAL/MOL
REMARK 923 INTER-LIGAND FREE ENERGY PREDICTED BY IDOCK:   -9.94 KCAL/MOL
REMARK 924 INTRA-LIGAND FREE ENERGY PREDICTED BY IDOCK:   -1.02 KCAL/MOL
REMARK 927      BINDING AFFINITY PREDICTED BY RF-SCORE:    0.00 PKD
ROOT
HETATM    1  C   UNL     1      -9.411   9.857  63.600  1.00  0.00    -0.191 C  
HETATM    2  N   UNL     1     -10.108  10.832  64.447  1.00  0.00    -0.332 NA 
ENDROOT
BRANCH   2   3
HETATM    3  C   UNL     1     -10.232  12.143  63.774  1.00  0.00    -0.424 C  
BRANCH   3   4
HETATM    4  C   UNL     1     -11.246  13.131  64.395  1.00  0.00    -0.403 C  
BRANCH   4   5
HETATM    5  C   UNL     1     -10.610  14.352  65.022  1.00  0.00    -0.452 A  
HETATM    6  C   UNL     1      -9.379  16.620  66.115  1.00  0.00    -0.284 A  
HETATM    7  C   UNL     1      -9.453  14.228  65.804  1.00  0.00    -0.098 A  
HETATM    8  C   UNL     1     -11.163  15.625  64.827  1.00  0.00    -0.391 A  
HETATM    9  C   UNL     1      -8.839  15.358  66.350  1.00  0.00    -0.340 A  
HETATM   10  C   UNL     1     -10.549  16.755  65.373  1.00  0.00    -0.218 A  
BRANCH   6  11
HETATM   11  N   UNL     1      -8.763  17.786  66.652  1.00  0.00    -0.253 N  
HETATM   12  H   UNL     1      -7.871  18.126  66.292  1.00  0.00     0.000 HD 
BRANCH  11  13
HETATM   13  S   UNL     1      -9.562  18.584  67.908  1.00  0.00    -0.312 S  
HETATM   14  O   UNL     1     -10.226  17.543  68.665  1.00  0.00    -0.335 OA 
HETATM   15  O   UNL     1     -10.298  19.719  67.397  1.00  0.00    -0.406 OA 
HETATM   16  C   UNL     1      -8.193  19.165  68.886  1.00  0.00    -0.295 C  
ENDBRANCH  11  13
ENDBRANCH   6  11
ENDBRANCH   4   5
ENDBRANCH   3   4
ENDBRANCH   2   3
BRANCH   2  17
HETATM   17  C   UNL     1      -9.400  10.936  65.744  1.00  0.00    -0.203 C  
BRANCH  17  18
HETATM   18  C   UNL     1     -10.179  10.377  66.945  1.00  0.00    -0.227 C  
BRANCH  18  19
HETATM   19  O   UNL     1     -11.443  11.044  67.044  1.00  0.00    -0.415 OA 
BRANCH  19  20
HETATM   20  C   UNL     1     -11.714  11.638  68.250  1.00  0.00    -0.304 A  
HETATM   21  C   UNL     1     -11.819  10.973  69.474  1.00  0.00    -0.404 A  
HETATM   22  C   UNL     1     -11.893  13.023  68.208  1.00  0.00    -0.381 A  
HETATM   23  C   UNL     1     -12.338  13.057  70.580  1.00  0.00    -0.287 A  
HETATM   24  C   UNL     1     -12.200  13.736  69.371  1.00  0.00    -0.325 A  
HETATM   25  C   UNL     1     -12.129  11.682  70.636  1.00  0.00    -0.432 A  
BRANCH  23  26
HETATM   26  N   UNL     1     -12.665  13.754  71.779  1.00  0.00    -0.310 N  
HETATM   27  H   UNL     1     -12.728  13.266  72.672  1.00  0.00     0.000 HD 
BRANCH  26  28
HETATM   28  S   UNL     1     -12.942  15.416  71.670  1.00  0.00    -0.469 S  
HETATM   29  O   UNL     1     -11.771  16.084  71.155  1.00  0.00    -0.401 OA 
HETATM   30  C   UNL     1     -13.170  15.858  73.381  1.00  0.00    -0.562 C  
HETATM   31  O   UNL     1     -14.228  15.545  71.013  1.00  0.00    -0.490 OA 
ENDBRANCH  26  28
ENDBRANCH  23  26
ENDBRANCH  19  20
ENDBRANCH  18  19
ENDBRANCH  17  18
ENDBRANCH   2  17
TORSDOF 11
ENDMDL
MODEL       21
REMARK 921   NORMALIZED FREE ENERGY PREDICTED BY IDOCK:   -5.71 KCAL/MOL
REMARK 922        TOTAL FREE ENERGY PREDICTED BY IDOCK:  -10.95 KCAL/MOL
REMARK 923 INTER-LIGAND FREE ENERGY PREDICTED BY IDOCK:   -9.28 KCAL/MOL
REMARK 924 INTRA-LIGAND FREE ENERGY PREDICTED BY IDOCK:   -1.66 KCAL/MOL
REMARK 927      BINDING AFFINITY PREDICTED BY RF-SCORE:    0.00 PKD
ROOT
HETATM    1  C   UNL     1     -12.644   7.255  71.242  1.00  0.00    -0.366 C  
HETATM    2  N   UNL     1     -11.349   7.718  71.750  1.00  0.00    -0.252 NA 
ENDROOT
BRANCH   2   3
HETATM    3  C   UNL     1     -11.358   9.173  72.013  1.00  0.00    -0.262 C  
BRANCH   3   4
HETATM    4  C   UNL     1     -12.712   9.891  71.812  1.00  0.00    -0.523 C  
BRANCH   4   5
HETATM    5  C   UNL     1     -12.598  11.252  71.163  1.00  0.00    -0.501 A  
HETATM    6  C   UNL     1     -12.308  13.787  70.002  1.00  0.00    -0.300 A  
HETATM    7  C   UNL     1     -13.051  12.399  71.832  1.00  0.00    -0.471 A  
HETATM    8  C   UNL     1     -12.032  11.391  69.888  1.00  0.00    -0.434 A  
HETATM    9  C   UNL     1     -12.908  13.663  71.254  1.00  0.00    -0.424 A  
HETATM   10  C   UNL     1     -11.889  12.655  69.310  1.00  0.00    -0.358 A  
BRANCH   6  11
HETATM   11  N   UNL     1     -12.143  15.066  69.400  1.00  0.00    -0.471 N  
HETATM   12  H   UNL     1     -12.925  15.716  69.315  1.00  0.00     0.000 HD 
BRANCH  11  13
HETATM   13  S   UNL     1     -10.604  15.471  68.833  1.00  0.00    -0.253 S  
HETATM   14  O   UNL     1     -10.463  14.771  67.572  1.00  0.00    -0.242 OA 
HETATM   15  O   UNL     1      -9.624  15.320  69.884  1.00  0.00    -0.207 OA 
HETATM   16  C   UNL     1     -10.807  17.200  68.464  1.00  0.00    -0.281 C  
ENDBRANCH  11  13
ENDBRANCH   6  11
ENDBRANCH   4   5
ENDBRANCH   3   4
ENDBRANCH   2   3
BRANCH   2  17
HETATM   17  C   UNL     1     -10.289   7.332  70.790  1.00  0.00    -0.202 C  
BRANCH  17  18
HETATM   18  C   UNL     1     -10.512   7.831  69.354  1.00  0.00    -0.220 C  
BRANCH  18  19
HETATM   19  O   UNL     1      -9.287   8.371  68.843  1.00  0.00    -0.147 OA 
BRANCH  19  20
HETATM   20  C   UNL     1      -9.415   9.364  67.906  1.00  0.00    -0.132 A  
HETATM   21  C   UNL     1      -8.929  10.668  68.036  1.00  0.00    -0.140 A  
HETATM   22  C   UNL     1     -10.095   9.003  66.741  1.00  0.00    -0.344 A  
HETATM   23  C   UNL     1      -9.854  11.245  65.880  1.00  0.00    -0.232 A  
HETATM   24  C   UNL     1     -10.312   9.939  65.723  1.00  0.00    -0.155 A  
HETATM   25  C   UNL     1      -9.147  11.605  67.024  1.00  0.00    -0.179 A  
BRANCH  23  26
HETATM   26  N   UNL     1     -10.072  12.224  64.869  1.00  0.00    -0.344 N  
HETATM   27  H   UNL     1      -9.319  12.513  64.244  1.00  0.00     0.000 HD 
BRANCH  26  28
HETATM   28  S   UNL     1     -11.619  12.889  64.740  1.00  0.00    -0.352 S  
HETATM   29  O   UNL     1     -12.398  12.568  65.913  1.00  0.00    -0.626 OA 
HETATM   30  C   UNL     1     -12.275  12.010  63.337  1.00  0.00    -0.519 C  
HETATM   31  O   UNL     1     -11.410  14.265  64.332  1.00  0.00    -0.347 OA 
ENDBRANCH  26  28
ENDBRANCH  23  26
ENDBRANCH  19  20
ENDBRANCH  18  19
ENDBRANCH  17  18
ENDBRANCH   2  17
TORSDOF 11
ENDMDL
MODEL       22
REMARK 921   NORMALIZED FREE ENERGY PREDICTED BY IDOCK:   -5.71 KCAL/MOL
REMARK 922        TOTAL FREE ENERGY PREDICTED BY IDOCK:  -10.95 KCAL/MOL
REMARK 923 INTER-LIGAND FREE ENERGY PREDICTED BY IDOCK:   -9.61 KCAL/MOL
REMARK 924 INTRA-LIGAND FREE ENERGY PREDICTED BY IDOCK:   -1.33 KCAL/MOL
REMARK 927      BINDING AFFINITY PREDICTED BY RF-SCORE:    0.00 PKD
ROOT
HETATM    1  C   UNL     1     -14.075  15.367  72.087  1.00  0.00    -0.553 C  
HETATM    2  N   UNL     1     -13.214  14.809  71.039  1.00  0.00    -0.375 NA 
ENDROOT
BRANCH   2   3
HETATM    3  C   UNL     1     -12.554  13.563  71.485  1.00  0.00    -0.266 C  
BRANCH   3   4
HETATM    4  C   UNL     1     -13.492  12.432  71.963  1.00  0.00    -0.460 C  
BRANCH   4   5
HETATM    5  C   UNL     1     -13.009  11.042  71.612  1.00  0.00    -0.561 A  
HETATM    6  C   UNL     1     -12.179   8.462  70.900  1.00  0.00    -0.095 A  
HETATM    7  C   UNL     1     -13.613   9.914  72.189  1.00  0.00    -0.392 A  
HETATM    8  C   UNL     1     -11.959  10.858  70.703  1.00  0.00    -0.467 A  
HETATM    9  C   UNL     1     -13.198   8.628  71.835  1.00  0.00    -0.411 A  
HETATM   10  C   UNL     1     -11.545   9.572  70.349  1.00  0.00    -0.268 A  
BRANCH   6  11
HETATM   11  N   UNL     1     -11.749   7.160  70.517  1.00  0.00    -0.451 N  
HETATM   12  H   UNL     1     -11.998   6.766  69.609  1.00  0.00     0.000 HD 
BRANCH  11  13
HETATM   13  S   UNL     1     -10.812   6.289  71.621  1.00  0.00    -0.261 S  
HETATM   14  O   UNL     1     -11.760   5.659  72.517  1.00  0.00    -0.297 OA 
HETATM   15  O   UNL     1      -9.738   7.112  72.129  1.00  0.00    -0.148 OA 
HETATM   16  C   UNL     1     -10.134   5.015  70.580  1.00  0.00    -0.253 C  
ENDBRANCH  11  13
ENDBRANCH   6  11
ENDBRANCH   4   5
ENDBRANCH   3   4
ENDBRANCH   2   3
BRANCH   2  17
HETATM   17  C   UNL     1     -12.235  15.840  70.621  1.00  0.00    -0.384 C  
BRANCH  17  18
HETATM   18  C   UNL     1     -11.148  15.338  69.657  1.00  0.00    -0.276 C  
BRANCH  18  19
HETATM   19  O   UNL     1     -11.573  15.557  68.306  1.00  0.00    -0.357 OA 
BRANCH  19  20
HETATM   20  C   UNL     1     -11.407  14.501  67.448  1.00  0.00    -0.356 A  
HETATM   21  C   UNL     1     -11.696  13.166  67.743  1.00  0.00    -0.401 A  
HETATM   22  C   UNL     1     -10.907  14.828  66.185  1.00  0.00    -0.321 A  
HETATM   23  C   UNL     1     -10.928  12.499  65.551  1.00  0.00    -0.287 A  
HETATM   24  C   UNL     1     -10.671  13.830  65.233  1.00  0.00    -0.345 A  
HETATM   25  C   UNL     1     -11.458  12.168  66.795  1.00  0.00    -0.418 A  
BRANCH  23  26
HETATM   26  N   UNL     1     -10.685  11.460  64.608  1.00  0.00    -0.318 N  
HETATM   27  H   UNL     1     -11.247  11.373  63.761  1.00  0.00     0.000 HD 
BRANCH  26  28
HETATM   28  S   UNL     1      -9.435  10.374  64.941  1.00  0.00    -0.293 S  
HETATM   29  O   UNL     1      -8.320  11.068  65.543  1.00  0.00    -0.132 OA 
HETATM   30  C   UNL     1      -8.979   9.835  63.305  1.00  0.00    -0.252 C  
HETATM   31  O   UNL     1     -10.069   9.254  65.607  1.00  0.00    -0.215 OA 
ENDBRANCH  26  28
ENDBRANCH  23  26
ENDBRANCH  19  20
ENDBRANCH  18  19
ENDBRANCH  17  18
ENDBRANCH   2  17
TORSDOF 11
ENDMDL
MODEL       23
REMARK 921   NORMALIZED FREE ENERGY PREDICTED BY IDOCK:   -5.66 KCAL/MOL
REMARK 922        TOTAL FREE ENERGY PREDICTED BY IDOCK:  -10.85 KCAL/MOL
REMARK 923 INTER-LIGAND FREE ENERGY PREDICTED BY IDOCK:   -8.62 KCAL/MOL
REMARK 924 INTRA-LIGAND FREE ENERGY PREDICTED BY IDOCK:   -2.23 KCAL/MOL
REMARK 927      BINDING AFFINITY PREDICTED BY RF-SCORE:    0.00 PKD
ROOT
HETATM    1  C   UNL     1     -14.067   8.875  72.016  1.00  0.00    -0.411 C  
HETATM    2  N   UNL     1     -12.663   8.465  72.114  1.00  0.00    -0.352 NA 
ENDROOT
BRANCH   2   3
HETATM    3  C   UNL     1     -11.763   9.455  71.482  1.00  0.00    -0.394 C  
BRANCH   3   4
HETATM    4  C   UNL     1     -12.408  10.803  71.086  1.00  0.00    -0.498 C  
BRANCH   4   5
HETATM    5  C   UNL     1     -11.982  11.314  69.728  1.00  0.00    -0.431 A  
HETATM    6  C   UNL     1     -11.110  12.270  67.242  1.00  0.00    -0.275 A  
HETATM    7  C   UNL     1     -11.933  12.693  69.472  1.00  0.00    -0.332 A  
HETATM    8  C   UNL     1     -11.624  10.423  68.708  1.00  0.00    -0.188 A  
HETATM    9  C   UNL     1     -11.500  13.170  68.232  1.00  0.00    -0.349 A  
HETATM   10  C   UNL     1     -11.190  10.899  67.470  1.00  0.00    -0.364 A  
BRANCH   6  11
HETATM   11  N   UNL     1     -10.654  12.736  65.976  1.00  0.00    -0.265 N  
HETATM   12  H   UNL     1      -9.659  12.781  65.756  1.00  0.00     0.000 HD 
BRANCH  11  13
HETATM   13  S   UNL     1     -11.822  13.212  64.851  1.00  0.00    -0.383 S  
HETATM   14  O   UNL     1     -11.681  14.649  64.735  1.00  0.00    -0.391 OA 
HETATM   15  O   UNL     1     -13.098  12.610  65.165  1.00  0.00    -0.726 OA 
HETATM   16  C   UNL     1     -11.184  12.490  63.354  1.00  0.00    -0.397 C  
ENDBRANCH  11  13
ENDBRANCH   6  11
ENDBRANCH   4   5
ENDBRANCH   3   4
ENDBRANCH   2   3
BRANCH   2  17
HETATM   17  C   UNL     1     -12.512   7.117  71.519  1.00  0.00    -0.381 C  
BRANCH  17  18
HETATM   18  C   UNL     1     -11.130   6.835  70.910  1.00  0.00    -0.277 C  
BRANCH  18  19
HETATM   19  O   UNL     1     -11.291   6.338  69.576  1.00  0.00    -0.409 OA 
BRANCH  19  20
HETATM   20  C   UNL     1     -10.429   6.849  68.639  1.00  0.00    -0.195 A  
HETATM   21  C   UNL     1     -10.575   6.731  67.254  1.00  0.00    -0.390 A  
HETATM   22  C   UNL     1      -9.327   7.537  69.152  1.00  0.00    -0.147 A  
HETATM   23  C   UNL     1      -8.502   7.924  66.917  1.00  0.00    -0.128 A  
HETATM   24  C   UNL     1      -8.364   8.080  68.294  1.00  0.00    -0.123 A  
HETATM   25  C   UNL     1      -9.614   7.268  66.396  1.00  0.00    -0.169 A  
BRANCH  23  26
HETATM   26  N   UNL     1      -7.531   8.453  66.019  1.00  0.00    -0.083 N  
HETATM   27  H   UNL     1      -6.746   7.886  65.696  1.00  0.00     0.000 HD 
BRANCH  26  28
HETATM   28  S   UNL     1      -7.725  10.050  65.505  1.00  0.00    -0.140 S  
HETATM   29  O   UNL     1      -9.040  10.236  64.940  1.00  0.00    -0.179 OA 
HETATM   30  C   UNL     1      -6.505  10.165  64.212  1.00  0.00    -0.120 C  
HETATM   31  O   UNL     1      -7.263  10.865  66.612  1.00  0.00    -0.124 OA 
ENDBRANCH  26  28
ENDBRANCH  23  26
ENDBRANCH  19  20
ENDBRANCH  18  19
ENDBRANCH  17  18
ENDBRANCH   2  17
TORSDOF 11
ENDMDL
MODEL       24
REMARK 921   NORMALIZED FREE ENERGY PREDICTED BY IDOCK:   -5.65 KCAL/MOL
REMARK 922        TOTAL FREE ENERGY PREDICTED BY IDOCK:  -10.84 KCAL/MOL
REMARK 923 INTER-LIGAND FREE ENERGY PREDICTED BY IDOCK:   -8.92 KCAL/MOL
REMARK 924 INTRA-LIGAND FREE ENERGY PREDICTED BY IDOCK:   -1.92 KCAL/MOL
REMARK 927      BINDING AFFINITY PREDICTED BY RF-SCORE:    0.00 PKD
ROOT
HETATM    1  C   UNL     1     -10.461  17.677  67.335  1.00  0.00    -0.356 C  
HETATM    2  N   UNL     1     -10.433  16.383  68.025  1.00  0.00    -0.291 NA 
ENDROOT
BRANCH   2   3
HETATM    3  C   UNL     1     -10.763  15.272  67.107  1.00  0.00    -0.316 C  
BRANCH   3   4
HETATM    4  C   UNL     1      -9.563  14.577  66.423  1.00  0.00    -0.324 C  
BRANCH   4   5
HETATM    5  C   UNL     1      -9.704  13.075  66.309  1.00  0.00    -0.265 A  
HETATM    6  C   UNL     1      -9.937  10.299  66.012  1.00  0.00    -0.245 A  
HETATM    7  C   UNL     1     -10.876  12.510  65.785  1.00  0.00    -0.310 A  
HETATM    8  C   UNL     1      -8.666  12.227  66.716  1.00  0.00    -0.175 A  
HETATM    9  C   UNL     1     -10.994  11.126  65.638  1.00  0.00    -0.149 A  
HETATM   10  C   UNL     1      -8.783  10.843  66.569  1.00  0.00    -0.165 A  
BRANCH   6  11
HETATM   11  N   UNL     1     -10.032   8.886  65.860  1.00  0.00    -0.445 N  
HETATM   12  H   UNL     1     -10.163   8.461  64.942  1.00  0.00     0.000 HD 
BRANCH  11  13
HETATM   13  S   UNL     1      -9.918   7.940  67.255  1.00  0.00    -0.242 S  
HETATM   14  O   UNL     1     -10.724   8.621  68.248  1.00  0.00    -0.164 OA 
HETATM   15  O   UNL     1      -8.540   7.597  67.521  1.00  0.00    -0.118 OA 
HETATM   16  C   UNL     1     -10.803   6.476  66.762  1.00  0.00    -0.275 C  
ENDBRANCH  11  13
ENDBRANCH   6  11
ENDBRANCH   4   5
ENDBRANCH   3   4
ENDBRANCH   2   3
BRANCH   2  17
HETATM   17  C   UNL     1     -11.351  16.437  69.187  1.00  0.00    -0.241 C  
BRANCH  17  18
HETATM   18  C   UNL     1     -11.084  15.375  70.265  1.00  0.00    -0.311 C  
BRANCH  18  19
HETATM   19  O   UNL     1     -12.332  14.859  70.744  1.00  0.00    -0.286 OA 
BRANCH  19  20
HETATM   20  C   UNL     1     -12.439  13.493  70.784  1.00  0.00    -0.353 A  
HETATM   21  C   UNL     1     -13.073  12.759  71.790  1.00  0.00    -0.455 A  
HETATM   22  C   UNL     1     -11.852  12.815  69.712  1.00  0.00    -0.380 A  
HETATM   23  C   UNL     1     -12.477  10.696  70.684  1.00  0.00    -0.371 A  
HETATM   24  C   UNL     1     -11.873  11.417  69.656  1.00  0.00    -0.431 A  
HETATM   25  C   UNL     1     -13.092  11.364  71.738  1.00  0.00    -0.523 A  
BRANCH  23  26
HETATM   26  N   UNL     1     -12.503   9.272  70.663  1.00  0.00    -0.499 N  
HETATM   27  H   UNL     1     -13.031   8.764  69.953  1.00  0.00     0.000 HD 
BRANCH  26  28
HETATM   28  S   UNL     1     -11.628   8.453  71.853  1.00  0.00    -0.357 S  
HETATM   29  O   UNL     1     -10.294   8.998  71.955  1.00  0.00    -0.341 OA 
HETATM   30  C   UNL     1     -11.543   6.809  71.172  1.00  0.00    -0.329 C  
HETATM   31  O   UNL     1     -12.507   8.402  73.004  1.00  0.00    -0.205 OA 
ENDBRANCH  26  28
ENDBRANCH  23  26
ENDBRANCH  19  20
ENDBRANCH  18  19
ENDBRANCH  17  18
ENDBRANCH   2  17
TORSDOF 11
ENDMDL
MODEL       25
REMARK 921   NORMALIZED FREE ENERGY PREDICTED BY IDOCK:   -5.64 KCAL/MOL
REMARK 922        TOTAL FREE ENERGY PREDICTED BY IDOCK:  -10.83 KCAL/MOL
REMARK 923 INTER-LIGAND FREE ENERGY PREDICTED BY IDOCK:   -9.22 KCAL/MOL
REMARK 924 INTRA-LIGAND FREE ENERGY PREDICTED BY IDOCK:   -1.61 KCAL/MOL
REMARK 927      BINDING AFFINITY PREDICTED BY RF-SCORE:    0.00 PKD
ROOT
HETATM    1  C   UNL     1     -13.151  15.926  73.577  1.00  0.00    -0.565 C  
HETATM    2  N   UNL     1     -12.685  15.022  72.520  1.00  0.00    -0.331 NA 
ENDROOT
BRANCH   2   3
HETATM    3  C   UNL     1     -12.166  15.772  71.356  1.00  0.00    -0.445 C  
BRANCH   3   4
HETATM    4  C   UNL     1     -10.795  15.314  70.809  1.00  0.00    -0.255 C  
BRANCH   4   5
HETATM    5  C   UNL     1     -10.808  14.944  69.343  1.00  0.00    -0.274 A  
HETATM    6  C   UNL     1     -10.828  14.172  66.649  1.00  0.00    -0.299 A  
HETATM    7  C   UNL     1      -9.605  14.737  68.651  1.00  0.00    -0.218 A  
HETATM    8  C   UNL     1     -12.020  14.794  68.654  1.00  0.00    -0.292 A  
HETATM    9  C   UNL     1      -9.615  14.354  67.308  1.00  0.00    -0.227 A  
HETATM   10  C   UNL     1     -12.029  14.411  67.311  1.00  0.00    -0.409 A  
BRANCH   6  11
HETATM   11  N   UNL     1     -10.860  13.771  65.283  1.00  0.00    -0.309 N  
HETATM   12  H   UNL     1     -10.606  14.417  64.536  1.00  0.00     0.000 HD 
BRANCH  11  13
HETATM   13  S   UNL     1     -11.334  12.185  64.945  1.00  0.00    -0.316 S  
HETATM   14  O   UNL     1     -12.773  12.239  64.783  1.00  0.00    -0.556 OA 
HETATM   15  O   UNL     1     -10.722  11.266  65.878  1.00  0.00    -0.265 OA 
HETATM   16  C   UNL     1     -10.625  11.941  63.331  1.00  0.00    -0.430 C  
ENDBRANCH  11  13
ENDBRANCH   6  11
ENDBRANCH   4   5
ENDBRANCH   3   4
ENDBRANCH   2   3
BRANCH   2  17
HETATM   17  C   UNL     1     -13.789  14.108  72.147  1.00  0.00    -0.518 C  
BRANCH  17  18
HETATM   18  C   UNL     1     -13.413  12.618  72.139  1.00  0.00    -0.460 C  
BRANCH  18  19
HETATM   19  O   UNL     1     -13.220  12.184  70.787  1.00  0.00     0.136 OA 
BRANCH  19  20
HETATM   20  C   UNL     1     -12.336  11.150  70.611  1.00  0.00    -0.388 A  
HETATM   21  C   UNL     1     -12.179  10.063  71.474  1.00  0.00    -0.496 A  
HETATM   22  C   UNL     1     -11.546  11.228  69.461  1.00  0.00    -0.398 A  
HETATM   23  C   UNL     1     -10.415   9.186  70.075  1.00  0.00    -0.221 A  
HETATM   24  C   UNL     1     -10.588  10.246  69.188  1.00  0.00    -0.254 A  
HETATM   25  C   UNL     1     -11.221   9.083  71.205  1.00  0.00    -0.385 A  
BRANCH  23  26
HETATM   26  N   UNL     1      -9.439   8.178  69.832  1.00  0.00    -0.160 N  
HETATM   27  H   UNL     1      -8.510   8.232  70.248  1.00  0.00     0.000 HD 
BRANCH  26  28
HETATM   28  S   UNL     1      -9.875   6.890  68.830  1.00  0.00    -0.150 S  
HETATM   29  O   UNL     1     -10.599   7.376  67.680  1.00  0.00    -0.233 OA 
HETATM   30  C   UNL     1     -10.983   5.973  69.881  1.00  0.00    -0.388 C  
HETATM   31  O   UNL     1      -8.668   6.101  68.678  1.00  0.00    -0.113 OA 
ENDBRANCH  26  28
ENDBRANCH  23  26
ENDBRANCH  19  20
ENDBRANCH  18  19
ENDBRANCH  17  18
ENDBRANCH   2  17
TORSDOF 11
ENDMDL
MODEL       26
REMARK 921   NORMALIZED FREE ENERGY PREDICTED BY IDOCK:   -5.59 KCAL/MOL
REMARK 922        TOTAL FREE ENERGY PREDICTED BY IDOCK:  -10.75 KCAL/MOL
REMARK 923 INTER-LIGAND FREE ENERGY PREDICTED BY IDOCK:   -9.65 KCAL/MOL
REMARK 924 INTRA-LIGAND FREE ENERGY PREDICTED BY IDOCK:   -1.09 KCAL/MOL
REMARK 927      BINDING AFFINITY PREDICTED BY RF-SCORE:    0.00 PKD
ROOT
HETATM    1  C   UNL     1     -10.643  17.342  68.230  1.00  0.00    -0.383 C  
HETATM    2  N   UNL     1     -11.148  15.966  68.290  1.00  0.00    -0.330 NA 
ENDROOT
BRANCH   2   3
HETATM    3  C   UNL     1     -10.860  15.339  69.598  1.00  0.00    -0.286 C  
BRANCH   3   4
HETATM    4  C   UNL     1     -12.090  14.910  70.430  1.00  0.00    -0.386 C  
BRANCH   4   5
HETATM    5  C   UNL     1     -12.271  13.412  70.536  1.00  0.00    -0.425 A  
HETATM    6  C   UNL     1     -12.529  10.632  70.775  1.00  0.00    -0.385 A  
HETATM    7  C   UNL     1     -11.681  12.558  69.592  1.00  0.00    -0.372 A  
HETATM    8  C   UNL     1     -13.022  12.855  71.579  1.00  0.00    -0.388 A  
HETATM    9  C   UNL     1     -11.810  11.172  69.710  1.00  0.00    -0.422 A  
HETATM   10  C   UNL     1     -13.151  11.469  71.697  1.00  0.00    -0.478 A  
BRANCH   6  11
HETATM   11  N   UNL     1     -12.663   9.222  70.921  1.00  0.00    -0.508 N  
HETATM   12  H   UNL     1     -13.577   8.789  71.054  1.00  0.00     0.000 HD 
BRANCH  11  13
HETATM   13  S   UNL     1     -11.253   8.292  70.864  1.00  0.00    -0.266 S  
HETATM   14  O   UNL     1     -10.363   8.884  71.842  1.00  0.00    -0.322 OA 
HETATM   15  O   UNL     1     -10.834   8.097  69.495  1.00  0.00    -0.213 OA 
HETATM   16  C   UNL     1     -11.825   6.744  71.530  1.00  0.00    -0.333 C  
ENDBRANCH  11  13
ENDBRANCH   6  11
ENDBRANCH   4   5
ENDBRANCH   3   4
ENDBRANCH   2   3
BRANCH   2  17
HETATM   17  C   UNL     1     -10.575  15.193  67.163  1.00  0.00    -0.295 C  
BRANCH  17  18
HETATM   18  C   UNL     1     -11.524  14.999  65.970  1.00  0.00    -0.221 C  
BRANCH  18  19
HETATM   19  O   UNL     1     -12.086  13.682  66.020  1.00  0.00    -0.389 OA 
BRANCH  19  20
HETATM   20  C   UNL     1     -11.419  12.720  65.306  1.00  0.00    -0.325 A  
HETATM   21  C   UNL     1     -11.199  12.743  63.926  1.00  0.00    -0.491 A  
HETATM   22  C   UNL     1     -10.935  11.645  66.055  1.00  0.00    -0.338 A  
HETATM   23  C   UNL     1     -10.081  10.605  64.052  1.00  0.00    -0.310 A  
HETATM   24  C   UNL     1     -10.262  10.588  65.433  1.00  0.00    -0.340 A  
HETATM   25  C   UNL     1     -10.530  11.688  63.302  1.00  0.00    -0.438 A  
BRANCH  23  26
HETATM   26  N   UNL     1      -9.412   9.538  63.387  1.00  0.00    -0.470 N  
HETATM   27  H   UNL     1      -9.792   9.125  62.536  1.00  0.00     0.000 HD 
BRANCH  26  28
HETATM   28  S   UNL     1      -7.965   8.980  64.058  1.00  0.00    -0.154 S  
HETATM   29  O   UNL     1      -7.151  10.094  64.482  1.00  0.00    -0.138 OA 
HETATM   30  C   UNL     1      -7.199   8.189  62.657  1.00  0.00    -0.096 C  
HETATM   31  O   UNL     1      -8.353   7.938  64.987  1.00  0.00    -0.148 OA 
ENDBRANCH  26  28
ENDBRANCH  23  26
ENDBRANCH  19  20
ENDBRANCH  18  19
ENDBRANCH  17  18
ENDBRANCH   2  17
TORSDOF 11
ENDMDL
MODEL       27
REMARK 921   NORMALIZED FREE ENERGY PREDICTED BY IDOCK:   -5.58 KCAL/MOL
REMARK 922        TOTAL FREE ENERGY PREDICTED BY IDOCK:  -10.72 KCAL/MOL
REMARK 923 INTER-LIGAND FREE ENERGY PREDICTED BY IDOCK:   -8.55 KCAL/MOL
REMARK 924 INTRA-LIGAND FREE ENERGY PREDICTED BY IDOCK:   -2.17 KCAL/MOL
REMARK 927      BINDING AFFINITY PREDICTED BY RF-SCORE:    0.00 PKD
ROOT
HETATM    1  C   UNL     1      -9.455  16.164  69.233  1.00  0.00    -0.224 C  
HETATM    2  N   UNL     1     -10.697  16.753  68.721  1.00  0.00    -0.336 NA 
ENDROOT
BRANCH   2   3
HETATM    3  C   UNL     1     -11.868  15.907  69.035  1.00  0.00    -0.318 C  
BRANCH   3   4
HETATM    4  C   UNL     1     -11.940  15.356  70.477  1.00  0.00    -0.394 C  
BRANCH   4   5
HETATM    5  C   UNL     1     -12.213  13.870  70.556  1.00  0.00    -0.443 A  
HETATM    6  C   UNL     1     -12.795  11.131  70.662  1.00  0.00    -0.186 A  
HETATM    7  C   UNL     1     -12.970  13.342  71.613  1.00  0.00    -0.445 A  
HETATM    8  C   UNL     1     -11.722  13.000  69.575  1.00  0.00    -0.381 A  
HETATM    9  C   UNL     1     -13.259  11.976  71.667  1.00  0.00    -0.361 A  
HETATM   10  C   UNL     1     -12.011  11.635  69.628  1.00  0.00    -0.390 A  
BRANCH   6  11
HETATM   11  N   UNL     1     -13.089   9.738  70.692  1.00  0.00    -0.586 N  
HETATM   12  H   UNL     1     -13.696   9.310  69.992  1.00  0.00     0.000 HD 
BRANCH  11  13
HETATM   13  S   UNL     1     -12.396   8.819  71.928  1.00  0.00    -0.391 S  
HETATM   14  O   UNL     1     -13.338   8.881  73.028  1.00  0.00    -0.308 OA 
HETATM   15  O   UNL     1     -11.010   9.185  72.112  1.00  0.00    -0.300 OA 
HETATM   16  C   UNL     1     -12.484   7.179  71.242  1.00  0.00    -0.386 C  
ENDBRANCH  11  13
ENDBRANCH   6  11
ENDBRANCH   4   5
ENDBRANCH   3   4
ENDBRANCH   2   3
BRANCH   2  17
HETATM   17  C   UNL     1     -10.554  16.989  67.265  1.00  0.00    -0.267 C  
BRANCH  17  18
HETATM   18  C   UNL     1      -9.669  15.967  66.534  1.00  0.00    -0.266 C  
BRANCH  18  19
HETATM   19  O   UNL     1     -10.480  14.878  66.077  1.00  0.00    -0.290 OA 
BRANCH  19  20
HETATM   20  C   UNL     1     -10.032  13.622  66.397  1.00  0.00    -0.296 A  
HETATM   21  C   UNL     1      -8.792  13.327  66.970  1.00  0.00    -0.216 A  
HETATM   22  C   UNL     1     -10.916  12.580  66.111  1.00  0.00    -0.318 A  
HETATM   23  C   UNL     1      -9.306  10.967  66.906  1.00  0.00    -0.173 A  
HETATM   24  C   UNL     1     -10.559  11.252  66.369  1.00  0.00    -0.316 A  
HETATM   25  C   UNL     1      -8.432  12.002  67.225  1.00  0.00    -0.175 A  
BRANCH  23  26
HETATM   26  N   UNL     1      -8.907   9.625  67.167  1.00  0.00    -0.131 N  
HETATM   27  H   UNL     1      -8.472   9.054  66.443  1.00  0.00     0.000 HD 
BRANCH  26  28
HETATM   28  S   UNL     1      -9.182   9.012  68.717  1.00  0.00    -0.132 S  
HETATM   29  O   UNL     1      -8.623   9.899  69.710  1.00  0.00    -0.183 OA 
HETATM   30  C   UNL     1      -8.240   7.500  68.679  1.00  0.00    -0.129 C  
HETATM   31  O   UNL     1     -10.585   8.649  68.740  1.00  0.00    -0.211 OA 
ENDBRANCH  26  28
ENDBRANCH  23  26
ENDBRANCH  19  20
ENDBRANCH  18  19
ENDBRANCH  17  18
ENDBRANCH   2  17
TORSDOF 11
ENDMDL
MODEL       28
REMARK 921   NORMALIZED FREE ENERGY PREDICTED BY IDOCK:   -5.56 KCAL/MOL
REMARK 922        TOTAL FREE ENERGY PREDICTED BY IDOCK:  -10.70 KCAL/MOL
REMARK 923 INTER-LIGAND FREE ENERGY PREDICTED BY IDOCK:   -9.39 KCAL/MOL
REMARK 924 INTRA-LIGAND FREE ENERGY PREDICTED BY IDOCK:   -1.30 KCAL/MOL
REMARK 927      BINDING AFFINITY PREDICTED BY RF-SCORE:    0.00 PKD
ROOT
HETATM    1  C   UNL     1     -11.223   7.804  72.799  1.00  0.00    -0.398 C  
HETATM    2  N   UNL     1     -12.497   8.009  72.100  1.00  0.00    -0.310 NA 
ENDROOT
BRANCH   2   3
HETATM    3  C   UNL     1     -12.546   7.254  70.830  1.00  0.00    -0.193 C  
BRANCH   3   4
HETATM    4  C   UNL     1     -11.313   6.378  70.512  1.00  0.00    -0.438 C  
BRANCH   4   5
HETATM    5  C   UNL     1     -10.508   6.856  69.325  1.00  0.00    -0.233 A  
HETATM    6  C   UNL     1      -8.962   7.671  67.134  1.00  0.00    -0.126 A  
HETATM    7  C   UNL     1      -9.362   7.642  69.514  1.00  0.00    -0.153 A  
HETATM    8  C   UNL     1     -10.888   6.516  68.019  1.00  0.00    -0.372 A  
HETATM    9  C   UNL     1      -8.591   8.050  68.422  1.00  0.00    -0.127 A  
HETATM   10  C   UNL     1     -10.117   6.923  66.928  1.00  0.00    -0.286 A  
BRANCH   6  11
HETATM   11  N   UNL     1      -8.184   8.066  66.009  1.00  0.00    -0.113 N  
HETATM   12  H   UNL     1      -7.447   7.466  65.638  1.00  0.00     0.000 HD 
BRANCH  11  13
HETATM   13  S   UNL     1      -8.526   9.566  65.310  1.00  0.00    -0.159 S  
HETATM   14  O   UNL     1      -7.850  10.541  66.142  1.00  0.00    -0.133 OA 
HETATM   15  O   UNL     1      -9.938   9.679  65.025  1.00  0.00    -0.224 OA 
HETATM   16  C   UNL     1      -7.625   9.455  63.779  1.00  0.00    -0.117 C  
ENDBRANCH  11  13
ENDBRANCH   6  11
ENDBRANCH   4   5
ENDBRANCH   3   4
ENDBRANCH   2   3
BRANCH   2  17
HETATM   17  C   UNL     1     -12.704   9.462  71.894  1.00  0.00    -0.401 C  
BRANCH  17  18
HETATM   18  C   UNL     1     -11.722  10.116  70.909  1.00  0.00    -0.378 C  
BRANCH  18  19
HETATM   19  O   UNL     1     -12.071  11.494  70.735  1.00  0.00    -0.364 OA 
BRANCH  19  20
HETATM   20  C   UNL     1     -11.866  12.009  69.480  1.00  0.00    -0.326 A  
HETATM   21  C   UNL     1     -11.452  11.280  68.363  1.00  0.00    -0.377 A  
HETATM   22  C   UNL     1     -12.100  13.381  69.351  1.00  0.00    -0.321 A  
HETATM   23  C   UNL     1     -11.451  13.293  67.028  1.00  0.00    -0.339 A  
HETATM   24  C   UNL     1     -11.899  14.025  68.125  1.00  0.00    -0.402 A  
HETATM   25  C   UNL     1     -11.247  11.921  67.140  1.00  0.00    -0.377 A  
BRANCH  23  26
HETATM   26  N   UNL     1     -11.224  13.923  65.771  1.00  0.00    -0.300 N  
HETATM   27  H   UNL     1     -10.484  14.615  65.654  1.00  0.00     0.000 HD 
BRANCH  26  28
HETATM   28  S   UNL     1     -12.221  13.483  64.480  1.00  0.00    -0.384 S  
HETATM   29  O   UNL     1     -13.281  12.618  64.942  1.00  0.00    -0.819 OA 
HETATM   30  C   UNL     1     -11.100  12.548  63.459  1.00  0.00    -0.439 C  
HETATM   31  O   UNL     1     -12.513  14.720  63.785  1.00  0.00    -0.782 OA 
ENDBRANCH  26  28
ENDBRANCH  23  26
ENDBRANCH  19  20
ENDBRANCH  18  19
ENDBRANCH  17  18
ENDBRANCH   2  17
TORSDOF 11
ENDMDL
MODEL       29
REMARK 921   NORMALIZED FREE ENERGY PREDICTED BY IDOCK:   -5.55 KCAL/MOL
REMARK 922        TOTAL FREE ENERGY PREDICTED BY IDOCK:  -10.67 KCAL/MOL
REMARK 923 INTER-LIGAND FREE ENERGY PREDICTED BY IDOCK:   -9.13 KCAL/MOL
REMARK 924 INTRA-LIGAND FREE ENERGY PREDICTED BY IDOCK:   -1.54 KCAL/MOL
REMARK 927      BINDING AFFINITY PREDICTED BY RF-SCORE:    0.00 PKD
ROOT
HETATM    1  C   UNL     1      -9.484  10.894  62.910  1.00  0.00    -0.355 C  
HETATM    2  N   UNL     1     -10.283  11.615  63.906  1.00  0.00    -0.327 NA 
ENDROOT
BRANCH   2   3
HETATM    3  C   UNL     1     -10.334  10.885  65.192  1.00  0.00    -0.278 C  
BRANCH   3   4
HETATM    4  C   UNL     1      -9.563  11.527  66.368  1.00  0.00    -0.230 C  
BRANCH   4   5
HETATM    5  C   UNL     1     -10.032  11.075  67.732  1.00  0.00    -0.194 A  
HETATM    6  C   UNL     1     -10.928  10.160  70.225  1.00  0.00    -0.317 A  
HETATM    7  C   UNL     1     -11.374  11.236  68.111  1.00  0.00    -0.372 A  
HETATM    8  C   UNL     1      -9.140  10.483  68.636  1.00  0.00    -0.158 A  
HETATM    9  C   UNL     1     -11.821  10.781  69.354  1.00  0.00    -0.370 A  
HETATM   10  C   UNL     1      -9.586  10.028  69.878  1.00  0.00    -0.233 A  
BRANCH   6  11
HETATM   11  N   UNL     1     -11.365   9.679  71.492  1.00  0.00    -0.380 N  
HETATM   12  H   UNL     1     -11.335  10.272  72.322  1.00  0.00     0.000 HD 
BRANCH  11  13
HETATM   13  S   UNL     1     -11.936   8.091  71.571  1.00  0.00    -0.307 S  
HETATM   14  O   UNL     1     -11.464   7.576  72.841  1.00  0.00    -0.328 OA 
HETATM   15  O   UNL     1     -11.661   7.394  70.335  1.00  0.00    -0.264 OA 
HETATM   16  C   UNL     1     -13.690   8.353  71.720  1.00  0.00    -0.393 C  
ENDBRANCH  11  13
ENDBRANCH   6  11
ENDBRANCH   4   5
ENDBRANCH   3   4
ENDBRANCH   2   3
BRANCH   2  17
HETATM   17  C   UNL     1     -11.635  11.862  63.352  1.00  0.00    -0.382 C  
BRANCH  17  18
HETATM   18  C   UNL     1     -12.667  12.359  64.377  1.00  0.00    -0.342 C  
BRANCH  18  19
HETATM   19  O   UNL     1     -12.764  13.786  64.300  1.00  0.00    -0.659 OA 
BRANCH  19  20
HETATM   20  C   UNL     1     -11.966  14.488  65.167  1.00  0.00    -0.369 A  
HETATM   21  C   UNL     1     -11.008  15.435  64.800  1.00  0.00    -0.411 A  
HETATM   22  C   UNL     1     -12.159  14.202  66.521  1.00  0.00    -0.481 A  
HETATM   23  C   UNL     1     -10.407  15.751  67.119  1.00  0.00    -0.291 A  
HETATM   24  C   UNL     1     -11.385  14.835  67.500  1.00  0.00    -0.355 A  
HETATM   25  C   UNL     1     -10.231  16.066  65.774  1.00  0.00    -0.401 A  
BRANCH  23  26
HETATM   26  N   UNL     1      -9.594  16.402  68.090  1.00  0.00    -0.224 N  
HETATM   27  H   UNL     1      -9.983  17.104  68.719  1.00  0.00     0.000 HD 
BRANCH  26  28
HETATM   28  S   UNL     1      -7.963  15.969  68.165  1.00  0.00    -0.145 S  
HETATM   29  O   UNL     1      -7.311  16.266  66.912  1.00  0.00    -0.203 OA 
HETATM   30  C   UNL     1      -8.066  14.203  68.373  1.00  0.00    -0.144 C  
HETATM   31  O   UNL     1      -7.478  16.526  69.413  1.00  0.00    -0.223 OA 
ENDBRANCH  26  28
ENDBRANCH  23  26
ENDBRANCH  19  20
ENDBRANCH  18  19
ENDBRANCH  17  18
ENDBRANCH   2  17
TORSDOF 11
ENDMDL
MODEL       30
REMARK 921   NORMALIZED FREE ENERGY PREDICTED BY IDOCK:   -5.53 KCAL/MOL
REMARK 922        TOTAL FREE ENERGY PREDICTED BY IDOCK:  -10.66 KCAL/MOL
REMARK 923 INTER-LIGAND FREE ENERGY PREDICTED BY IDOCK:   -9.26 KCAL/MOL
REMARK 924 INTRA-LIGAND FREE ENERGY PREDICTED BY IDOCK:   -1.39 KCAL/MOL
REMARK 927      BINDING AFFINITY PREDICTED BY RF-SCORE:    0.00 PKD
ROOT
HETATM    1  C   UNL     1     -10.562  16.908  67.680  1.00  0.00    -0.325 C  
HETATM    2  N   UNL     1     -11.028  15.644  68.261  1.00  0.00    -0.300 NA 
ENDROOT
BRANCH   2   3
HETATM    3  C   UNL     1     -11.767  14.832  67.270  1.00  0.00    -0.347 C  
BRANCH   3   4
HETATM    4  C   UNL     1     -11.063  14.613  65.911  1.00  0.00    -0.338 C  
BRANCH   4   5
HETATM    5  C   UNL     1     -10.695  13.173  65.633  1.00  0.00    -0.294 A  
HETATM    6  C   UNL     1      -9.930  10.531  65.098  1.00  0.00    -0.309 A  
HETATM    7  C   UNL     1     -10.744  12.668  64.325  1.00  0.00    -0.409 A  
HETATM    8  C   UNL     1     -10.294  12.324  66.672  1.00  0.00    -0.237 A  
HETATM    9  C   UNL     1     -10.364  11.350  64.057  1.00  0.00    -0.418 A  
HETATM   10  C   UNL     1      -9.914  11.007  66.405  1.00  0.00    -0.264 A  
BRANCH   6  11
HETATM   11  N   UNL     1      -9.528   9.188  64.845  1.00  0.00    -0.433 N  
HETATM   12  H   UNL     1     -10.035   8.400  65.248  1.00  0.00     0.000 HD 
BRANCH  11  13
HETATM   13  S   UNL     1      -8.181   8.949  63.854  1.00  0.00    -0.159 S  
HETATM   14  O   UNL     1      -7.185   9.891  64.324  1.00  0.00    -0.125 OA 
HETATM   15  O   UNL     1      -8.578   8.914  62.464  1.00  0.00    -0.212 OA 
HETATM   16  C   UNL     1      -7.658   7.324  64.356  1.00  0.00    -0.111 C  
ENDBRANCH  11  13
ENDBRANCH   6  11
ENDBRANCH   4   5
ENDBRANCH   3   4
ENDBRANCH   2   3
BRANCH   2  17
HETATM   17  C   UNL     1     -11.846  15.938  69.461  1.00  0.00    -0.301 C  
BRANCH  17  18
HETATM   18  C   UNL     1     -11.526  15.063  70.684  1.00  0.00    -0.293 C  
BRANCH  18  19
HETATM   19  O   UNL     1     -12.699  14.334  71.065  1.00  0.00    -0.321 OA 
BRANCH  19  20
HETATM   20  C   UNL     1     -12.614  12.969  70.965  1.00  0.00    -0.299 A  
HETATM   21  C   UNL     1     -11.955  12.271  69.948  1.00  0.00    -0.377 A  
HETATM   22  C   UNL     1     -13.250  12.253  71.981  1.00  0.00    -0.508 A  
HETATM   23  C   UNL     1     -12.625  10.170  70.934  1.00  0.00    -0.360 A  
HETATM   24  C   UNL     1     -13.254  10.854  71.972  1.00  0.00    -0.456 A  
HETATM   25  C   UNL     1     -11.961  10.875  69.935  1.00  0.00    -0.430 A  
BRANCH  23  26
HETATM   26  N   UNL     1     -12.624   8.746  70.889  1.00  0.00    -0.494 N  
HETATM   27  H   UNL     1     -13.477   8.224  70.690  1.00  0.00     0.000 HD 
BRANCH  26  28
HETATM   28  S   UNL     1     -11.161   7.953  71.178  1.00  0.00    -0.265 S  
HETATM   29  O   UNL     1     -10.495   7.666  69.930  1.00  0.00    -0.220 OA 
HETATM   30  C   UNL     1     -11.716   6.429  71.916  1.00  0.00    -0.328 C  
HETATM   31  O   UNL     1     -10.508   8.726  72.217  1.00  0.00    -0.329 OA 
ENDBRANCH  26  28
ENDBRANCH  23  26
ENDBRANCH  19  20
ENDBRANCH  18  19
ENDBRANCH  17  18
ENDBRANCH   2  17
TORSDOF 11
ENDMDL
MODEL       31
REMARK 921   NORMALIZED FREE ENERGY PREDICTED BY IDOCK:   -5.51 KCAL/MOL
REMARK 922        TOTAL FREE ENERGY PREDICTED BY IDOCK:  -10.62 KCAL/MOL
REMARK 923 INTER-LIGAND FREE ENERGY PREDICTED BY IDOCK:   -9.51 KCAL/MOL
REMARK 924 INTRA-LIGAND FREE ENERGY PREDICTED BY IDOCK:   -1.12 KCAL/MOL
REMARK 927      BINDING AFFINITY PREDICTED BY RF-SCORE:    0.00 PKD
ROOT
HETATM    1  C   UNL     1     -11.267   7.051  69.905  1.00  0.00    -0.246 C  
HETATM    2  N   UNL     1     -10.194   7.669  70.691  1.00  0.00    -0.198 NA 
ENDROOT
BRANCH   2   3
HETATM    3  C   UNL     1     -10.734   8.587  71.717  1.00  0.00    -0.303 C  
BRANCH   3   4
HETATM    4  C   UNL     1     -12.174   9.096  71.483  1.00  0.00    -0.422 C  
BRANCH   4   5
HETATM    5  C   UNL     1     -12.252  10.529  71.007  1.00  0.00    -0.505 A  
HETATM    6  C   UNL     1     -12.469  13.164  70.078  1.00  0.00    -0.076 A  
HETATM    7  C   UNL     1     -11.694  10.899  69.774  1.00  0.00    -0.413 A  
HETATM    8  C   UNL     1     -12.887  11.507  71.784  1.00  0.00    -0.441 A  
HETATM    9  C   UNL     1     -11.801  12.213  69.311  1.00  0.00    -0.370 A  
HETATM   10  C   UNL     1     -12.994  12.821  71.321  1.00  0.00    -0.310 A  
BRANCH   6  11
HETATM   11  N   UNL     1     -12.599  14.506  69.620  1.00  0.00    -0.565 N  
HETATM   12  H   UNL     1     -13.383  14.790  69.032  1.00  0.00     0.000 HD 
BRANCH  11  13
HETATM   13  S   UNL     1     -11.408  15.610  70.084  1.00  0.00    -0.380 S  
HETATM   14  O   UNL     1     -11.498  16.697  69.130  1.00  0.00    -0.165 OA 
HETATM   15  O   UNL     1     -10.156  14.929  70.324  1.00  0.00     0.055 OA 
HETATM   16  C   UNL     1     -12.059  16.203  71.631  1.00  0.00    -0.418 C  
ENDBRANCH  11  13
ENDBRANCH   6  11
ENDBRANCH   4   5
ENDBRANCH   3   4
ENDBRANCH   2   3
BRANCH   2  17
HETATM   17  C   UNL     1      -9.254   8.350  69.772  1.00  0.00    -0.157 C  
BRANCH  17  18
HETATM   18  C   UNL     1      -9.785   8.549  68.343  1.00  0.00    -0.155 C  
BRANCH  18  19
HETATM   19  O   UNL     1      -8.797   9.229  67.559  1.00  0.00    -0.119 OA 
BRANCH  19  20
HETATM   20  C   UNL     1      -9.267  10.214  66.728  1.00  0.00    -0.151 A  
HETATM   21  C   UNL     1      -9.965  10.002  65.536  1.00  0.00    -0.367 A  
HETATM   22  C   UNL     1      -9.006  11.522  67.143  1.00  0.00    -0.166 A  
HETATM   23  C   UNL     1     -10.076  12.386  65.159  1.00  0.00    -0.256 A  
HETATM   24  C   UNL     1      -9.412  12.611  66.363  1.00  0.00    -0.231 A  
HETATM   25  C   UNL     1     -10.369  11.087  64.755  1.00  0.00    -0.389 A  
BRANCH  23  26
HETATM   26  N   UNL     1     -10.490  13.472  64.337  1.00  0.00    -0.558 N  
HETATM   27  H   UNL     1      -9.819  13.993  63.772  1.00  0.00     0.000 HD 
BRANCH  26  28
HETATM   28  S   UNL     1     -12.131  13.870  64.330  1.00  0.00    -0.399 S  
HETATM   29  O   UNL     1     -12.316  15.218  63.848  1.00  0.00    -0.655 OA 
HETATM   30  C   UNL     1     -12.527  13.805  66.066  1.00  0.00    -0.445 C  
HETATM   31  O   UNL     1     -12.793  12.749  63.692  1.00  0.00    -0.701 OA 
ENDBRANCH  26  28
ENDBRANCH  23  26
ENDBRANCH  19  20
ENDBRANCH  18  19
ENDBRANCH  17  18
ENDBRANCH   2  17
TORSDOF 11
ENDMDL
MODEL       32
REMARK 921   NORMALIZED FREE ENERGY PREDICTED BY IDOCK:   -5.51 KCAL/MOL
REMARK 922        TOTAL FREE ENERGY PREDICTED BY IDOCK:  -10.62 KCAL/MOL
REMARK 923 INTER-LIGAND FREE ENERGY PREDICTED BY IDOCK:   -9.14 KCAL/MOL
REMARK 924 INTRA-LIGAND FREE ENERGY PREDICTED BY IDOCK:   -1.48 KCAL/MOL
REMARK 927      BINDING AFFINITY PREDICTED BY RF-SCORE:    0.00 PKD
ROOT
HETATM    1  C   UNL     1     -14.343   8.569  71.807  1.00  0.00    -0.437 C  
HETATM    2  N   UNL     1     -12.924   8.307  72.070  1.00  0.00    -0.334 NA 
ENDROOT
BRANCH   2   3
HETATM    3  C   UNL     1     -12.065   9.385  71.535  1.00  0.00    -0.379 C  
BRANCH   3   4
HETATM    4  C   UNL     1     -12.719  10.781  71.422  1.00  0.00    -0.544 C  
BRANCH   4   5
HETATM    5  C   UNL     1     -12.154  11.638  70.311  1.00  0.00    -0.443 A  
HETATM    6  C   UNL     1     -11.185  13.221  68.211  1.00  0.00    -0.277 A  
HETATM    7  C   UNL     1     -11.597  11.044  69.169  1.00  0.00    -0.389 A  
HETATM    8  C   UNL     1     -12.183  13.036  70.401  1.00  0.00    -0.386 A  
HETATM    9  C   UNL     1     -11.112  11.832  68.122  1.00  0.00    -0.297 A  
HETATM   10  C   UNL     1     -11.699  13.824  69.355  1.00  0.00    -0.379 A  
BRANCH   6  11
HETATM   11  N   UNL     1     -10.707  14.042  67.151  1.00  0.00    -0.282 N  
HETATM   12  H   UNL     1      -9.929  14.688  67.291  1.00  0.00     0.000 HD 
BRANCH  11  13
HETATM   13  S   UNL     1     -11.474  13.909  65.652  1.00  0.00    -0.327 S  
HETATM   14  O   UNL     1     -12.893  13.937  65.942  1.00  0.00    -0.472 OA 
HETATM   15  O   UNL     1     -10.892  12.834  64.881  1.00  0.00    -0.280 OA 
HETATM   16  C   UNL     1     -11.052  15.466  64.900  1.00  0.00    -0.423 C  
ENDBRANCH  11  13
ENDBRANCH   6  11
ENDBRANCH   4   5
ENDBRANCH   3   4
ENDBRANCH   2   3
BRANCH   2  17
HETATM   17  C   UNL     1     -12.568   6.981  71.512  1.00  0.00    -0.385 C  
BRANCH  17  18
HETATM   18  C   UNL     1     -11.071   6.641  71.576  1.00  0.00    -0.256 C  
BRANCH  18  19
HETATM   19  O   UNL     1     -10.719   5.835  70.444  1.00  0.00    -0.273 OA 
BRANCH  19  20
HETATM   20  C   UNL     1     -10.560   6.506  69.259  1.00  0.00    -0.247 A  
HETATM   21  C   UNL     1     -11.092   6.113  68.028  1.00  0.00    -0.316 A  
HETATM   22  C   UNL     1      -9.796   7.673  69.330  1.00  0.00    -0.168 A  
HETATM   23  C   UNL     1     -10.047   8.007  66.952  1.00  0.00    -0.292 A  
HETATM   24  C   UNL     1      -9.541   8.429  68.180  1.00  0.00    -0.158 A  
HETATM   25  C   UNL     1     -10.837   6.863  66.879  1.00  0.00    -0.380 A  
BRANCH  23  26
HETATM   26  N   UNL     1      -9.794   8.747  65.762  1.00  0.00    -0.458 N  
HETATM   27  H   UNL     1     -10.515   9.332  65.341  1.00  0.00     0.000 HD 
BRANCH  26  28
HETATM   28  S   UNL     1      -8.258   8.621  65.072  1.00  0.00    -0.164 S  
HETATM   29  O   UNL     1      -7.598   7.425  65.538  1.00  0.00    -0.084 OA 
HETATM   30  C   UNL     1      -7.438  10.050  65.751  1.00  0.00    -0.121 C  
HETATM   31  O   UNL     1      -8.455   8.866  63.656  1.00  0.00    -0.187 OA 
ENDBRANCH  26  28
ENDBRANCH  23  26
ENDBRANCH  19  20
ENDBRANCH  18  19
ENDBRANCH  17  18
ENDBRANCH   2  17
TORSDOF 11
ENDMDL
MODEL       33
REMARK 921   NORMALIZED FREE ENERGY PREDICTED BY IDOCK:   -5.51 KCAL/MOL
REMARK 922        TOTAL FREE ENERGY PREDICTED BY IDOCK:  -10.61 KCAL/MOL
REMARK 923 INTER-LIGAND FREE ENERGY PREDICTED BY IDOCK:   -8.43 KCAL/MOL
REMARK 924 INTRA-LIGAND FREE ENERGY PREDICTED BY IDOCK:   -2.17 KCAL/MOL
REMARK 927      BINDING AFFINITY PREDICTED BY RF-SCORE:    0.00 PKD
ROOT
HETATM    1  C   UNL     1      -8.112   8.421  63.107  1.00  0.00    -0.159 C  
HETATM    2  N   UNL     1      -7.800   9.853  63.040  1.00  0.00    -0.132 NA 
ENDROOT
BRANCH   2   3
HETATM    3  C   UNL     1      -7.471  10.399  64.374  1.00  0.00    -0.010 C  
BRANCH   3   4
HETATM    4  C   UNL     1      -7.428   9.378  65.534  1.00  0.00    -0.095 C  
BRANCH   4   5
HETATM    5  C   UNL     1      -8.517   9.571  66.565  1.00  0.00    -0.130 A  
HETATM    6  C   UNL     1     -10.498   9.864  68.526  1.00  0.00    -0.205 A  
HETATM    7  C   UNL     1      -9.669   8.771  66.540  1.00  0.00    -0.328 A  
HETATM    8  C   UNL     1      -8.390  10.545  67.565  1.00  0.00    -0.118 A  
HETATM    9  C   UNL     1     -10.658   8.917  67.516  1.00  0.00    -0.307 A  
HETATM   10  C   UNL     1      -9.378  10.691  68.541  1.00  0.00    -0.170 A  
BRANCH   6  11
HETATM   11  N   UNL     1     -11.488  10.021  69.537  1.00  0.00    -0.419 N  
HETATM   12  H   UNL     1     -12.315  10.599  69.381  1.00  0.00     0.000 HD 
BRANCH  11  13
HETATM   13  S   UNL     1     -11.244   9.217  71.002  1.00  0.00    -0.353 S  
HETATM   14  O   UNL     1     -12.290   9.698  71.883  1.00  0.00    -0.375 OA 
HETATM   15  O   UNL     1      -9.854   9.286  71.389  1.00  0.00    -0.295 OA 
HETATM   16  C   UNL     1     -11.649   7.542  70.558  1.00  0.00    -0.200 C  
ENDBRANCH  11  13
ENDBRANCH   6  11
ENDBRANCH   4   5
ENDBRANCH   3   4
ENDBRANCH   2   3
BRANCH   2  17
HETATM   17  C   UNL     1      -8.937  10.565  62.411  1.00  0.00    -0.276 C  
BRANCH  17  18
HETATM   18  C   UNL     1     -10.041  10.999  63.387  1.00  0.00    -0.370 C  
BRANCH  18  19
HETATM   19  O   UNL     1     -10.132  12.429  63.397  1.00  0.00    -0.393 OA 
BRANCH  19  20
HETATM   20  C   UNL     1     -10.707  12.984  64.511  1.00  0.00    -0.385 A  
HETATM   21  C   UNL     1     -10.803  14.352  64.777  1.00  0.00    -0.415 A  
HETATM   22  C   UNL     1     -11.230  12.072  65.432  1.00  0.00    -0.374 A  
HETATM   23  C   UNL     1     -11.874  13.884  66.891  1.00  0.00    -0.423 A  
HETATM   24  C   UNL     1     -11.818  12.519  66.620  1.00  0.00    -0.422 A  
HETATM   25  C   UNL     1     -11.386  14.800  65.964  1.00  0.00    -0.332 A  
BRANCH  23  26
HETATM   26  N   UNL     1     -12.454  14.369  68.098  1.00  0.00    -0.525 N  
HETATM   27  H   UNL     1     -13.352  14.853  68.095  1.00  0.00     0.000 HD 
BRANCH  26  28
HETATM   28  S   UNL     1     -11.604  14.115  69.535  1.00  0.00    -0.310 S  
HETATM   29  O   UNL     1     -11.947  12.830  70.096  1.00  0.00    -0.342 OA 
HETATM   30  C   UNL     1     -12.256  15.406  70.574  1.00  0.00    -0.394 C  
HETATM   31  O   UNL     1     -10.228  14.456  69.229  1.00  0.00    -0.179 OA 
ENDBRANCH  26  28
ENDBRANCH  23  26
ENDBRANCH  19  20
ENDBRANCH  18  19
ENDBRANCH  17  18
ENDBRANCH   2  17
TORSDOF 11
ENDMDL
MODEL       34
REMARK 921   NORMALIZED FREE ENERGY PREDICTED BY IDOCK:   -5.47 KCAL/MOL
REMARK 922        TOTAL FREE ENERGY PREDICTED BY IDOCK:  -10.55 KCAL/MOL
REMARK 923 INTER-LIGAND FREE ENERGY PREDICTED BY IDOCK:   -9.75 KCAL/MOL
REMARK 924 INTRA-LIGAND FREE ENERGY PREDICTED BY IDOCK:   -0.80 KCAL/MOL
REMARK 927      BINDING AFFINITY PREDICTED BY RF-SCORE:    0.00 PKD
ROOT
HETATM    1  C   UNL     1     -11.910  15.653  72.713  1.00  0.00    -0.474 C  
HETATM    2  N   UNL     1     -12.411  14.730  71.690  1.00  0.00    -0.330 NA 
ENDROOT
BRANCH   2   3
HETATM    3  C   UNL     1     -12.592  15.408  70.388  1.00  0.00    -0.389 C  
BRANCH   3   4
HETATM    4  C   UNL     1     -11.729  14.879  69.220  1.00  0.00    -0.344 C  
BRANCH   4   5
HETATM    5  C   UNL     1     -11.025  15.962  68.434  1.00  0.00    -0.331 A  
HETATM    6  C   UNL     1      -9.642  17.934  67.001  1.00  0.00    -0.286 A  
HETATM    7  C   UNL     1     -10.599  17.138  69.069  1.00  0.00    -0.282 A  
HETATM    8  C   UNL     1     -10.781  15.806  67.063  1.00  0.00    -0.306 A  
HETATM    9  C   UNL     1      -9.911  18.122  68.355  1.00  0.00    -0.380 A  
HETATM   10  C   UNL     1     -10.092  16.789  66.349  1.00  0.00    -0.327 A  
BRANCH   6  11
HETATM   11  N   UNL     1      -8.932  18.919  66.258  1.00  0.00    -0.299 N  
HETATM   12  H   UNL     1      -9.425  19.623  65.708  1.00  0.00     0.000 HD 
BRANCH  11  13
HETATM   13  S   UNL     1      -7.244  18.880  66.321  1.00  0.00    -0.261 S  
HETATM   14  O   UNL     1      -6.800  19.393  65.040  1.00  0.00    -0.431 OA 
HETATM   15  O   UNL     1      -6.788  17.599  66.810  1.00  0.00    -0.168 OA 
HETATM   16  C   UNL     1      -6.907  20.130  67.542  1.00  0.00    -0.246 C  
ENDBRANCH  11  13
ENDBRANCH   6  11
ENDBRANCH   4   5
ENDBRANCH   3   4
ENDBRANCH   2   3
BRANCH   2  17
HETATM   17  C   UNL     1     -13.665  14.108  72.174  1.00  0.00    -0.493 C  
BRANCH  17  18
HETATM   18  C   UNL     1     -13.641  12.572  72.226  1.00  0.00    -0.342 C  
BRANCH  18  19
HETATM   19  O   UNL     1     -12.903  12.070  71.106  1.00  0.00    -0.337 OA 
BRANCH  19  20
HETATM   20  C   UNL     1     -12.530  10.753  71.178  1.00  0.00    -0.414 A  
HETATM   21  C   UNL     1     -11.374  10.206  70.613  1.00  0.00    -0.433 A  
HETATM   22  C   UNL     1     -13.403   9.921  71.882  1.00  0.00    -0.524 A  
HETATM   23  C   UNL     1     -12.006   8.012  71.401  1.00  0.00    -0.298 A  
HETATM   24  C   UNL     1     -13.143   8.551  72.000  1.00  0.00    -0.403 A  
HETATM   25  C   UNL     1     -11.114   8.839  70.726  1.00  0.00    -0.306 A  
BRANCH  23  26
HETATM   26  N   UNL     1     -11.721   6.620  71.492  1.00  0.00    -0.305 N  
HETATM   27  H   UNL     1     -12.182   5.945  70.881  1.00  0.00     0.000 HD 
BRANCH  26  28
HETATM   28  S   UNL     1     -10.591   6.124  72.646  1.00  0.00    -0.230 S  
HETATM   29  O   UNL     1      -9.322   5.847  72.014  1.00  0.00    -0.150 OA 
HETATM   30  C   UNL     1     -11.309   4.598  73.222  1.00  0.00    -0.304 C  
HETATM   31  O   UNL     1     -10.698   7.088  73.723  1.00  0.00    -0.360 OA 
ENDBRANCH  26  28
ENDBRANCH  23  26
ENDBRANCH  19  20
ENDBRANCH  18  19
ENDBRANCH  17  18
ENDBRANCH   2  17
TORSDOF 11
ENDMDL
MODEL       35
REMARK 921   NORMALIZED FREE ENERGY PREDICTED BY IDOCK:   -5.43 KCAL/MOL
REMARK 922        TOTAL FREE ENERGY PREDICTED BY IDOCK:  -10.49 KCAL/MOL
REMARK 923 INTER-LIGAND FREE ENERGY PREDICTED BY IDOCK:   -9.15 KCAL/MOL
REMARK 924 INTRA-LIGAND FREE ENERGY PREDICTED BY IDOCK:   -1.34 KCAL/MOL
REMARK 927      BINDING AFFINITY PREDICTED BY RF-SCORE:    0.00 PKD
ROOT
HETATM    1  C   UNL     1     -14.381   8.323  71.824  1.00  0.00    -0.483 C  
HETATM    2  N   UNL     1     -13.141   9.004  72.210  1.00  0.00    -0.425 NA 
ENDROOT
BRANCH   2   3
HETATM    3  C   UNL     1     -12.870  10.170  71.342  1.00  0.00    -0.428 C  
BRANCH   3   4
HETATM    4  C   UNL     1     -12.978  11.558  72.015  1.00  0.00    -0.373 C  
BRANCH   4   5
HETATM    5  C   UNL     1     -12.694  12.717  71.087  1.00  0.00    -0.355 A  
HETATM    6  C   UNL     1     -12.092  14.879  69.408  1.00  0.00    -0.262 A  
HETATM    7  C   UNL     1     -13.030  14.026  71.462  1.00  0.00    -0.427 A  
HETATM    8  C   UNL     1     -12.087  12.504  69.842  1.00  0.00    -0.322 A  
HETATM    9  C   UNL     1     -12.731  15.104  70.625  1.00  0.00    -0.451 A  
HETATM   10  C   UNL     1     -11.787  13.582  69.006  1.00  0.00    -0.385 A  
BRANCH   6  11
HETATM   11  N   UNL     1     -11.768  15.965  68.546  1.00  0.00    -0.399 N  
HETATM   12  H   UNL     1     -12.427  16.293  67.839  1.00  0.00     0.000 HD 
BRANCH  11  13
HETATM   13  S   UNL     1     -10.254  16.690  68.736  1.00  0.00    -0.308 S  
HETATM   14  O   UNL     1      -9.505  15.796  69.595  1.00  0.00    -0.276 OA 
HETATM   15  O   UNL     1     -10.404  18.089  69.066  1.00  0.00    -0.350 OA 
HETATM   16  C   UNL     1      -9.583  16.543  67.095  1.00  0.00    -0.240 C  
ENDBRANCH  11  13
ENDBRANCH   6  11
ENDBRANCH   4   5
ENDBRANCH   3   4
ENDBRANCH   2   3
BRANCH   2  17
HETATM   17  C   UNL     1     -12.029   8.025  72.193  1.00  0.00    -0.348 C  
BRANCH  17  18
HETATM   18  C   UNL     1     -11.913   7.210  70.895  1.00  0.00    -0.334 C  
BRANCH  18  19
HETATM   19  O   UNL     1     -10.568   7.285  70.406  1.00  0.00    -0.217 OA 
BRANCH  19  20
HETATM   20  C   UNL     1     -10.397   7.972  69.231  1.00  0.00    -0.220 A  
HETATM   21  C   UNL     1     -10.628   7.458  67.953  1.00  0.00    -0.255 A  
HETATM   22  C   UNL     1      -9.953   9.289  69.367  1.00  0.00    -0.184 A  
HETATM   23  C   UNL     1      -9.916   9.546  66.968  1.00  0.00    -0.213 A  
HETATM   24  C   UNL     1      -9.716  10.081  68.238  1.00  0.00    -0.155 A  
HETATM   25  C   UNL     1     -10.389   8.245  66.824  1.00  0.00    -0.361 A  
BRANCH  23  26
HETATM   26  N   UNL     1      -9.670  10.322  65.799  1.00  0.00    -0.220 N  
HETATM   27  H   UNL     1      -8.828  10.182  65.240  1.00  0.00     0.000 HD 
BRANCH  26  28
HETATM   28  S   UNL     1     -10.820  11.482  65.371  1.00  0.00    -0.224 S  
HETATM   29  O   UNL     1     -11.106  11.404  63.958  1.00  0.00    -0.374 OA 
HETATM   30  C   UNL     1      -9.950  12.999  65.714  1.00  0.00    -0.254 C  
HETATM   31  O   UNL     1     -11.875  11.355  66.357  1.00  0.00    -0.304 OA 
ENDBRANCH  26  28
ENDBRANCH  23  26
ENDBRANCH  19  20
ENDBRANCH  18  19
ENDBRANCH  17  18
ENDBRANCH   2  17
TORSDOF 11
ENDMDL
MODEL       36
REMARK 921   NORMALIZED FREE ENERGY PREDICTED BY IDOCK:   -5.41 KCAL/MOL
REMARK 922        TOTAL FREE ENERGY PREDICTED BY IDOCK:  -10.45 KCAL/MOL
REMARK 923 INTER-LIGAND FREE ENERGY PREDICTED BY IDOCK:   -9.78 KCAL/MOL
REMARK 924 INTRA-LIGAND FREE ENERGY PREDICTED BY IDOCK:   -0.67 KCAL/MOL
REMARK 927      BINDING AFFINITY PREDICTED BY RF-SCORE:    0.00 PKD
ROOT
HETATM    1  C   UNL     1     -12.093  12.321  63.441  1.00  0.00    -0.516 C  
HETATM    2  N   UNL     1     -11.577  12.927  64.673  1.00  0.00    -0.330 NA 
ENDROOT
BRANCH   2   3
HETATM    3  C   UNL     1     -12.093  12.236  65.874  1.00  0.00    -0.186 C  
BRANCH   3   4
HETATM    4  C   UNL     1     -11.494  12.686  67.226  1.00  0.00    -0.402 C  
BRANCH   4   5
HETATM    5  C   UNL     1     -11.260  11.556  68.203  1.00  0.00    -0.335 A  
HETATM    6  C   UNL     1     -10.906   9.429  69.993  1.00  0.00    -0.241 A  
HETATM    7  C   UNL     1     -11.738  11.644  69.519  1.00  0.00    -0.410 A  
HETATM    8  C   UNL     1     -10.570  10.402  67.810  1.00  0.00    -0.294 A  
HETATM    9  C   UNL     1     -11.561  10.585  70.413  1.00  0.00    -0.430 A  
HETATM   10  C   UNL     1     -10.393   9.342  68.702  1.00  0.00    -0.227 A  
BRANCH   6  11
HETATM   11  N   UNL     1     -10.725   8.333  70.884  1.00  0.00    -0.214 N  
HETATM   12  H   UNL     1      -9.880   8.245  71.449  1.00  0.00     0.000 HD 
BRANCH  11  13
HETATM   13  S   UNL     1     -11.961   7.184  70.972  1.00  0.00    -0.343 S  
HETATM   14  O   UNL     1     -11.764   6.318  69.827  1.00  0.00    -0.403 OA 
HETATM   15  O   UNL     1     -13.232   7.829  71.210  1.00  0.00    -0.285 OA 
HETATM   16  C   UNL     1     -11.488   6.267  72.422  1.00  0.00    -0.293 C  
ENDBRANCH  11  13
ENDBRANCH   6  11
ENDBRANCH   4   5
ENDBRANCH   3   4
ENDBRANCH   2   3
BRANCH   2  17
HETATM   17  C   UNL     1     -11.908  14.371  64.674  1.00  0.00    -0.451 C  
BRANCH  17  18
HETATM   18  C   UNL     1     -10.696  15.306  64.809  1.00  0.00    -0.317 C  
BRANCH  18  19
HETATM   19  O   UNL     1     -11.152  16.659  64.939  1.00  0.00    -0.557 OA 
BRANCH  19  20
HETATM   20  C   UNL     1     -10.501  17.421  65.874  1.00  0.00    -0.252 A  
HETATM   21  C   UNL     1     -10.572  18.813  65.975  1.00  0.00    -0.442 A  
HETATM   22  C   UNL     1      -9.713  16.711  66.783  1.00  0.00    -0.271 A  
HETATM   23  C   UNL     1      -9.030  18.773  67.835  1.00  0.00    -0.295 A  
HETATM   24  C   UNL     1      -8.980  17.383  67.767  1.00  0.00    -0.236 A  
HETATM   25  C   UNL     1      -9.838  19.486  66.954  1.00  0.00    -0.476 A  
BRANCH  23  26
HETATM   26  N   UNL     1      -8.285  19.487  68.816  1.00  0.00    -0.347 N  
HETATM   27  H   UNL     1      -8.670  19.667  69.743  1.00  0.00     0.000 HD 
BRANCH  26  28
HETATM   28  S   UNL     1      -6.740  20.023  68.393  1.00  0.00    -0.300 S  
HETATM   29  O   UNL     1      -6.013  18.970  67.724  1.00  0.00    -0.197 OA 
HETATM   30  C   UNL     1      -6.010  20.322  69.990  1.00  0.00    -0.354 C  
HETATM   31  O   UNL     1      -6.944  21.312  67.760  1.00  0.00    -0.374 OA 
ENDBRANCH  26  28
ENDBRANCH  23  26
ENDBRANCH  19  20
ENDBRANCH  18  19
ENDBRANCH  17  18
ENDBRANCH   2  17
TORSDOF 11
ENDMDL
MODEL       37
REMARK 921   NORMALIZED FREE ENERGY PREDICTED BY IDOCK:   -5.40 KCAL/MOL
REMARK 922        TOTAL FREE ENERGY PREDICTED BY IDOCK:  -10.43 KCAL/MOL
REMARK 923 INTER-LIGAND FREE ENERGY PREDICTED BY IDOCK:   -9.09 KCAL/MOL
REMARK 924 INTRA-LIGAND FREE ENERGY PREDICTED BY IDOCK:   -1.34 KCAL/MOL
REMARK 927      BINDING AFFINITY PREDICTED BY RF-SCORE:    0.00 PKD
ROOT
HETATM    1  C   UNL     1     -12.493  15.819  73.530  1.00  0.00    -0.552 C  
HETATM    2  N   UNL     1     -12.277  15.024  72.317  1.00  0.00    -0.347 NA 
ENDROOT
BRANCH   2   3
HETATM    3  C   UNL     1     -11.917  15.880  71.165  1.00  0.00    -0.427 C  
BRANCH   3   4
HETATM    4  C   UNL     1     -12.460  15.430  69.789  1.00  0.00    -0.219 C  
BRANCH   4   5
HETATM    5  C   UNL     1     -11.431  14.752  68.913  1.00  0.00    -0.321 A  
HETATM    6  C   UNL     1      -9.505  13.441  67.355  1.00  0.00    -0.222 A  
HETATM    7  C   UNL     1     -10.085  15.145  68.964  1.00  0.00    -0.244 A  
HETATM    8  C   UNL     1     -11.802  13.719  68.042  1.00  0.00    -0.408 A  
HETATM    9  C   UNL     1      -9.124  14.493  68.187  1.00  0.00    -0.191 A  
HETATM   10  C   UNL     1     -10.842  13.066  67.266  1.00  0.00    -0.270 A  
BRANCH   6  11
HETATM   11  N   UNL     1      -8.540  12.756  66.564  1.00  0.00    -0.427 N  
HETATM   12  H   UNL     1      -8.164  13.171  65.711  1.00  0.00     0.000 HD 
BRANCH  11  13
HETATM   13  S   UNL     1      -8.039  11.230  67.088  1.00  0.00    -0.157 S  
HETATM   14  O   UNL     1      -8.601  10.293  66.136  1.00  0.00    -0.133 OA 
HETATM   15  O   UNL     1      -8.273  11.083  68.507  1.00  0.00    -0.131 OA 
HETATM   16  C   UNL     1      -6.287  11.311  66.788  1.00  0.00    -0.139 C  
ENDBRANCH  11  13
ENDBRANCH   6  11
ENDBRANCH   4   5
ENDBRANCH   3   4
ENDBRANCH   2   3
BRANCH   2  17
HETATM   17  C   UNL     1     -13.487  14.212  72.051  1.00  0.00    -0.431 C  
BRANCH  17  18
HETATM   18  C   UNL     1     -13.303  12.701  72.263  1.00  0.00    -0.422 C  
BRANCH  18  19
HETATM   19  O   UNL     1     -12.776  12.114  71.066  1.00  0.00    -0.328 OA 
BRANCH  19  20
HETATM   20  C   UNL     1     -12.460  10.782  71.142  1.00  0.00    -0.414 A  
HETATM   21  C   UNL     1     -11.371  10.172  70.515  1.00  0.00    -0.416 A  
HETATM   22  C   UNL     1     -13.323  10.006  71.919  1.00  0.00    -0.516 A  
HETATM   23  C   UNL     1     -12.049   8.025  71.390  1.00  0.00    -0.305 A  
HETATM   24  C   UNL     1     -13.118   8.628  72.050  1.00  0.00    -0.417 A  
HETATM   25  C   UNL     1     -11.166   8.796  70.641  1.00  0.00    -0.294 A  
BRANCH  23  26
HETATM   26  N   UNL     1     -11.823   6.622  71.493  1.00  0.00    -0.322 N  
HETATM   27  H   UNL     1     -12.359   5.959  70.934  1.00  0.00     0.000 HD 
BRANCH  26  28
HETATM   28  S   UNL     1     -10.634   6.096  72.571  1.00  0.00    -0.225 S  
HETATM   29  O   UNL     1      -9.421   5.775  71.857  1.00  0.00    -0.151 OA 
HETATM   30  C   UNL     1     -11.360   4.597  73.205  1.00  0.00    -0.304 C  
HETATM   31  O   UNL     1     -10.637   7.068  73.646  1.00  0.00    -0.357 OA 
ENDBRANCH  26  28
ENDBRANCH  23  26
ENDBRANCH  19  20
ENDBRANCH  18  19
ENDBRANCH  17  18
ENDBRANCH   2  17
TORSDOF 11
ENDMDL
MODEL       38
REMARK 921   NORMALIZED FREE ENERGY PREDICTED BY IDOCK:   -5.39 KCAL/MOL
REMARK 922        TOTAL FREE ENERGY PREDICTED BY IDOCK:  -10.42 KCAL/MOL
REMARK 923 INTER-LIGAND FREE ENERGY PREDICTED BY IDOCK:   -8.57 KCAL/MOL
REMARK 924 INTRA-LIGAND FREE ENERGY PREDICTED BY IDOCK:   -1.85 KCAL/MOL
REMARK 927      BINDING AFFINITY PREDICTED BY RF-SCORE:    0.00 PKD
ROOT
HETATM    1  C   UNL     1      -9.462  10.094  62.434  1.00  0.00    -0.210 C  
HETATM    2  N   UNL     1      -9.837  10.586  63.764  1.00  0.00    -0.318 NA 
ENDROOT
BRANCH   2   3
HETATM    3  C   UNL     1     -10.777  11.725  63.676  1.00  0.00    -0.440 C  
BRANCH   3   4
HETATM    4  C   UNL     1     -11.597  12.029  64.950  1.00  0.00    -0.332 C  
BRANCH   4   5
HETATM    5  C   UNL     1     -11.227  13.330  65.625  1.00  0.00    -0.304 A  
HETATM    6  C   UNL     1     -10.506  15.696  66.943  1.00  0.00    -0.307 A  
HETATM    7  C   UNL     1     -12.081  13.904  66.579  1.00  0.00    -0.484 A  
HETATM    8  C   UNL     1     -10.024  13.980  65.315  1.00  0.00    -0.283 A  
HETATM    9  C   UNL     1     -11.723  15.084  67.235  1.00  0.00    -0.238 A  
HETATM   10  C   UNL     1      -9.666  15.159  65.971  1.00  0.00    -0.361 A  
BRANCH   6  11
HETATM   11  N   UNL     1     -10.116  16.893  67.609  1.00  0.00    -0.269 N  
HETATM   12  H   UNL     1      -9.759  16.875  68.564  1.00  0.00     0.000 HD 
BRANCH  11  13
HETATM   13  S   UNL     1     -10.268  18.346  66.759  1.00  0.00    -0.407 S  
HETATM   14  O   UNL     1     -10.911  19.263  67.678  1.00  0.00    -0.458 OA 
HETATM   15  O   UNL     1     -10.813  18.104  65.442  1.00  0.00    -0.556 OA 
HETATM   16  C   UNL     1      -8.567  18.846  66.608  1.00  0.00    -0.307 C  
ENDBRANCH  11  13
ENDBRANCH   6  11
ENDBRANCH   4   5
ENDBRANCH   3   4
ENDBRANCH   2   3
BRANCH   2  17
HETATM   17  C   UNL     1      -8.608  10.935  64.513  1.00  0.00     0.034 C  
BRANCH  17  18
HETATM   18  C   UNL     1      -8.085   9.825  65.439  1.00  0.00    -0.127 C  
BRANCH  18  19
HETATM   19  O   UNL     1      -7.915  10.351  66.761  1.00  0.00    -0.112 OA 
BRANCH  19  20
HETATM   20  C   UNL     1      -9.060  10.484  67.504  1.00  0.00    -0.138 A  
HETATM   21  C   UNL     1      -9.419  11.614  68.244  1.00  0.00    -0.191 A  
HETATM   22  C   UNL     1      -9.913   9.377  67.493  1.00  0.00    -0.250 A  
HETATM   23  C   UNL     1     -11.427  10.503  68.998  1.00  0.00    -0.237 A  
HETATM   24  C   UNL     1     -11.099   9.384  68.235  1.00  0.00     0.005 A  
HETATM   25  C   UNL     1     -10.600  11.622  68.988  1.00  0.00    -0.188 A  
BRANCH  23  26
HETATM   26  N   UNL     1     -12.620  10.535  69.775  1.00  0.00    -0.532 N  
HETATM   27  H   UNL     1     -13.511  10.812  69.363  1.00  0.00     0.000 HD 
BRANCH  26  28
HETATM   28  S   UNL     1     -12.509  10.099  71.403  1.00  0.00    -0.451 S  
HETATM   29  O   UNL     1     -11.199   9.564  71.688  1.00  0.00    -0.378 OA 
HETATM   30  C   UNL     1     -13.716   8.793  71.511  1.00  0.00    -0.338 C  
HETATM   31  O   UNL     1     -13.032  11.234  72.138  1.00  0.00    -0.393 OA 
ENDBRANCH  26  28
ENDBRANCH  23  26
ENDBRANCH  19  20
ENDBRANCH  18  19
ENDBRANCH  17  18
ENDBRANCH   2  17
TORSDOF 11
ENDMDL
MODEL       39
REMARK 921   NORMALIZED FREE ENERGY PREDICTED BY IDOCK:   -5.36 KCAL/MOL
REMARK 922        TOTAL FREE ENERGY PREDICTED BY IDOCK:  -10.37 KCAL/MOL
REMARK 923 INTER-LIGAND FREE ENERGY PREDICTED BY IDOCK:   -9.78 KCAL/MOL
REMARK 924 INTRA-LIGAND FREE ENERGY PREDICTED BY IDOCK:   -0.59 KCAL/MOL
REMARK 927      BINDING AFFINITY PREDICTED BY RF-SCORE:    0.00 PKD
ROOT
HETATM    1  C   UNL     1     -10.812  11.103  66.732  1.00  0.00    -0.268 C  
HETATM    2  N   UNL     1     -11.995  11.969  66.706  1.00  0.00    -0.610 NA 
ENDROOT
BRANCH   2   3
HETATM    3  C   UNL     1     -12.106  12.698  65.424  1.00  0.00    -0.462 C  
BRANCH   3   4
HETATM    4  C   UNL     1     -10.782  13.222  64.824  1.00  0.00    -0.393 C  
BRANCH   4   5
HETATM    5  C   UNL     1     -10.344  14.561  65.374  1.00  0.00    -0.405 A  
HETATM    6  C   UNL     1      -9.599  17.039  66.450  1.00  0.00    -0.282 A  
HETATM    7  C   UNL     1     -10.931  15.747  64.907  1.00  0.00    -0.443 A  
HETATM    8  C   UNL     1      -9.352  14.639  66.360  1.00  0.00    -0.313 A  
HETATM    9  C   UNL     1     -10.559  16.983  65.442  1.00  0.00    -0.147 A  
HETATM   10  C   UNL     1      -8.980  15.875  66.896  1.00  0.00    -0.257 A  
BRANCH   6  11
HETATM   11  N   UNL     1      -9.214  18.287  67.017  1.00  0.00    -0.268 N  
HETATM   12  H   UNL     1      -9.879  18.858  67.540  1.00  0.00     0.000 HD 
BRANCH  11  13
HETATM   13  S   UNL     1      -7.616  18.789  66.793  1.00  0.00    -0.239 S  
HETATM   14  O   UNL     1      -7.334  18.559  65.390  1.00  0.00    -0.516 OA 
HETATM   15  O   UNL     1      -6.766  18.239  67.824  1.00  0.00    -0.200 OA 
HETATM   16  C   UNL     1      -7.762  20.547  67.028  1.00  0.00    -0.297 C  
ENDBRANCH  11  13
ENDBRANCH   6  11
ENDBRANCH   4   5
ENDBRANCH   3   4
ENDBRANCH   2   3
BRANCH   2  17
HETATM   17  C   UNL     1     -11.945  12.888  67.867  1.00  0.00    -0.282 C  
BRANCH  17  18
HETATM   18  C   UNL     1     -11.507  12.231  69.186  1.00  0.00    -0.296 C  
BRANCH  18  19
HETATM   19  O   UNL     1     -12.658  11.714  69.864  1.00  0.00    -0.093 OA 
BRANCH  19  20
HETATM   20  C   UNL     1     -12.440  10.620  70.663  1.00  0.00    -0.371 A  
HETATM   21  C   UNL     1     -13.401   9.999  71.465  1.00  0.00    -0.451 A  
HETATM   22  C   UNL     1     -11.137  10.116  70.645  1.00  0.00    -0.397 A  
HETATM   23  C   UNL     1     -11.745   8.431  72.263  1.00  0.00    -0.385 A  
HETATM   24  C   UNL     1     -10.787   9.019  71.440  1.00  0.00    -0.400 A  
HETATM   25  C   UNL     1     -13.053   8.906  72.261  1.00  0.00    -0.491 A  
BRANCH  23  26
HETATM   26  N   UNL     1     -11.416   7.322  73.093  1.00  0.00    -0.580 N  
HETATM   27  H   UNL     1     -11.288   7.435  74.099  1.00  0.00     0.000 HD 
BRANCH  26  28
HETATM   28  S   UNL     1     -11.245   5.812  72.356  1.00  0.00    -0.286 S  
HETATM   29  O   UNL     1     -11.853   4.787  73.171  1.00  0.00    -0.257 OA 
HETATM   30  C   UNL     1      -9.476   5.603  72.366  1.00  0.00    -0.143 C  
HETATM   31  O   UNL     1     -11.650   6.013  70.978  1.00  0.00    -0.253 OA 
ENDBRANCH  26  28
ENDBRANCH  23  26
ENDBRANCH  19  20
ENDBRANCH  18  19
ENDBRANCH  17  18
ENDBRANCH   2  17
TORSDOF 11
ENDMDL
MODEL       40
REMARK 921   NORMALIZED FREE ENERGY PREDICTED BY IDOCK:   -5.36 KCAL/MOL
REMARK 922        TOTAL FREE ENERGY PREDICTED BY IDOCK:  -10.36 KCAL/MOL
REMARK 923 INTER-LIGAND FREE ENERGY PREDICTED BY IDOCK:   -9.03 KCAL/MOL
REMARK 924 INTRA-LIGAND FREE ENERGY PREDICTED BY IDOCK:   -1.33 KCAL/MOL
REMARK 927      BINDING AFFINITY PREDICTED BY RF-SCORE:    0.00 PKD
ROOT
HETATM    1  C   UNL     1     -14.212   8.520  71.815  1.00  0.00    -0.446 C  
HETATM    2  N   UNL     1     -13.073   9.351  72.220  1.00  0.00    -0.428 NA 
ENDROOT
BRANCH   2   3
HETATM    3  C   UNL     1     -12.887  10.499  71.307  1.00  0.00    -0.431 C  
BRANCH   3   4
HETATM    4  C   UNL     1     -13.078  11.901  71.931  1.00  0.00    -0.474 C  
BRANCH   4   5
HETATM    5  C   UNL     1     -12.636  13.038  71.037  1.00  0.00    -0.386 A  
HETATM    6  C   UNL     1     -11.894  15.138  69.336  1.00  0.00    -0.330 A  
HETATM    7  C   UNL     1     -11.990  12.775  69.819  1.00  0.00    -0.362 A  
HETATM    8  C   UNL     1     -12.870  14.370  71.406  1.00  0.00    -0.410 A  
HETATM    9  C   UNL     1     -11.619  13.821  68.971  1.00  0.00    -0.356 A  
HETATM   10  C   UNL     1     -12.499  15.415  70.558  1.00  0.00    -0.468 A  
BRANCH   6  11
HETATM   11  N   UNL     1     -11.534  16.218  68.481  1.00  0.00    -0.340 N  
HETATM   12  H   UNL     1     -12.244  16.788  68.022  1.00  0.00     0.000 HD 
BRANCH  11  13
HETATM   13  S   UNL     1      -9.887  16.520  68.254  1.00  0.00    -0.251 S  
HETATM   14  O   UNL     1      -9.601  16.096  66.898  1.00  0.00    -0.221 OA 
HETATM   15  O   UNL     1      -9.123  16.014  69.371  1.00  0.00    -0.251 OA 
HETATM   16  C   UNL     1      -9.849  18.300  68.275  1.00  0.00    -0.350 C  
ENDBRANCH  11  13
ENDBRANCH   6  11
ENDBRANCH   4   5
ENDBRANCH   3   4
ENDBRANCH   2   3
BRANCH   2  17
HETATM   17  C   UNL     1     -11.862   8.502  72.302  1.00  0.00    -0.383 C  
BRANCH  17  18
HETATM   18  C   UNL     1     -10.689   8.972  71.426  1.00  0.00    -0.331 C  
BRANCH  18  19
HETATM   19  O   UNL     1     -10.321   7.923  70.523  1.00  0.00    -0.201 OA 
BRANCH  19  20
HETATM   20  C   UNL     1     -10.256   8.270  69.198  1.00  0.00    -0.218 A  
HETATM   21  C   UNL     1     -10.212   7.373  68.127  1.00  0.00    -0.223 A  
HETATM   22  C   UNL     1     -10.233   9.642  68.939  1.00  0.00    -0.214 A  
HETATM   23  C   UNL     1     -10.061   9.214  66.570  1.00  0.00    -0.287 A  
HETATM   24  C   UNL     1     -10.140  10.118  67.627  1.00  0.00    -0.231 A  
HETATM   25  C   UNL     1     -10.116   7.845  66.817  1.00  0.00    -0.352 A  
BRANCH  23  26
HETATM   26  N   UNL     1      -9.952   9.667  65.224  1.00  0.00    -0.405 N  
HETATM   27  H   UNL     1     -10.769   9.996  64.710  1.00  0.00     0.000 HD 
BRANCH  26  28
HETATM   28  S   UNL     1      -8.422   9.642  64.509  1.00  0.00    -0.193 S  
HETATM   29  O   UNL     1      -7.449  10.238  65.392  1.00  0.00    -0.140 OA 
HETATM   30  C   UNL     1      -8.666  10.701  63.097  1.00  0.00    -0.190 C  
HETATM   31  O   UNL     1      -8.256   8.289  64.013  1.00  0.00    -0.157 OA 
ENDBRANCH  26  28
ENDBRANCH  23  26
ENDBRANCH  19  20
ENDBRANCH  18  19
ENDBRANCH  17  18
ENDBRANCH   2  17
TORSDOF 11
ENDMDL
MODEL       41
REMARK 921   NORMALIZED FREE ENERGY PREDICTED BY IDOCK:   -5.34 KCAL/MOL
REMARK 922        TOTAL FREE ENERGY PREDICTED BY IDOCK:  -10.34 KCAL/MOL
REMARK 923 INTER-LIGAND FREE ENERGY PREDICTED BY IDOCK:   -8.99 KCAL/MOL
REMARK 924 INTRA-LIGAND FREE ENERGY PREDICTED BY IDOCK:   -1.34 KCAL/MOL
REMARK 927      BINDING AFFINITY PREDICTED BY RF-SCORE:    0.00 PKD
ROOT
HETATM    1  C   UNL     1     -11.130   7.929  72.750  1.00  0.00    -0.400 C  
HETATM    2  N   UNL     1     -12.520   7.625  72.399  1.00  0.00    -0.143 NA 
ENDROOT
BRANCH   2   3
HETATM    3  C   UNL     1     -12.609   6.908  71.108  1.00  0.00    -0.314 C  
BRANCH   3   4
HETATM    4  C   UNL     1     -11.284   6.333  70.558  1.00  0.00    -0.420 C  
BRANCH   4   5
HETATM    5  C   UNL     1     -10.844   6.945  69.247  1.00  0.00    -0.270 A  
HETATM    6  C   UNL     1     -10.111   8.106  66.804  1.00  0.00    -0.295 A  
HETATM    7  C   UNL     1     -10.991   6.234  68.047  1.00  0.00    -0.418 A  
HETATM    8  C   UNL     1     -10.289   8.231  69.208  1.00  0.00    -0.223 A  
HETATM    9  C   UNL     1     -10.625   6.811  66.829  1.00  0.00    -0.311 A  
HETATM   10  C   UNL     1      -9.924   8.809  67.991  1.00  0.00    -0.220 A  
BRANCH   6  11
HETATM   11  N   UNL     1      -9.742   8.718  65.573  1.00  0.00    -0.431 N  
HETATM   12  H   UNL     1     -10.448   9.023  64.901  1.00  0.00     0.000 HD 
BRANCH  11  13
HETATM   13  S   UNL     1      -8.094   8.922  65.263  1.00  0.00    -0.134 S  
HETATM   14  O   UNL     1      -7.458   7.719  65.762  1.00  0.00    -0.074 OA 
HETATM   15  O   UNL     1      -7.658  10.230  65.694  1.00  0.00    -0.137 OA 
HETATM   16  C   UNL     1      -8.057   8.846  63.485  1.00  0.00    -0.168 C  
ENDBRANCH  11  13
ENDBRANCH   6  11
ENDBRANCH   4   5
ENDBRANCH   3   4
ENDBRANCH   2   3
BRANCH   2  17
HETATM   17  C   UNL     1     -13.303   8.883  72.393  1.00  0.00    -0.440 C  
BRANCH  17  18
HETATM   18  C   UNL     1     -13.157   9.722  71.114  1.00  0.00    -0.346 C  
BRANCH  18  19
HETATM   19  O   UNL     1     -12.299  10.840  71.374  1.00  0.00    -0.358 OA 
BRANCH  19  20
HETATM   20  C   UNL     1     -12.205  11.768  70.370  1.00  0.00    -0.330 A  
HETATM   21  C   UNL     1     -11.988  11.482  69.019  1.00  0.00    -0.377 A  
HETATM   22  C   UNL     1     -12.343  13.100  70.770  1.00  0.00    -0.404 A  
HETATM   23  C   UNL     1     -11.986  13.841  68.501  1.00  0.00    -0.367 A  
HETATM   24  C   UNL     1     -12.239  14.138  69.839  1.00  0.00    -0.416 A  
HETATM   25  C   UNL     1     -11.880  12.516  68.088  1.00  0.00    -0.371 A  
BRANCH  23  26
HETATM   26  N   UNL     1     -11.861  14.877  67.532  1.00  0.00    -0.432 N  
HETATM   27  H   UNL     1     -12.593  15.045  66.841  1.00  0.00     0.000 HD 
BRANCH  26  28
HETATM   28  S   UNL     1     -10.459  15.817  67.564  1.00  0.00    -0.293 S  
HETATM   29  O   UNL     1     -10.694  17.038  68.299  1.00  0.00    -0.358 OA 
HETATM   30  C   UNL     1     -10.241  16.201  65.838  1.00  0.00    -0.360 C  
HETATM   31  O   UNL     1      -9.397  14.906  67.944  1.00  0.00    -0.187 OA 
ENDBRANCH  26  28
ENDBRANCH  23  26
ENDBRANCH  19  20
ENDBRANCH  18  19
ENDBRANCH  17  18
ENDBRANCH   2  17
TORSDOF 11
ENDMDL
MODEL       42
REMARK 921   NORMALIZED FREE ENERGY PREDICTED BY IDOCK:   -5.32 KCAL/MOL
REMARK 922        TOTAL FREE ENERGY PREDICTED BY IDOCK:  -10.30 KCAL/MOL
REMARK 923 INTER-LIGAND FREE ENERGY PREDICTED BY IDOCK:   -9.32 KCAL/MOL
REMARK 924 INTRA-LIGAND FREE ENERGY PREDICTED BY IDOCK:   -0.98 KCAL/MOL
REMARK 927      BINDING AFFINITY PREDICTED BY RF-SCORE:    0.00 PKD
ROOT
HETATM    1  C   UNL     1     -13.896   8.760  72.305  1.00  0.00    -0.447 C  
HETATM    2  N   UNL     1     -12.819   8.337  71.404  1.00  0.00    -0.284 NA 
ENDROOT
BRANCH   2   3
HETATM    3  C   UNL     1     -12.802   6.868  71.231  1.00  0.00    -0.278 C  
BRANCH   3   4
HETATM    4  C   UNL     1     -11.408   6.200  71.236  1.00  0.00    -0.335 C  
BRANCH   4   5
HETATM    5  C   UNL     1     -10.834   5.962  69.857  1.00  0.00    -0.439 A  
HETATM    6  C   UNL     1      -9.705   5.576  67.321  1.00  0.00    -0.139 A  
HETATM    7  C   UNL     1     -11.124   6.845  68.805  1.00  0.00    -0.163 A  
HETATM    8  C   UNL     1     -10.001   4.863  69.609  1.00  0.00    -0.302 A  
HETATM    9  C   UNL     1     -10.562   6.652  67.541  1.00  0.00    -0.347 A  
HETATM   10  C   UNL     1      -9.439   4.671  68.345  1.00  0.00    -0.201 A  
BRANCH   6  11
HETATM   11  N   UNL     1      -9.113   5.368  66.043  1.00  0.00    -0.152 N  
HETATM   12  H   UNL     1      -8.348   5.958  65.712  1.00  0.00     0.000 HD 
BRANCH  11  13
HETATM   13  S   UNL     1      -9.722   4.110  65.094  1.00  0.00    -0.205 S  
HETATM   14  O   UNL     1     -11.142   4.369  64.978  1.00  0.00    -0.236 OA 
HETATM   15  O   UNL     1      -9.232   2.837  65.572  1.00  0.00    -0.151 OA 
HETATM   16  C   UNL     1      -8.983   4.469  63.516  1.00  0.00    -0.130 C  
ENDBRANCH  11  13
ENDBRANCH   6  11
ENDBRANCH   4   5
ENDBRANCH   3   4
ENDBRANCH   2   3
BRANCH   2  17
HETATM   17  C   UNL     1     -11.529   8.853  71.919  1.00  0.00    -0.372 C  
BRANCH  17  18
HETATM   18  C   UNL     1     -10.805   9.826  70.975  1.00  0.00    -0.308 C  
BRANCH  18  19
HETATM   19  O   UNL     1     -11.657  10.945  70.701  1.00  0.00    -0.328 OA 
BRANCH  19  20
HETATM   20  C   UNL     1     -11.497  11.531  69.472  1.00  0.00    -0.311 A  
HETATM   21  C   UNL     1     -11.034  10.887  68.322  1.00  0.00    -0.293 A  
HETATM   22  C   UNL     1     -11.837  12.885  69.406  1.00  0.00    -0.371 A  
HETATM   23  C   UNL     1     -11.193  12.954  67.081  1.00  0.00    -0.289 A  
HETATM   24  C   UNL     1     -11.691  13.598  68.211  1.00  0.00    -0.398 A  
HETATM   25  C   UNL     1     -10.883  11.598  67.129  1.00  0.00    -0.306 A  
BRANCH  23  26
HETATM   26  N   UNL     1     -11.020  13.656  65.854  1.00  0.00    -0.281 N  
HETATM   27  H   UNL     1     -10.236  14.294  65.717  1.00  0.00     0.000 HD 
BRANCH  26  28
HETATM   28  S   UNL     1     -12.158  13.396  64.633  1.00  0.00    -0.423 S  
HETATM   29  O   UNL     1     -13.252  12.598  65.134  1.00  0.00    -0.646 OA 
HETATM   30  C   UNL     1     -11.218  12.440  63.460  1.00  0.00    -0.469 C  
HETATM   31  O   UNL     1     -12.389  14.700  64.044  1.00  0.00    -0.712 OA 
ENDBRANCH  26  28
ENDBRANCH  23  26
ENDBRANCH  19  20
ENDBRANCH  18  19
ENDBRANCH  17  18
ENDBRANCH   2  17
TORSDOF 11
ENDMDL
MODEL       43
REMARK 921   NORMALIZED FREE ENERGY PREDICTED BY IDOCK:   -5.32 KCAL/MOL
REMARK 922        TOTAL FREE ENERGY PREDICTED BY IDOCK:  -10.30 KCAL/MOL
REMARK 923 INTER-LIGAND FREE ENERGY PREDICTED BY IDOCK:   -9.73 KCAL/MOL
REMARK 924 INTRA-LIGAND FREE ENERGY PREDICTED BY IDOCK:   -0.57 KCAL/MOL
REMARK 927      BINDING AFFINITY PREDICTED BY RF-SCORE:    0.00 PKD
ROOT
HETATM    1  C   UNL     1     -12.660  12.185  63.823  1.00  0.00    -0.475 C  
HETATM    2  N   UNL     1     -12.182  12.406  65.192  1.00  0.00    -0.521 NA 
ENDROOT
BRANCH   2   3
HETATM    3  C   UNL     1     -12.469  13.783  65.650  1.00  0.00    -0.503 C  
BRANCH   3   4
HETATM    4  C   UNL     1     -12.096  14.101  67.116  1.00  0.00    -0.432 C  
BRANCH   4   5
HETATM    5  C   UNL     1     -11.114  15.241  67.268  1.00  0.00    -0.325 A  
HETATM    6  C   UNL     1      -9.241  17.300  67.598  1.00  0.00    -0.229 A  
HETATM    7  C   UNL     1     -11.150  16.063  68.405  1.00  0.00    -0.351 A  
HETATM    8  C   UNL     1     -10.150  15.491  66.283  1.00  0.00    -0.312 A  
HETATM    9  C   UNL     1     -10.218  17.090  68.569  1.00  0.00    -0.324 A  
HETATM   10  C   UNL     1      -9.218  16.518  66.447  1.00  0.00    -0.327 A  
BRANCH   6  11
HETATM   11  N   UNL     1      -8.275  18.334  67.751  1.00  0.00    -0.244 N  
HETATM   12  H   UNL     1      -7.663  18.369  68.567  1.00  0.00     0.000 HD 
BRANCH  11  13
HETATM   13  S   UNL     1      -8.177  19.501  66.533  1.00  0.00    -0.332 S  
HETATM   14  O   UNL     1      -9.538  19.955  66.325  1.00  0.00    -0.390 OA 
HETATM   15  O   UNL     1      -7.377  19.014  65.432  1.00  0.00    -0.470 OA 
HETATM   16  C   UNL     1      -7.300  20.807  67.364  1.00  0.00    -0.339 C  
ENDBRANCH  11  13
ENDBRANCH   6  11
ENDBRANCH   4   5
ENDBRANCH   3   4
ENDBRANCH   2   3
BRANCH   2  17
HETATM   17  C   UNL     1     -10.737  12.087  65.255  1.00  0.00    -0.288 C  
BRANCH  17  18
HETATM   18  C   UNL     1     -10.365  11.002  66.278  1.00  0.00    -0.251 C  
BRANCH  18  19
HETATM   19  O   UNL     1     -10.059  11.618  67.535  1.00  0.00    -0.188 OA 
BRANCH  19  20
HETATM   20  C   UNL     1     -10.287  10.851  68.648  1.00  0.00    -0.191 A  
HETATM   21  C   UNL     1      -9.329  10.078  69.309  1.00  0.00    -0.224 A  
HETATM   22  C   UNL     1     -11.599  10.871  69.130  1.00  0.00    -0.389 A  
HETATM   23  C   UNL     1     -11.003   9.311  70.873  1.00  0.00    -0.299 A  
HETATM   24  C   UNL     1     -11.959  10.106  70.245  1.00  0.00    -0.315 A  
HETATM   25  C   UNL     1      -9.687   9.311  70.420  1.00  0.00    -0.293 A  
BRANCH  23  26
HETATM   26  N   UNL     1     -11.342   8.511  72.002  1.00  0.00    -0.330 N  
HETATM   27  H   UNL     1     -11.176   8.842  72.952  1.00  0.00     0.000 HD 
BRANCH  26  28
HETATM   28  S   UNL     1     -12.030   6.996  71.712  1.00  0.00    -0.343 S  
HETATM   29  O   UNL     1     -11.550   6.037  72.679  1.00  0.00    -0.279 OA 
HETATM   30  C   UNL     1     -11.366   6.599  70.107  1.00  0.00    -0.382 C  
HETATM   31  O   UNL     1     -13.448   7.247  71.545  1.00  0.00    -0.385 OA 
ENDBRANCH  26  28
ENDBRANCH  23  26
ENDBRANCH  19  20
ENDBRANCH  18  19
ENDBRANCH  17  18
ENDBRANCH   2  17
TORSDOF 11
ENDMDL
MODEL       44
REMARK 921   NORMALIZED FREE ENERGY PREDICTED BY IDOCK:   -5.31 KCAL/MOL
REMARK 922        TOTAL FREE ENERGY PREDICTED BY IDOCK:  -10.29 KCAL/MOL
REMARK 923 INTER-LIGAND FREE ENERGY PREDICTED BY IDOCK:   -8.77 KCAL/MOL
REMARK 924 INTRA-LIGAND FREE ENERGY PREDICTED BY IDOCK:   -1.52 KCAL/MOL
REMARK 927      BINDING AFFINITY PREDICTED BY RF-SCORE:    0.00 PKD
ROOT
HETATM    1  C   UNL     1      -8.414  10.994  62.355  1.00  0.00    -0.262 C  
HETATM    2  N   UNL     1      -9.125  10.046  63.218  1.00  0.00    -0.259 NA 
ENDROOT
BRANCH   2   3
HETATM    3  C   UNL     1     -10.176  10.718  64.012  1.00  0.00    -0.322 C  
BRANCH   3   4
HETATM    4  C   UNL     1     -10.450  12.198  63.661  1.00  0.00    -0.495 C  
BRANCH   4   5
HETATM    5  C   UNL     1     -10.890  13.039  64.839  1.00  0.00    -0.343 A  
HETATM    6  C   UNL     1     -11.670  14.537  67.075  1.00  0.00    -0.393 A  
HETATM    7  C   UNL     1     -12.099  12.764  65.495  1.00  0.00    -0.517 A  
HETATM    8  C   UNL     1     -10.097  14.100  65.296  1.00  0.00    -0.364 A  
HETATM    9  C   UNL     1     -12.489  13.511  66.609  1.00  0.00    -0.263 A  
HETATM   10  C   UNL     1     -10.487  14.847  66.410  1.00  0.00    -0.301 A  
BRANCH   6  11
HETATM   11  N   UNL     1     -12.043  15.304  68.215  1.00  0.00    -0.519 N  
HETATM   12  H   UNL     1     -12.618  16.141  68.124  1.00  0.00     0.000 HD 
BRANCH  11  13
HETATM   13  S   UNL     1     -11.499  14.775  69.725  1.00  0.00    -0.306 S  
HETATM   14  O   UNL     1     -10.231  15.445  69.933  1.00  0.00    -0.282 OA 
HETATM   15  O   UNL     1     -11.608  13.338  69.825  1.00  0.00    -0.276 OA 
HETATM   16  C   UNL     1     -12.687  15.532  70.813  1.00  0.00    -0.457 C  
ENDBRANCH  11  13
ENDBRANCH   6  11
ENDBRANCH   4   5
ENDBRANCH   3   4
ENDBRANCH   2   3
BRANCH   2  17
HETATM   17  C   UNL     1      -8.142   9.344  64.076  1.00  0.00    -0.150 C  
BRANCH  17  18
HETATM   18  C   UNL     1      -8.706   8.831  65.410  1.00  0.00    -0.183 C  
BRANCH  18  19
HETATM   19  O   UNL     1      -8.139   9.586  66.488  1.00  0.00    -0.110 OA 
BRANCH  19  20
HETATM   20  C   UNL     1      -8.901   9.673  67.624  1.00  0.00    -0.125 A  
HETATM   21  C   UNL     1      -8.429   9.520  68.930  1.00  0.00    -0.123 A  
HETATM   22  C   UNL     1     -10.257   9.936  67.416  1.00  0.00    -0.275 A  
HETATM   23  C   UNL     1     -10.664   9.831  69.793  1.00  0.00    -0.256 A  
HETATM   24  C   UNL     1     -11.141  10.021  68.497  1.00  0.00    -0.219 A  
HETATM   25  C   UNL     1      -9.309   9.600  70.011  1.00  0.00    -0.276 A  
BRANCH  23  26
HETATM   26  N   UNL     1     -11.541   9.897  70.913  1.00  0.00    -0.343 N  
HETATM   27  H   UNL     1     -11.919  10.787  71.235  1.00  0.00     0.000 HD 
BRANCH  26  28
HETATM   28  S   UNL     1     -11.932   8.449  71.690  1.00  0.00    -0.327 S  
HETATM   29  O   UNL     1     -12.235   7.427  70.716  1.00  0.00    -0.266 OA 
HETATM   30  C   UNL     1     -13.422   8.896  72.558  1.00  0.00    -0.412 C  
HETATM   31  O   UNL     1     -10.893   8.256  72.682  1.00  0.00    -0.345 OA 
ENDBRANCH  26  28
ENDBRANCH  23  26
ENDBRANCH  19  20
ENDBRANCH  18  19
ENDBRANCH  17  18
ENDBRANCH   2  17
TORSDOF 11
ENDMDL
MODEL       45
REMARK 921   NORMALIZED FREE ENERGY PREDICTED BY IDOCK:   -5.31 KCAL/MOL
REMARK 922        TOTAL FREE ENERGY PREDICTED BY IDOCK:  -10.29 KCAL/MOL
REMARK 923 INTER-LIGAND FREE ENERGY PREDICTED BY IDOCK:   -9.71 KCAL/MOL
REMARK 924 INTRA-LIGAND FREE ENERGY PREDICTED BY IDOCK:   -0.58 KCAL/MOL
REMARK 927      BINDING AFFINITY PREDICTED BY RF-SCORE:    0.00 PKD
ROOT
HETATM    1  C   UNL     1     -14.237   8.590  71.657  1.00  0.00    -0.421 C  
HETATM    2  N   UNL     1     -13.047   9.193  72.267  1.00  0.00    -0.425 NA 
ENDROOT
BRANCH   2   3
HETATM    3  C   UNL     1     -12.543  10.329  71.466  1.00  0.00    -0.440 C  
BRANCH   3   4
HETATM    4  C   UNL     1     -11.471   9.989  70.406  1.00  0.00    -0.389 C  
BRANCH   4   5
HETATM    5  C   UNL     1     -11.442  10.941  69.231  1.00  0.00    -0.372 A  
HETATM    6  C   UNL     1     -11.307  12.726  67.075  1.00  0.00    -0.314 A  
HETATM    7  C   UNL     1     -11.755  12.297  69.408  1.00  0.00    -0.392 A  
HETATM    8  C   UNL     1     -11.098  10.487  67.951  1.00  0.00    -0.367 A  
HETATM    9  C   UNL     1     -11.689  13.187  68.333  1.00  0.00    -0.386 A  
HETATM   10  C   UNL     1     -11.031  11.377  66.877  1.00  0.00    -0.355 A  
BRANCH   6  11
HETATM   11  N   UNL     1     -11.222  13.620  65.970  1.00  0.00    -0.294 N  
HETATM   12  H   UNL     1     -10.560  14.396  65.966  1.00  0.00     0.000 HD 
BRANCH  11  13
HETATM   13  S   UNL     1     -12.258  13.348  64.663  1.00  0.00    -0.404 S  
HETATM   14  O   UNL     1     -12.484  14.652  64.074  1.00  0.00    -0.796 OA 
HETATM   15  O   UNL     1     -13.365  12.509  65.064  1.00  0.00    -0.591 OA 
HETATM   16  C   UNL     1     -11.201  12.438  63.558  1.00  0.00    -0.469 C  
ENDBRANCH  11  13
ENDBRANCH   6  11
ENDBRANCH   4   5
ENDBRANCH   3   4
ENDBRANCH   2   3
BRANCH   2  17
HETATM   17  C   UNL     1     -12.019   8.143  72.455  1.00  0.00    -0.350 C  
BRANCH  17  18
HETATM   18  C   UNL     1     -12.397   6.766  71.887  1.00  0.00    -0.326 C  
BRANCH  18  19
HETATM   19  O   UNL     1     -11.211   5.980  71.717  1.00  0.00    -0.268 OA 
BRANCH  19  20
HETATM   20  C   UNL     1     -10.830   5.746  70.420  1.00  0.00    -0.290 A  
HETATM   21  C   UNL     1     -11.243   6.484  69.309  1.00  0.00    -0.390 A  
HETATM   22  C   UNL     1      -9.956   4.671  70.239  1.00  0.00    -0.309 A  
HETATM   23  C   UNL     1      -9.967   5.039  67.853  1.00  0.00    -0.138 A  
HETATM   24  C   UNL     1      -9.518   4.318  68.957  1.00  0.00    -0.242 A  
HETATM   25  C   UNL     1     -10.811   6.132  68.029  1.00  0.00    -0.398 A  
BRANCH  23  26
HETATM   26  N   UNL     1      -9.550   4.696  66.535  1.00  0.00    -0.164 N  
HETATM   27  H   UNL     1     -10.046   3.988  65.993  1.00  0.00     0.000 HD 
BRANCH  26  28
HETATM   28  S   UNL     1      -8.208   5.500  65.901  1.00  0.00    -0.126 S  
HETATM   29  O   UNL     1      -7.571   4.688  64.891  1.00  0.00    -0.075 OA 
HETATM   30  C   UNL     1      -7.145   5.609  67.327  1.00  0.00    -0.074 C  
HETATM   31  O   UNL     1      -8.672   6.841  65.603  1.00  0.00    -0.144 OA 
ENDBRANCH  26  28
ENDBRANCH  23  26
ENDBRANCH  19  20
ENDBRANCH  18  19
ENDBRANCH  17  18
ENDBRANCH   2  17
TORSDOF 11
ENDMDL
MODEL       46
REMARK 921   NORMALIZED FREE ENERGY PREDICTED BY IDOCK:   -5.28 KCAL/MOL
REMARK 922        TOTAL FREE ENERGY PREDICTED BY IDOCK:  -10.23 KCAL/MOL
REMARK 923 INTER-LIGAND FREE ENERGY PREDICTED BY IDOCK:   -9.19 KCAL/MOL
REMARK 924 INTRA-LIGAND FREE ENERGY PREDICTED BY IDOCK:   -1.04 KCAL/MOL
REMARK 927      BINDING AFFINITY PREDICTED BY RF-SCORE:    0.00 PKD
ROOT
HETATM    1  C   UNL     1      -9.609  10.939  62.710  1.00  0.00    -0.308 C  
HETATM    2  N   UNL     1     -10.218  11.740  63.776  1.00  0.00    -0.359 NA 
ENDROOT
BRANCH   2   3
HETATM    3  C   UNL     1     -10.265  10.997  65.054  1.00  0.00    -0.299 C  
BRANCH   3   4
HETATM    4  C   UNL     1      -9.402  11.567  66.203  1.00  0.00    -0.230 C  
BRANCH   4   5
HETATM    5  C   UNL     1      -9.777  11.046  67.572  1.00  0.00    -0.190 A  
HETATM    6  C   UNL     1     -10.483  10.000  70.074  1.00  0.00    -0.287 A  
HETATM    7  C   UNL     1     -11.123  10.971  67.960  1.00  0.00    -0.343 A  
HETATM    8  C   UNL     1      -8.789  10.624  68.472  1.00  0.00    -0.148 A  
HETATM    9  C   UNL     1     -11.476  10.451  69.207  1.00  0.00    -0.281 A  
HETATM   10  C   UNL     1      -9.141  10.103  69.719  1.00  0.00    -0.166 A  
BRANCH   6  11
HETATM   11  N   UNL     1     -10.822   9.456  71.346  1.00  0.00    -0.359 N  
HETATM   12  H   UNL     1     -11.553   9.874  71.922  1.00  0.00     0.000 HD 
BRANCH  11  13
HETATM   13  S   UNL     1      -9.970   8.092  71.865  1.00  0.00    -0.236 S  
HETATM   14  O   UNL     1      -8.899   8.602  72.697  1.00  0.00    -0.371 OA 
HETATM   15  O   UNL     1      -9.695   7.215  70.750  1.00  0.00    -0.172 OA 
HETATM   16  C   UNL     1     -11.160   7.321  72.940  1.00  0.00    -0.325 C  
ENDBRANCH  11  13
ENDBRANCH   6  11
ENDBRANCH   4   5
ENDBRANCH   3   4
ENDBRANCH   2   3
BRANCH   2  17
HETATM   17  C   UNL     1     -11.564  12.181  63.339  1.00  0.00    -0.420 C  
BRANCH  17  18
HETATM   18  C   UNL     1     -12.609  12.259  64.462  1.00  0.00    -0.327 C  
BRANCH  18  19
HETATM   19  O   UNL     1     -12.991  13.626  64.662  1.00  0.00    -0.661 OA 
BRANCH  19  20
HETATM   20  C   UNL     1     -12.056  14.425  65.269  1.00  0.00    -0.380 A  
HETATM   21  C   UNL     1     -11.271  15.384  64.625  1.00  0.00    -0.374 A  
HETATM   22  C   UNL     1     -11.908  14.234  66.644  1.00  0.00    -0.442 A  
HETATM   23  C   UNL     1     -10.163  15.900  66.709  1.00  0.00    -0.282 A  
HETATM   24  C   UNL     1     -10.966  14.973  67.369  1.00  0.00    -0.315 A  
HETATM   25  C   UNL     1     -10.327  16.120  65.344  1.00  0.00    -0.356 A  
BRANCH  23  26
HETATM   26  N   UNL     1      -9.186  16.657  67.416  1.00  0.00    -0.212 N  
HETATM   27  H   UNL     1      -8.191  16.447  67.330  1.00  0.00     0.000 HD 
BRANCH  26  28
HETATM   28  S   UNL     1      -9.730  17.916  68.402  1.00  0.00    -0.356 S  
HETATM   29  O   UNL     1     -10.552  17.393  69.468  1.00  0.00    -0.218 OA 
HETATM   30  C   UNL     1     -10.748  18.845  67.273  1.00  0.00    -0.449 C  
HETATM   31  O   UNL     1      -8.554  18.715  68.685  1.00  0.00    -0.328 OA 
ENDBRANCH  26  28
ENDBRANCH  23  26
ENDBRANCH  19  20
ENDBRANCH  18  19
ENDBRANCH  17  18
ENDBRANCH   2  17
TORSDOF 11
ENDMDL
MODEL       47
REMARK 921   NORMALIZED FREE ENERGY PREDICTED BY IDOCK:   -5.27 KCAL/MOL
REMARK 922        TOTAL FREE ENERGY PREDICTED BY IDOCK:  -10.22 KCAL/MOL
REMARK 923 INTER-LIGAND FREE ENERGY PREDICTED BY IDOCK:   -9.71 KCAL/MOL
REMARK 924 INTRA-LIGAND FREE ENERGY PREDICTED BY IDOCK:   -0.51 KCAL/MOL
REMARK 927      BINDING AFFINITY PREDICTED BY RF-SCORE:    0.00 PKD
ROOT
HETATM    1  C   UNL     1      -9.031  11.141  67.413  1.00  0.00    -0.139 C  
HETATM    2  N   UNL     1     -10.350  11.761  67.251  1.00  0.00    -0.203 NA 
ENDROOT
BRANCH   2   3
HETATM    3  C   UNL     1     -11.405  10.978  67.930  1.00  0.00    -0.311 C  
BRANCH   3   4
HETATM    4  C   UNL     1     -11.735  11.398  69.380  1.00  0.00    -0.406 C  
BRANCH   4   5
HETATM    5  C   UNL     1     -11.601  10.281  70.391  1.00  0.00    -0.411 A  
HETATM    6  C   UNL     1     -11.330   8.271  72.325  1.00  0.00    -0.378 A  
HETATM    7  C   UNL     1     -10.349   9.703  70.648  1.00  0.00    -0.365 A  
HETATM    8  C   UNL     1     -12.720   9.811  71.090  1.00  0.00    -0.433 A  
HETATM    9  C   UNL     1     -10.213   8.700  71.611  1.00  0.00    -0.366 A  
HETATM   10  C   UNL     1     -12.585   8.809  72.054  1.00  0.00    -0.447 A  
BRANCH   6  11
HETATM   11  N   UNL     1     -11.212   7.259  73.319  1.00  0.00    -0.587 N  
HETATM   12  H   UNL     1     -11.742   7.308  74.190  1.00  0.00     0.000 HD 
BRANCH  11  13
HETATM   13  S   UNL     1     -10.162   5.973  73.005  1.00  0.00    -0.204 S  
HETATM   14  O   UNL     1      -8.912   6.333  73.641  1.00  0.00    -0.124 OA 
HETATM   15  O   UNL     1     -10.211   5.613  71.606  1.00  0.00    -0.194 OA 
HETATM   16  C   UNL     1     -10.898   4.672  73.971  1.00  0.00    -0.263 C  
ENDBRANCH  11  13
ENDBRANCH   6  11
ENDBRANCH   4   5
ENDBRANCH   3   4
ENDBRANCH   2   3
BRANCH   2  17
HETATM   17  C   UNL     1     -10.627  11.933  65.805  1.00  0.00    -0.267 C  
BRANCH  17  18
HETATM   18  C   UNL     1     -12.024  12.485  65.481  1.00  0.00    -0.442 C  
BRANCH  18  19
HETATM   19  O   UNL     1     -11.905  13.832  65.008  1.00  0.00    -0.337 OA 
BRANCH  19  20
HETATM   20  C   UNL     1     -11.340  14.725  65.882  1.00  0.00    -0.331 A  
HETATM   21  C   UNL     1     -11.703  14.887  67.221  1.00  0.00    -0.308 A  
HETATM   22  C   UNL     1     -10.321  15.520  65.350  1.00  0.00    -0.422 A  
HETATM   23  C   UNL     1     -10.083  16.664  67.462  1.00  0.00    -0.273 A  
HETATM   24  C   UNL     1      -9.687  16.487  66.138  1.00  0.00    -0.344 A  
HETATM   25  C   UNL     1     -11.074  15.854  68.009  1.00  0.00    -0.334 A  
BRANCH  23  26
HETATM   26  N   UNL     1      -9.467  17.649  68.286  1.00  0.00    -0.285 N  
HETATM   27  H   UNL     1      -8.725  17.401  68.940  1.00  0.00     0.000 HD 
BRANCH  26  28
HETATM   28  S   UNL     1     -10.008  19.242  68.142  1.00  0.00    -0.416 S  
HETATM   29  O   UNL     1     -11.158  19.301  67.271  1.00  0.00    -0.442 OA 
HETATM   30  C   UNL     1      -8.621  20.024  67.343  1.00  0.00    -0.341 C  
HETATM   31  O   UNL     1     -10.069  19.748  69.499  1.00  0.00    -0.338 OA 
ENDBRANCH  26  28
ENDBRANCH  23  26
ENDBRANCH  19  20
ENDBRANCH  18  19
ENDBRANCH  17  18
ENDBRANCH   2  17
TORSDOF 11
ENDMDL
MODEL       48
REMARK 921   NORMALIZED FREE ENERGY PREDICTED BY IDOCK:   -5.26 KCAL/MOL
REMARK 922        TOTAL FREE ENERGY PREDICTED BY IDOCK:  -10.21 KCAL/MOL
REMARK 923 INTER-LIGAND FREE ENERGY PREDICTED BY IDOCK:   -8.50 KCAL/MOL
REMARK 924 INTRA-LIGAND FREE ENERGY PREDICTED BY IDOCK:   -1.71 KCAL/MOL
REMARK 927      BINDING AFFINITY PREDICTED BY RF-SCORE:    0.00 PKD
ROOT
HETATM    1  C   UNL     1     -10.685  19.693  65.766  1.00  0.00    -0.392 C  
HETATM    2  N   UNL     1      -9.724  19.404  66.835  1.00  0.00    -0.325 NA 
ENDROOT
BRANCH   2   3
HETATM    3  C   UNL     1     -10.372  18.728  67.979  1.00  0.00    -0.387 C  
BRANCH   3   4
HETATM    4  C   UNL     1      -9.681  17.443  68.489  1.00  0.00    -0.304 C  
BRANCH   4   5
HETATM    5  C   UNL     1     -10.178  16.174  67.833  1.00  0.00    -0.261 A  
HETATM    6  C   UNL     1     -11.148  13.873  66.562  1.00  0.00    -0.308 A  
HETATM    7  C   UNL     1     -11.389  15.592  68.239  1.00  0.00    -0.357 A  
HETATM    8  C   UNL     1      -9.444  15.564  66.808  1.00  0.00    -0.257 A  
HETATM    9  C   UNL     1     -11.872  14.444  67.606  1.00  0.00    -0.412 A  
HETATM   10  C   UNL     1      -9.927  14.417  66.175  1.00  0.00    -0.328 A  
BRANCH   6  11
HETATM   11  N   UNL     1     -11.628  12.709  65.897  1.00  0.00    -0.374 N  
HETATM   12  H   UNL     1     -11.591  11.792  66.342  1.00  0.00     0.000 HD 
BRANCH  11  13
HETATM   13  S   UNL     1     -12.263  12.902  64.343  1.00  0.00    -0.422 S  
HETATM   14  O   UNL     1     -12.438  14.331  64.174  1.00  0.00    -0.675 OA 
HETATM   15  O   UNL     1     -13.359  11.985  64.128  1.00  0.00    -0.725 OA 
HETATM   16  C   UNL     1     -10.881  12.412  63.334  1.00  0.00    -0.367 C  
ENDBRANCH  11  13
ENDBRANCH   6  11
ENDBRANCH   4   5
ENDBRANCH   3   4
ENDBRANCH   2   3
BRANCH   2  17
HETATM   17  C   UNL     1      -9.057  20.664  67.237  1.00  0.00    -0.275 C  
BRANCH  17  18
HETATM   18  C   UNL     1      -7.563  20.741  66.883  1.00  0.00    -0.181 C  
BRANCH  18  19
HETATM   19  O   UNL     1      -6.784  20.466  68.053  1.00  0.00    -0.279 OA 
BRANCH  19  20
HETATM   20  C   UNL     1      -6.387  19.163  68.215  1.00  0.00    -0.229 A  
HETATM   21  C   UNL     1      -6.341  18.199  67.205  1.00  0.00    -0.187 A  
HETATM   22  C   UNL     1      -6.005  18.811  69.512  1.00  0.00    -0.275 A  
HETATM   23  C   UNL     1      -5.599  16.541  68.798  1.00  0.00    -0.122 A  
HETATM   24  C   UNL     1      -5.606  17.503  69.806  1.00  0.00    -0.227 A  
HETATM   25  C   UNL     1      -5.947  16.892  67.496  1.00  0.00    -0.165 A  
BRANCH  23  26
HETATM   26  N   UNL     1      -5.212  15.198  69.069  1.00  0.00    -0.097 N  
HETATM   27  H   UNL     1      -4.344  14.813  68.695  1.00  0.00     0.000 HD 
BRANCH  26  28
HETATM   28  S   UNL     1      -6.239  14.263  70.030  1.00  0.00    -0.153 S  
HETATM   29  O   UNL     1      -5.814  14.315  71.409  1.00  0.00    -0.211 OA 
HETATM   30  C   UNL     1      -5.950  12.628  69.385  1.00  0.00    -0.101 C  
HETATM   31  O   UNL     1      -7.581  14.652  69.644  1.00  0.00    -0.103 OA 
ENDBRANCH  26  28
ENDBRANCH  23  26
ENDBRANCH  19  20
ENDBRANCH  18  19
ENDBRANCH  17  18
ENDBRANCH   2  17
TORSDOF 11
ENDMDL
MODEL       49
REMARK 921   NORMALIZED FREE ENERGY PREDICTED BY IDOCK:   -5.26 KCAL/MOL
REMARK 922        TOTAL FREE ENERGY PREDICTED BY IDOCK:  -10.20 KCAL/MOL
REMARK 923 INTER-LIGAND FREE ENERGY PREDICTED BY IDOCK:   -8.45 KCAL/MOL
REMARK 924 INTRA-LIGAND FREE ENERGY PREDICTED BY IDOCK:   -1.75 KCAL/MOL
REMARK 927      BINDING AFFINITY PREDICTED BY RF-SCORE:    0.00 PKD
ROOT
HETATM    1  C   UNL     1     -13.456  16.063  73.026  1.00  0.00    -0.486 C  
HETATM    2  N   UNL     1     -12.822  14.990  72.253  1.00  0.00    -0.313 NA 
ENDROOT
BRANCH   2   3
HETATM    3  C   UNL     1     -12.540  15.415  70.865  1.00  0.00    -0.438 C  
BRANCH   3   4
HETATM    4  C   UNL     1     -11.051  15.439  70.451  1.00  0.00    -0.351 C  
BRANCH   4   5
HETATM    5  C   UNL     1     -10.799  14.987  69.030  1.00  0.00    -0.242 A  
HETATM    6  C   UNL     1     -10.321  14.235  66.373  1.00  0.00    -0.286 A  
HETATM    7  C   UNL     1     -11.846  14.963  68.096  1.00  0.00    -0.307 A  
HETATM    8  C   UNL     1      -9.518  14.593  68.622  1.00  0.00    -0.211 A  
HETATM    9  C   UNL     1     -11.608  14.587  66.772  1.00  0.00    -0.388 A  
HETATM   10  C   UNL     1      -9.280  14.218  67.298  1.00  0.00    -0.218 A  
BRANCH   6  11
HETATM   11  N   UNL     1     -10.055  13.860  65.026  1.00  0.00    -0.579 N  
HETATM   12  H   UNL     1      -9.480  14.443  64.418  1.00  0.00     0.000 HD 
BRANCH  11  13
HETATM   13  S   UNL     1     -10.727  12.412  64.470  1.00  0.00    -0.346 S  
HETATM   14  O   UNL     1     -11.595  12.788  63.372  1.00  0.00    -0.499 OA 
HETATM   15  O   UNL     1     -11.222  11.629  65.579  1.00  0.00    -0.285 OA 
HETATM   16  C   UNL     1      -9.301  11.607  63.772  1.00  0.00    -0.003 C  
ENDBRANCH  11  13
ENDBRANCH   6  11
ENDBRANCH   4   5
ENDBRANCH   3   4
ENDBRANCH   2   3
BRANCH   2  17
HETATM   17  C   UNL     1     -13.684  13.786  72.304  1.00  0.00    -0.575 C  
BRANCH  17  18
HETATM   18  C   UNL     1     -12.924  12.451  72.253  1.00  0.00    -0.075 C  
BRANCH  18  19
HETATM   19  O   UNL     1     -13.243  11.770  71.033  1.00  0.00    -0.075 OA 
BRANCH  19  20
HETATM   20  C   UNL     1     -12.195  11.148  70.404  1.00  0.00    -0.369 A  
HETATM   21  C   UNL     1     -11.486  11.659  69.314  1.00  0.00    -0.364 A  
HETATM   22  C   UNL     1     -11.838   9.902  70.926  1.00  0.00    -0.443 A  
HETATM   23  C   UNL     1     -10.126   9.664  69.242  1.00  0.00    -0.193 A  
HETATM   24  C   UNL     1     -10.801   9.160  70.351  1.00  0.00    -0.285 A  
HETATM   25  C   UNL     1     -10.453  10.919  68.736  1.00  0.00    -0.224 A  
BRANCH  23  26
HETATM   26  N   UNL     1      -9.075   8.926  68.625  1.00  0.00    -0.137 N  
HETATM   27  H   UNL     1      -8.144   8.887  69.040  1.00  0.00     0.000 HD 
BRANCH  26  28
HETATM   28  S   UNL     1      -9.424   8.118  67.184  1.00  0.00    -0.174 S  
HETATM   29  O   UNL     1     -10.804   7.694  67.172  1.00  0.00    -0.317 OA 
HETATM   30  C   UNL     1      -8.369   6.688  67.306  1.00  0.00    -0.120 C  
HETATM   31  O   UNL     1      -8.890   8.963  66.134  1.00  0.00    -0.142 OA 
ENDBRANCH  26  28
ENDBRANCH  23  26
ENDBRANCH  19  20
ENDBRANCH  18  19
ENDBRANCH  17  18
ENDBRANCH   2  17
TORSDOF 11
ENDMDL
MODEL       50
REMARK 921   NORMALIZED FREE ENERGY PREDICTED BY IDOCK:   -5.23 KCAL/MOL
REMARK 922        TOTAL FREE ENERGY PREDICTED BY IDOCK:  -10.16 KCAL/MOL
REMARK 923 INTER-LIGAND FREE ENERGY PREDICTED BY IDOCK:   -9.33 KCAL/MOL
REMARK 924 INTRA-LIGAND FREE ENERGY PREDICTED BY IDOCK:   -0.83 KCAL/MOL
REMARK 927      BINDING AFFINITY PREDICTED BY RF-SCORE:    0.00 PKD
ROOT
HETATM    1  C   UNL     1     -11.018  11.694  64.419  1.00  0.00    -0.337 C  
HETATM    2  N   UNL     1     -11.656  12.201  65.639  1.00  0.00    -0.368 NA 
ENDROOT
BRANCH   2   3
HETATM    3  C   UNL     1     -11.912  13.655  65.552  1.00  0.00    -0.384 C  
BRANCH   3   4
HETATM    4  C   UNL     1     -11.973  14.415  66.896  1.00  0.00    -0.425 C  
BRANCH   4   5
HETATM    5  C   UNL     1     -10.870  15.434  67.078  1.00  0.00    -0.320 A  
HETATM    6  C   UNL     1      -8.868  17.375  67.358  1.00  0.00    -0.227 A  
HETATM    7  C   UNL     1      -9.783  15.470  66.192  1.00  0.00    -0.348 A  
HETATM    8  C   UNL     1     -10.919  16.361  68.128  1.00  0.00    -0.339 A  
HETATM    9  C   UNL     1      -8.784  16.436  66.332  1.00  0.00    -0.355 A  
HETATM   10  C   UNL     1      -9.921  17.328  68.267  1.00  0.00    -0.313 A  
BRANCH   6  11
HETATM   11  N   UNL     1      -7.867  18.376  67.510  1.00  0.00    -0.230 N  
HETATM   12  H   UNL     1      -7.214  18.355  68.295  1.00  0.00     0.000 HD 
BRANCH  11  13
HETATM   13  S   UNL     1      -7.798  19.598  66.346  1.00  0.00    -0.321 S  
HETATM   14  O   UNL     1      -9.175  19.975  66.102  1.00  0.00    -0.375 OA 
HETATM   15  O   UNL     1      -6.927  19.209  65.259  1.00  0.00    -0.459 OA 
HETATM   16  C   UNL     1      -7.037  20.919  67.264  1.00  0.00    -0.370 C  
ENDBRANCH  11  13
ENDBRANCH   6  11
ENDBRANCH   4   5
ENDBRANCH   3   4
ENDBRANCH   2   3
BRANCH   2  17
HETATM   17  C   UNL     1     -10.811  11.853  66.804  1.00  0.00    -0.266 C  
BRANCH  17  18
HETATM   18  C   UNL     1     -11.382  10.744  67.702  1.00  0.00    -0.252 C  
BRANCH  18  19
HETATM   19  O   UNL     1     -11.507  11.235  69.042  1.00  0.00    -0.244 OA 
BRANCH  19  20
HETATM   20  C   UNL     1     -11.214  10.338  70.037  1.00  0.00    -0.311 A  
HETATM   21  C   UNL     1      -9.954   9.787  70.287  1.00  0.00    -0.309 A  
HETATM   22  C   UNL     1     -12.291   9.969  70.847  1.00  0.00    -0.438 A  
HETATM   23  C   UNL     1     -10.868   8.470  72.094  1.00  0.00    -0.357 A  
HETATM   24  C   UNL     1     -12.122   9.039  71.878  1.00  0.00    -0.448 A  
HETATM   25  C   UNL     1      -9.783   8.857  71.313  1.00  0.00    -0.359 A  
BRANCH  23  26
HETATM   26  N   UNL     1     -10.667   7.511  73.127  1.00  0.00    -0.382 N  
HETATM   27  H   UNL     1     -10.806   7.755  74.108  1.00  0.00     0.000 HD 
BRANCH  26  28
HETATM   28  S   UNL     1     -10.190   5.956  72.672  1.00  0.00    -0.189 S  
HETATM   29  O   UNL     1     -10.771   5.610  71.396  1.00  0.00    -0.247 OA 
HETATM   30  C   UNL     1     -10.936   4.961  73.949  1.00  0.00    -0.234 C  
HETATM   31  O   UNL     1      -8.756   5.921  72.877  1.00  0.00    -0.125 OA 
ENDBRANCH  26  28
ENDBRANCH  23  26
ENDBRANCH  19  20
ENDBRANCH  18  19
ENDBRANCH  17  18
ENDBRANCH   2  17
TORSDOF 11
ENDMDL
MODEL       51
REMARK 921   NORMALIZED FREE ENERGY PREDICTED BY IDOCK:   -5.23 KCAL/MOL
REMARK 922        TOTAL FREE ENERGY PREDICTED BY IDOCK:  -10.15 KCAL/MOL
REMARK 923 INTER-LIGAND FREE ENERGY PREDICTED BY IDOCK:   -8.71 KCAL/MOL
REMARK 924 INTRA-LIGAND FREE ENERGY PREDICTED BY IDOCK:   -1.44 KCAL/MOL
REMARK 927      BINDING AFFINITY PREDICTED BY RF-SCORE:    0.00 PKD
ROOT
HETATM    1  C   UNL     1      -6.561  15.595  67.586  1.00  0.00    -0.172 C  
HETATM    2  N   UNL     1      -7.070  14.855  68.745  1.00  0.00    -0.109 NA 
ENDROOT
BRANCH   2   3
HETATM    3  C   UNL     1      -7.445  13.471  68.383  1.00  0.00    -0.124 C  
BRANCH   3   4
HETATM    4  C   UNL     1      -8.847  13.289  67.757  1.00  0.00    -0.197 C  
BRANCH   4   5
HETATM    5  C   UNL     1      -9.654  12.167  68.369  1.00  0.00    -0.186 A  
HETATM    6  C   UNL     1     -11.209  10.093  69.436  1.00  0.00    -0.215 A  
HETATM    7  C   UNL     1     -10.732  12.450  69.221  1.00  0.00     0.004 A  
HETATM    8  C   UNL     1      -9.345  10.829  68.090  1.00  0.00    -0.155 A  
HETATM    9  C   UNL     1     -11.507  11.417  69.754  1.00  0.00    -0.376 A  
HETATM   10  C   UNL     1     -10.119   9.796  68.623  1.00  0.00    -0.186 A  
BRANCH   6  11
HETATM   11  N   UNL     1     -11.993   9.026  69.960  1.00  0.00    -0.303 N  
HETATM   12  H   UNL     1     -12.576   8.451  69.352  1.00  0.00     0.000 HD 
BRANCH  11  13
HETATM   13  S   UNL     1     -11.921   8.747  71.624  1.00  0.00    -0.357 S  
HETATM   14  O   UNL     1     -13.119   9.354  72.168  1.00  0.00    -0.396 OA 
HETATM   15  O   UNL     1     -10.614   9.089  72.137  1.00  0.00    -0.324 OA 
HETATM   16  C   UNL     1     -12.137   6.982  71.696  1.00  0.00    -0.347 C  
ENDBRANCH  11  13
ENDBRANCH   6  11
ENDBRANCH   4   5
ENDBRANCH   3   4
ENDBRANCH   2   3
BRANCH   2  17
HETATM   17  C   UNL     1      -8.203  15.604  69.336  1.00  0.00    -0.236 C  
BRANCH  17  18
HETATM   18  C   UNL     1      -8.481  16.967  68.683  1.00  0.00    -0.260 C  
BRANCH  18  19
HETATM   19  O   UNL     1      -9.894  17.130  68.506  1.00  0.00    -0.268 OA 
BRANCH  19  20
HETATM   20  C   UNL     1     -10.451  16.431  67.466  1.00  0.00    -0.304 A  
HETATM   21  C   UNL     1     -10.090  16.555  66.122  1.00  0.00    -0.365 A  
HETATM   22  C   UNL     1     -11.459  15.531  67.822  1.00  0.00    -0.247 A  
HETATM   23  C   UNL     1     -11.777  14.940  65.503  1.00  0.00    -0.211 A  
HETATM   24  C   UNL     1     -12.121  14.781  66.844  1.00  0.00    -0.114 A  
HETATM   25  C   UNL     1     -10.751  15.809  65.144  1.00  0.00    -0.455 A  
BRANCH  23  26
HETATM   26  N   UNL     1     -12.442  14.200  64.484  1.00  0.00    -0.655 N  
HETATM   27  H   UNL     1     -13.011  14.668  63.778  1.00  0.00     0.000 HD 
BRANCH  26  28
HETATM   28  S   UNL     1     -12.255  12.522  64.483  1.00  0.00    -0.452 S  
HETATM   29  O   UNL     1     -12.245  12.021  65.837  1.00  0.00    -0.531 OA 
HETATM   30  C   UNL     1     -10.631  12.339  63.774  1.00  0.00    -0.451 C  
HETATM   31  O   UNL     1     -13.212  12.032  63.510  1.00  0.00    -0.724 OA 
ENDBRANCH  26  28
ENDBRANCH  23  26
ENDBRANCH  19  20
ENDBRANCH  18  19
ENDBRANCH  17  18
ENDBRANCH   2  17
TORSDOF 11
ENDMDL
MODEL       52
REMARK 921   NORMALIZED FREE ENERGY PREDICTED BY IDOCK:   -5.22 KCAL/MOL
REMARK 922        TOTAL FREE ENERGY PREDICTED BY IDOCK:  -10.15 KCAL/MOL
REMARK 923 INTER-LIGAND FREE ENERGY PREDICTED BY IDOCK:   -9.00 KCAL/MOL
REMARK 924 INTRA-LIGAND FREE ENERGY PREDICTED BY IDOCK:   -1.15 KCAL/MOL
REMARK 927      BINDING AFFINITY PREDICTED BY RF-SCORE:    0.00 PKD
ROOT
HETATM    1  C   UNL     1     -10.641  19.657  65.854  1.00  0.00    -0.466 C  
HETATM    2  N   UNL     1      -9.668  20.193  66.811  1.00  0.00    -0.421 NA 
ENDROOT
BRANCH   2   3
HETATM    3  C   UNL     1      -8.279  19.956  66.363  1.00  0.00    -0.335 C  
BRANCH   3   4
HETATM    4  C   UNL     1      -7.199  19.960  67.469  1.00  0.00    -0.304 C  
BRANCH   4   5
HETATM    5  C   UNL     1      -6.705  18.583  67.852  1.00  0.00    -0.218 A  
HETATM    6  C   UNL     1      -5.705  16.060  68.552  1.00  0.00    -0.106 A  
HETATM    7  C   UNL     1      -6.392  17.640  66.862  1.00  0.00    -0.206 A  
HETATM    8  C   UNL     1      -6.545  18.229  69.199  1.00  0.00    -0.265 A  
HETATM    9  C   UNL     1      -5.895  16.381  67.210  1.00  0.00    -0.179 A  
HETATM   10  C   UNL     1      -6.048  16.971  69.547  1.00  0.00    -0.233 A  
BRANCH   6  11
HETATM   11  N   UNL     1      -5.189  14.787  68.928  1.00  0.00    -0.087 N  
HETATM   12  H   UNL     1      -4.325  14.705  69.465  1.00  0.00     0.000 HD 
BRANCH  11  13
HETATM   13  S   UNL     1      -6.059  13.419  68.454  1.00  0.00    -0.104 S  
HETATM   14  O   UNL     1      -5.467  13.003  67.199  1.00  0.00    -0.349 OA 
HETATM   15  O   UNL     1      -7.480  13.662  68.564  1.00  0.00    -0.109 OA 
HETATM   16  C   UNL     1      -5.567  12.240  69.693  1.00  0.00    -0.092 C  
ENDBRANCH  11  13
ENDBRANCH   6  11
ENDBRANCH   4   5
ENDBRANCH   3   4
ENDBRANCH   2   3
BRANCH   2  17
HETATM   17  C   UNL     1      -9.932  19.606  68.146  1.00  0.00    -0.437 C  
BRANCH  17  18
HETATM   18  C   UNL     1     -10.775  18.322  68.126  1.00  0.00    -0.199 C  
BRANCH  18  19
HETATM   19  O   UNL     1      -9.912  17.185  68.251  1.00  0.00    -0.270 OA 
BRANCH  19  20
HETATM   20  C   UNL     1     -10.317  16.052  67.592  1.00  0.00    -0.284 A  
HETATM   21  C   UNL     1      -9.642  15.450  66.527  1.00  0.00    -0.298 A  
HETATM   22  C   UNL     1     -11.506  15.483  68.055  1.00  0.00    -0.313 A  
HETATM   23  C   UNL     1     -11.370  13.770  66.360  1.00  0.00    -0.317 A  
HETATM   24  C   UNL     1     -12.033  14.340  67.445  1.00  0.00    -0.426 A  
HETATM   25  C   UNL     1     -10.168  14.311  65.914  1.00  0.00    -0.338 A  
BRANCH  23  26
HETATM   26  N   UNL     1     -11.889  12.615  65.709  1.00  0.00    -0.425 N  
HETATM   27  H   UNL     1     -12.070  11.754  66.225  1.00  0.00     0.000 HD 
BRANCH  26  28
HETATM   28  S   UNL     1     -12.195  12.719  64.051  1.00  0.00    -0.449 S  
HETATM   29  O   UNL     1     -13.161  11.719  63.659  1.00  0.00    -0.595 OA 
HETATM   30  C   UNL     1     -10.605  12.305  63.363  1.00  0.00    -0.385 C  
HETATM   31  O   UNL     1     -12.427  14.127  63.794  1.00  0.00    -0.791 OA 
ENDBRANCH  26  28
ENDBRANCH  23  26
ENDBRANCH  19  20
ENDBRANCH  18  19
ENDBRANCH  17  18
ENDBRANCH   2  17
TORSDOF 11
ENDMDL
MODEL       53
REMARK 921   NORMALIZED FREE ENERGY PREDICTED BY IDOCK:   -5.20 KCAL/MOL
REMARK 922        TOTAL FREE ENERGY PREDICTED BY IDOCK:  -10.11 KCAL/MOL
REMARK 923 INTER-LIGAND FREE ENERGY PREDICTED BY IDOCK:   -8.89 KCAL/MOL
REMARK 924 INTRA-LIGAND FREE ENERGY PREDICTED BY IDOCK:   -1.22 KCAL/MOL
REMARK 927      BINDING AFFINITY PREDICTED BY RF-SCORE:    0.00 PKD
ROOT
HETATM    1  C   UNL     1     -12.821  11.862  63.336  1.00  0.00    -0.256 C  
HETATM    2  N   UNL     1     -11.909  12.238  64.422  1.00  0.00    -0.379 NA 
ENDROOT
BRANCH   2   3
HETATM    3  C   UNL     1     -12.320  13.507  65.060  1.00  0.00    -0.428 C  
BRANCH   3   4
HETATM    4  C   UNL     1     -11.915  13.685  66.541  1.00  0.00    -0.465 C  
BRANCH   4   5
HETATM    5  C   UNL     1     -11.031  14.885  66.798  1.00  0.00    -0.326 A  
HETATM    6  C   UNL     1      -9.349  17.061  67.334  1.00  0.00    -0.239 A  
HETATM    7  C   UNL     1     -11.311  15.757  67.861  1.00  0.00    -0.277 A  
HETATM    8  C   UNL     1      -9.918  15.141  65.986  1.00  0.00    -0.335 A  
HETATM    9  C   UNL     1     -10.473  16.843  68.128  1.00  0.00    -0.350 A  
HETATM   10  C   UNL     1      -9.081  16.226  66.253  1.00  0.00    -0.366 A  
BRANCH   6  11
HETATM   11  N   UNL     1      -8.476  18.155  67.596  1.00  0.00    -0.242 N  
HETATM   12  H   UNL     1      -7.968  18.227  68.479  1.00  0.00     0.000 HD 
BRANCH  11  13
HETATM   13  S   UNL     1      -8.311  19.329  66.393  1.00  0.00    -0.321 S  
HETATM   14  O   UNL     1      -9.663  19.684  66.014  1.00  0.00    -0.387 OA 
HETATM   15  O   UNL     1      -7.346  18.905  65.404  1.00  0.00    -0.478 OA 
HETATM   16  C   UNL     1      -7.641  20.693  67.320  1.00  0.00    -0.333 C  
ENDBRANCH  11  13
ENDBRANCH   6  11
ENDBRANCH   4   5
ENDBRANCH   3   4
ENDBRANCH   2   3
BRANCH   2  17
HETATM   17  C   UNL     1     -10.528  12.302  63.890  1.00  0.00    -0.429 C  
BRANCH  17  18
HETATM   18  C   UNL     1      -9.717  11.006  64.052  1.00  0.00    -0.288 C  
BRANCH  18  19
HETATM   19  O   UNL     1      -8.921  11.090  65.240  1.00  0.00    -0.199 OA 
BRANCH  19  20
HETATM   20  C   UNL     1      -9.460  10.516  66.363  1.00  0.00    -0.171 A  
HETATM   21  C   UNL     1      -9.621  11.149  67.598  1.00  0.00    -0.180 A  
HETATM   22  C   UNL     1      -9.869   9.188  66.219  1.00  0.00    -0.359 A  
HETATM   23  C   UNL     1     -10.531   9.118  68.539  1.00  0.00    -0.204 A  
HETATM   24  C   UNL     1     -10.409   8.487  67.303  1.00  0.00    -0.372 A  
HETATM   25  C   UNL     1     -10.157  10.451  68.683  1.00  0.00    -0.188 A  
BRANCH  23  26
HETATM   26  N   UNL     1     -11.065   8.428  69.665  1.00  0.00    -0.439 N  
HETATM   27  H   UNL     1     -12.071   8.315  69.786  1.00  0.00     0.000 HD 
BRANCH  26  28
HETATM   28  S   UNL     1      -9.973   7.802  70.791  1.00  0.00    -0.180 S  
HETATM   29  O   UNL     1      -8.737   7.440  70.139  1.00  0.00    -0.141 OA 
HETATM   30  C   UNL     1     -10.813   6.325  71.327  1.00  0.00    -0.265 C  
HETATM   31  O   UNL     1      -9.990   8.737  71.899  1.00  0.00    -0.290 OA 
ENDBRANCH  26  28
ENDBRANCH  23  26
ENDBRANCH  19  20
ENDBRANCH  18  19
ENDBRANCH  17  18
ENDBRANCH   2  17
TORSDOF 11
ENDMDL
MODEL       54
REMARK 921   NORMALIZED FREE ENERGY PREDICTED BY IDOCK:   -5.20 KCAL/MOL
REMARK 922        TOTAL FREE ENERGY PREDICTED BY IDOCK:  -10.10 KCAL/MOL
REMARK 923 INTER-LIGAND FREE ENERGY PREDICTED BY IDOCK:   -9.36 KCAL/MOL
REMARK 924 INTRA-LIGAND FREE ENERGY PREDICTED BY IDOCK:   -0.74 KCAL/MOL
REMARK 927      BINDING AFFINITY PREDICTED BY RF-SCORE:    0.00 PKD
ROOT
HETATM    1  C   UNL     1      -9.573  11.508  65.816  1.00  0.00    -0.235 C  
HETATM    2  N   UNL     1     -10.727  11.914  66.624  1.00  0.00    -0.245 NA 
ENDROOT
BRANCH   2   3
HETATM    3  C   UNL     1     -11.090  10.876  67.613  1.00  0.00    -0.313 C  
BRANCH   3   4
HETATM    4  C   UNL     1     -11.637  11.388  68.965  1.00  0.00    -0.383 C  
BRANCH   4   5
HETATM    5  C   UNL     1     -11.487  10.403  70.103  1.00  0.00    -0.396 A  
HETATM    6  C   UNL     1     -11.241   8.516  72.160  1.00  0.00    -0.362 A  
HETATM    7  C   UNL     1     -12.567  10.134  70.957  1.00  0.00    -0.478 A  
HETATM    8  C   UNL     1     -10.271   9.741  70.320  1.00  0.00    -0.346 A  
HETATM    9  C   UNL     1     -12.445   9.194  71.983  1.00  0.00    -0.452 A  
HETATM   10  C   UNL     1     -10.149   8.801  71.345  1.00  0.00    -0.354 A  
BRANCH   6  11
HETATM   11  N   UNL     1     -11.099   7.545  73.192  1.00  0.00    -0.538 N  
HETATM   12  H   UNL     1     -11.460   7.716  74.131  1.00  0.00     0.000 HD 
BRANCH  11  13
HETATM   13  S   UNL     1     -10.310   6.102  72.806  1.00  0.00    -0.209 S  
HETATM   14  O   UNL     1      -8.896   6.394  72.922  1.00  0.00    -0.125 OA 
HETATM   15  O   UNL     1     -10.858   5.537  71.595  1.00  0.00    -0.245 OA 
HETATM   16  C   UNL     1     -10.758   5.074  74.189  1.00  0.00    -0.242 C  
ENDBRANCH  11  13
ENDBRANCH   6  11
ENDBRANCH   4   5
ENDBRANCH   3   4
ENDBRANCH   2   3
BRANCH   2  17
HETATM   17  C   UNL     1     -11.856  12.243  65.722  1.00  0.00    -0.352 C  
BRANCH  17  18
HETATM   18  C   UNL     1     -12.258  13.726  65.712  1.00  0.00    -0.462 C  
BRANCH  18  19
HETATM   19  O   UNL     1     -12.195  14.244  67.046  1.00  0.00    -0.424 OA 
BRANCH  19  20
HETATM   20  C   UNL     1     -11.377  15.330  67.228  1.00  0.00    -0.269 A  
HETATM   21  C   UNL     1     -10.517  15.866  66.266  1.00  0.00    -0.324 A  
HETATM   22  C   UNL     1     -11.438  15.919  68.493  1.00  0.00    -0.377 A  
HETATM   23  C   UNL     1      -9.750  17.520  67.851  1.00  0.00    -0.278 A  
HETATM   24  C   UNL     1     -10.630  17.018  68.807  1.00  0.00    -0.346 A  
HETATM   25  C   UNL     1      -9.707  16.960  66.578  1.00  0.00    -0.295 A  
BRANCH  23  26
HETATM   26  N   UNL     1      -8.905  18.628  68.144  1.00  0.00    -0.302 N  
HETATM   27  H   UNL     1      -9.285  19.568  68.253  1.00  0.00     0.000 HD 
BRANCH  26  28
HETATM   28  S   UNL     1      -7.250  18.332  68.305  1.00  0.00    -0.267 S  
HETATM   29  O   UNL     1      -7.031  17.041  68.914  1.00  0.00    -0.196 OA 
HETATM   30  C   UNL     1      -6.762  19.612  69.444  1.00  0.00    -0.354 C  
HETATM   31  O   UNL     1      -6.677  18.658  67.014  1.00  0.00    -0.191 OA 
ENDBRANCH  26  28
ENDBRANCH  23  26
ENDBRANCH  19  20
ENDBRANCH  18  19
ENDBRANCH  17  18
ENDBRANCH   2  17
TORSDOF 11
ENDMDL
MODEL       55
REMARK 921   NORMALIZED FREE ENERGY PREDICTED BY IDOCK:   -5.18 KCAL/MOL
REMARK 922        TOTAL FREE ENERGY PREDICTED BY IDOCK:  -10.07 KCAL/MOL
REMARK 923 INTER-LIGAND FREE ENERGY PREDICTED BY IDOCK:   -8.41 KCAL/MOL
REMARK 924 INTRA-LIGAND FREE ENERGY PREDICTED BY IDOCK:   -1.66 KCAL/MOL
REMARK 927      BINDING AFFINITY PREDICTED BY RF-SCORE:    0.00 PKD
ROOT
HETATM    1  C   UNL     1     -14.406   8.281  71.514  1.00  0.00    -0.428 C  
HETATM    2  N   UNL     1     -13.385   9.282  71.839  1.00  0.00    -0.399 NA 
ENDROOT
BRANCH   2   3
HETATM    3  C   UNL     1     -13.282  10.314  70.785  1.00  0.00    -0.216 C  
BRANCH   3   4
HETATM    4  C   UNL     1     -11.918  11.032  70.668  1.00  0.00    -0.464 C  
BRANCH   4   5
HETATM    5  C   UNL     1     -11.715  11.760  69.359  1.00  0.00    -0.405 A  
HETATM    6  C   UNL     1     -11.252  13.115  66.949  1.00  0.00    -0.296 A  
HETATM    7  C   UNL     1     -11.687  13.163  69.323  1.00  0.00    -0.376 A  
HETATM    8  C   UNL     1     -11.544  11.049  68.164  1.00  0.00    -0.345 A  
HETATM    9  C   UNL     1     -11.458  13.838  68.122  1.00  0.00    -0.348 A  
HETATM   10  C   UNL     1     -11.314  11.724  66.963  1.00  0.00    -0.387 A  
BRANCH   6  11
HETATM   11  N   UNL     1     -11.005  13.784  65.717  1.00  0.00    -0.279 N  
HETATM   12  H   UNL     1     -10.060  14.053  65.442  1.00  0.00     0.000 HD 
BRANCH  11  13
HETATM   13  S   UNL     1     -12.333  14.115  64.727  1.00  0.00    -0.388 S  
HETATM   14  O   UNL     1     -12.060  15.410  64.138  1.00  0.00    -0.563 OA 
HETATM   15  O   UNL     1     -13.566  13.864  65.438  1.00  0.00    -0.571 OA 
HETATM   16  C   UNL     1     -12.133  12.893  63.448  1.00  0.00    -0.530 C  
ENDBRANCH  11  13
ENDBRANCH   6  11
ENDBRANCH   4   5
ENDBRANCH   3   4
ENDBRANCH   2   3
BRANCH   2  17
HETATM   17  C   UNL     1     -12.094   8.594  72.074  1.00  0.00    -0.375 C  
BRANCH  17  18
HETATM   18  C   UNL     1     -11.699   7.584  70.986  1.00  0.00    -0.292 C  
BRANCH  18  19
HETATM   19  O   UNL     1     -10.307   7.269  71.113  1.00  0.00    -0.199 OA 
BRANCH  19  20
HETATM   20  C   UNL     1      -9.451   8.020  70.350  1.00  0.00    -0.166 A  
HETATM   21  C   UNL     1      -9.466   8.097  68.954  1.00  0.00    -0.151 A  
HETATM   22  C   UNL     1      -8.501   8.756  71.063  1.00  0.00    -0.219 A  
HETATM   23  C   UNL     1      -7.558   9.579  68.999  1.00  0.00    -0.075 A  
HETATM   24  C   UNL     1      -7.556   9.539  70.392  1.00  0.00    -0.169 A  
HETATM   25  C   UNL     1      -8.522   8.875  68.282  1.00  0.00    -0.130 A  
BRANCH  23  26
HETATM   26  N   UNL     1      -6.601  10.356  68.287  1.00  0.00    -0.060 N  
HETATM   27  H   UNL     1      -5.799   9.919  67.832  1.00  0.00     0.000 HD 
BRANCH  26  28
HETATM   28  S   UNL     1      -6.840  12.027  68.220  1.00  0.00    -0.075 S  
HETATM   29  O   UNL     1      -6.238  12.569  67.025  1.00  0.00    -0.227 OA 
HETATM   30  C   UNL     1      -5.924  12.580  69.645  1.00  0.00    -0.123 C  
HETATM   31  O   UNL     1      -8.248  12.222  68.505  1.00  0.00    -0.153 OA 
ENDBRANCH  26  28
ENDBRANCH  23  26
ENDBRANCH  19  20
ENDBRANCH  18  19
ENDBRANCH  17  18
ENDBRANCH   2  17
TORSDOF 11
ENDMDL
MODEL       56
REMARK 921   NORMALIZED FREE ENERGY PREDICTED BY IDOCK:   -5.15 KCAL/MOL
REMARK 922        TOTAL FREE ENERGY PREDICTED BY IDOCK:  -10.03 KCAL/MOL
REMARK 923 INTER-LIGAND FREE ENERGY PREDICTED BY IDOCK:   -7.79 KCAL/MOL
REMARK 924 INTRA-LIGAND FREE ENERGY PREDICTED BY IDOCK:   -2.24 KCAL/MOL
REMARK 927      BINDING AFFINITY PREDICTED BY RF-SCORE:    0.00 PKD
ROOT
HETATM    1  C   UNL     1     -10.854   4.181  73.397  1.00  0.00    -0.244 C  
HETATM    2  N   UNL     1     -10.644   5.449  72.691  1.00  0.00    -0.215 NA 
ENDROOT
BRANCH   2   3
HETATM    3  C   UNL     1     -10.041   5.234  71.358  1.00  0.00    -0.203 C  
BRANCH   3   4
HETATM    4  C   UNL     1     -10.970   5.472  70.146  1.00  0.00    -0.208 C  
BRANCH   4   5
HETATM    5  C   UNL     1     -10.321   6.234  69.012  1.00  0.00    -0.251 A  
HETATM    6  C   UNL     1      -9.150   7.721  66.945  1.00  0.00    -0.144 A  
HETATM    7  C   UNL     1     -11.053   6.549  67.858  1.00  0.00    -0.352 A  
HETATM    8  C   UNL     1      -8.983   6.642  69.098  1.00  0.00    -0.131 A  
HETATM    9  C   UNL     1     -10.470   7.290  66.826  1.00  0.00    -0.311 A  
HETATM   10  C   UNL     1      -8.400   7.383  68.068  1.00  0.00    -0.124 A  
BRANCH   6  11
HETATM   11  N   UNL     1      -8.540   8.486  65.911  1.00  0.00    -0.154 N  
HETATM   12  H   UNL     1      -7.896   8.058  65.246  1.00  0.00     0.000 HD 
BRANCH  11  13
HETATM   13  S   UNL     1      -8.923  10.130  65.825  1.00  0.00    -0.169 S  
HETATM   14  O   UNL     1      -7.757  10.823  66.334  1.00  0.00    -0.134 OA 
HETATM   15  O   UNL     1     -10.235  10.371  66.379  1.00  0.00    -0.225 OA 
HETATM   16  C   UNL     1      -8.972  10.389  64.065  1.00  0.00    -0.228 C  
ENDBRANCH  11  13
ENDBRANCH   6  11
ENDBRANCH   4   5
ENDBRANCH   3   4
ENDBRANCH   2   3
BRANCH   2  17
HETATM   17  C   UNL     1      -9.820   6.342  73.539  1.00  0.00    -0.185 C  
BRANCH  17  18
HETATM   18  C   UNL     1      -9.955   7.838  73.215  1.00  0.00    -0.307 C  
BRANCH  18  19
HETATM   19  O   UNL     1     -11.322   8.135  72.903  1.00  0.00    -0.387 OA 
BRANCH  19  20
HETATM   20  C   UNL     1     -11.522   9.035  71.888  1.00  0.00    -0.370 A  
HETATM   21  C   UNL     1     -12.692   9.769  71.674  1.00  0.00    -0.517 A  
HETATM   22  C   UNL     1     -10.442   9.205  71.017  1.00  0.00    -0.368 A  
HETATM   23  C   UNL     1     -11.722  10.775  69.704  1.00  0.00    -0.323 A  
HETATM   24  C   UNL     1     -10.537  10.077  69.927  1.00  0.00    -0.324 A  
HETATM   25  C   UNL     1     -12.790  10.637  70.585  1.00  0.00    -0.404 A  
BRANCH  23  26
HETATM   26  N   UNL     1     -11.854  11.659  68.595  1.00  0.00    -0.324 N  
HETATM   27  H   UNL     1     -12.331  11.368  67.742  1.00  0.00     0.000 HD 
BRANCH  26  28
HETATM   28  S   UNL     1     -11.192  13.206  68.742  1.00  0.00    -0.296 S  
HETATM   29  O   UNL     1     -11.583  13.798  70.000  1.00  0.00    -0.257 OA 
HETATM   30  C   UNL     1     -11.996  14.071  67.408  1.00  0.00    -0.404 C  
HETATM   31  O   UNL     1      -9.795  13.059  68.386  1.00  0.00    -0.228 OA 
ENDBRANCH  26  28
ENDBRANCH  23  26
ENDBRANCH  19  20
ENDBRANCH  18  19
ENDBRANCH  17  18
ENDBRANCH   2  17
TORSDOF 11
ENDMDL
MODEL       57
REMARK 921   NORMALIZED FREE ENERGY PREDICTED BY IDOCK:   -5.15 KCAL/MOL
REMARK 922        TOTAL FREE ENERGY PREDICTED BY IDOCK:  -10.02 KCAL/MOL
REMARK 923 INTER-LIGAND FREE ENERGY PREDICTED BY IDOCK:   -9.16 KCAL/MOL
REMARK 924 INTRA-LIGAND FREE ENERGY PREDICTED BY IDOCK:   -0.86 KCAL/MOL
REMARK 927      BINDING AFFINITY PREDICTED BY RF-SCORE:    0.00 PKD
ROOT
HETATM    1  C   UNL     1     -12.631  12.003  63.943  1.00  0.00    -0.406 C  
HETATM    2  N   UNL     1     -11.172  12.104  63.828  1.00  0.00    -0.396 NA 
ENDROOT
BRANCH   2   3
HETATM    3  C   UNL     1     -10.493  11.039  64.596  1.00  0.00    -0.329 C  
BRANCH   3   4
HETATM    4  C   UNL     1      -9.794  11.483  65.901  1.00  0.00    -0.262 C  
BRANCH   4   5
HETATM    5  C   UNL     1      -9.502  10.351  66.860  1.00  0.00    -0.196 A  
HETATM    6  C   UNL     1      -9.042   8.219  68.620  1.00  0.00    -0.140 A  
HETATM    7  C   UNL     1      -9.923  10.425  68.196  1.00  0.00    -0.170 A  
HETATM    8  C   UNL     1      -8.814   9.208  66.430  1.00  0.00    -0.165 A  
HETATM    9  C   UNL     1      -9.692   9.363  69.075  1.00  0.00    -0.166 A  
HETATM   10  C   UNL     1      -8.585   8.146  67.307  1.00  0.00    -0.124 A  
BRANCH   6  11
HETATM   11  N   UNL     1      -8.807   7.120  69.495  1.00  0.00    -0.137 N  
HETATM   12  H   UNL     1      -8.073   7.156  70.203  1.00  0.00     0.000 HD 
BRANCH  11  13
HETATM   13  S   UNL     1      -9.789   5.757  69.320  1.00  0.00    -0.184 S  
HETATM   14  O   UNL     1      -9.364   4.841  70.359  1.00  0.00    -0.130 OA 
HETATM   15  O   UNL     1      -9.835   5.344  67.936  1.00  0.00    -0.130 OA 
HETATM   16  C   UNL     1     -11.378   6.402  69.794  1.00  0.00    -0.427 C  
ENDBRANCH  11  13
ENDBRANCH   6  11
ENDBRANCH   4   5
ENDBRANCH   3   4
ENDBRANCH   2   3
BRANCH   2  17
HETATM   17  C   UNL     1     -10.748  13.457  64.256  1.00  0.00    -0.355 C  
BRANCH  17  18
HETATM   18  C   UNL     1     -11.761  14.196  65.145  1.00  0.00    -0.361 C  
BRANCH  18  19
HETATM   19  O   UNL     1     -11.082  15.211  65.896  1.00  0.00    -0.339 OA 
BRANCH  19  20
HETATM   20  C   UNL     1     -11.245  15.157  67.256  1.00  0.00    -0.324 A  
HETATM   21  C   UNL     1     -10.914  16.177  68.152  1.00  0.00    -0.341 A  
HETATM   22  C   UNL     1     -11.790  13.969  67.748  1.00  0.00    -0.419 A  
HETATM   23  C   UNL     1     -11.611  14.797  70.008  1.00  0.00    -0.286 A  
HETATM   24  C   UNL     1     -11.979  13.786  69.122  1.00  0.00    -0.403 A  
HETATM   25  C   UNL     1     -11.098  15.997  69.524  1.00  0.00    -0.333 A  
BRANCH  23  26
HETATM   26  N   UNL     1     -11.777  14.635  71.413  1.00  0.00    -0.464 N  
HETATM   27  H   UNL     1     -10.992  14.382  72.012  1.00  0.00     0.000 HD 
BRANCH  26  28
HETATM   28  S   UNL     1     -13.321  14.879  72.053  1.00  0.00    -0.410 S  
HETATM   29  O   UNL     1     -14.164  15.538  71.084  1.00  0.00    -0.528 OA 
HETATM   30  C   UNL     1     -12.983  15.996  73.399  1.00  0.00    -0.570 C  
HETATM   31  O   UNL     1     -13.699  13.604  72.632  1.00  0.00    -0.668 OA 
ENDBRANCH  26  28
ENDBRANCH  23  26
ENDBRANCH  19  20
ENDBRANCH  18  19
ENDBRANCH  17  18
ENDBRANCH   2  17
TORSDOF 11
ENDMDL
MODEL       58
REMARK 921   NORMALIZED FREE ENERGY PREDICTED BY IDOCK:   -5.15 KCAL/MOL
REMARK 922        TOTAL FREE ENERGY PREDICTED BY IDOCK:  -10.02 KCAL/MOL
REMARK 923 INTER-LIGAND FREE ENERGY PREDICTED BY IDOCK:   -9.29 KCAL/MOL
REMARK 924 INTRA-LIGAND FREE ENERGY PREDICTED BY IDOCK:   -0.73 KCAL/MOL
REMARK 927      BINDING AFFINITY PREDICTED BY RF-SCORE:    0.00 PKD
ROOT
HETATM    1  C   UNL     1     -12.953  16.132  73.165  1.00  0.00    -0.444 C  
HETATM    2  N   UNL     1     -13.614  15.083  72.382  1.00  0.00    -0.417 NA 
ENDROOT
BRANCH   2   3
HETATM    3  C   UNL     1     -13.037  13.751  72.664  1.00  0.00    -0.391 C  
BRANCH   3   4
HETATM    4  C   UNL     1     -13.883  12.536  72.220  1.00  0.00    -0.223 C  
BRANCH   4   5
HETATM    5  C   UNL     1     -13.079  11.424  71.584  1.00  0.00    -0.498 A  
HETATM    6  C   UNL     1     -11.655   9.352  70.347  1.00  0.00    -0.192 A  
HETATM    7  C   UNL     1     -13.286  10.090  71.966  1.00  0.00    -0.545 A  
HETATM    8  C   UNL     1     -12.121  11.706  70.601  1.00  0.00    -0.432 A  
HETATM    9  C   UNL     1     -12.575   9.056  71.351  1.00  0.00    -0.370 A  
HETATM   10  C   UNL     1     -11.412  10.673  69.985  1.00  0.00    -0.404 A  
BRANCH   6  11
HETATM   11  N   UNL     1     -10.928   8.312  69.699  1.00  0.00    -0.415 N  
HETATM   12  H   UNL     1     -11.396   7.640  69.092  1.00  0.00     0.000 HD 
BRANCH  11  13
HETATM   13  S   UNL     1      -9.263   8.233  69.974  1.00  0.00    -0.152 S  
HETATM   14  O   UNL     1      -9.088   8.558  71.375  1.00  0.00    -0.166 OA 
HETATM   15  O   UNL     1      -8.549   8.956  68.946  1.00  0.00    -0.132 OA 
HETATM   16  C   UNL     1      -8.957   6.490  69.787  1.00  0.00    -0.142 C  
ENDBRANCH  11  13
ENDBRANCH   6  11
ENDBRANCH   4   5
ENDBRANCH   3   4
ENDBRANCH   2   3
BRANCH   2  17
HETATM   17  C   UNL     1     -13.534  15.432  70.944  1.00  0.00    -0.367 C  
BRANCH  17  18
HETATM   18  C   UNL     1     -12.120  15.362  70.345  1.00  0.00    -0.372 C  
BRANCH  18  19
HETATM   19  O   UNL     1     -12.154  15.832  68.992  1.00  0.00    -0.349 OA 
BRANCH  19  20
HETATM   20  C   UNL     1     -10.998  16.408  68.530  1.00  0.00    -0.350 A  
HETATM   21  C   UNL     1     -10.340  17.490  69.120  1.00  0.00    -0.239 A  
HETATM   22  C   UNL     1     -10.466  15.835  67.372  1.00  0.00    -0.297 A  
HETATM   23  C   UNL     1      -8.677  17.456  67.368  1.00  0.00    -0.223 A  
HETATM   24  C   UNL     1      -9.304  16.354  66.791  1.00  0.00    -0.265 A  
HETATM   25  C   UNL     1      -9.182  18.011  68.540  1.00  0.00    -0.296 A  
BRANCH  23  26
HETATM   26  N   UNL     1      -7.500  18.015  66.793  1.00  0.00    -0.203 N  
HETATM   27  H   UNL     1      -6.599  17.545  66.873  1.00  0.00     0.000 HD 
BRANCH  26  28
HETATM   28  S   UNL     1      -7.650  19.483  65.971  1.00  0.00    -0.297 S  
HETATM   29  O   UNL     1      -6.774  19.503  64.823  1.00  0.00    -0.401 OA 
HETATM   30  C   UNL     1      -7.054  20.640  67.188  1.00  0.00    -0.331 C  
HETATM   31  O   UNL     1      -9.076  19.697  65.829  1.00  0.00    -0.377 OA 
ENDBRANCH  26  28
ENDBRANCH  23  26
ENDBRANCH  19  20
ENDBRANCH  18  19
ENDBRANCH  17  18
ENDBRANCH   2  17
TORSDOF 11
ENDMDL
MODEL       59
REMARK 921   NORMALIZED FREE ENERGY PREDICTED BY IDOCK:   -5.12 KCAL/MOL
REMARK 922        TOTAL FREE ENERGY PREDICTED BY IDOCK:   -9.98 KCAL/MOL
REMARK 923 INTER-LIGAND FREE ENERGY PREDICTED BY IDOCK:   -8.90 KCAL/MOL
REMARK 924 INTRA-LIGAND FREE ENERGY PREDICTED BY IDOCK:   -1.08 KCAL/MOL
REMARK 927      BINDING AFFINITY PREDICTED BY RF-SCORE:    0.00 PKD
ROOT
HETATM    1  C   UNL     1     -11.074  16.253  68.817  1.00  0.00    -0.355 C  
HETATM    2  N   UNL     1     -11.158  14.842  68.423  1.00  0.00    -0.262 NA 
ENDROOT
BRANCH   2   3
HETATM    3  C   UNL     1     -11.192  14.692  66.952  1.00  0.00    -0.343 C  
BRANCH   3   4
HETATM    4  C   UNL     1     -12.117  13.580  66.405  1.00  0.00    -0.467 C  
BRANCH   4   5
HETATM    5  C   UNL     1     -11.382  12.353  65.913  1.00  0.00    -0.399 A  
HETATM    6  C   UNL     1      -9.946  10.129  64.996  1.00  0.00    -0.305 A  
HETATM    7  C   UNL     1     -11.228  12.122  64.538  1.00  0.00    -0.385 A  
HETATM    8  C   UNL     1     -10.839  11.434  66.820  1.00  0.00    -0.336 A  
HETATM    9  C   UNL     1     -10.513  11.012  64.080  1.00  0.00    -0.434 A  
HETATM   10  C   UNL     1     -10.123  10.325  66.363  1.00  0.00    -0.296 A  
BRANCH   6  11
HETATM   11  N   UNL     1      -9.204   8.998  64.551  1.00  0.00    -0.403 N  
HETATM   12  H   UNL     1      -9.663   8.109  64.354  1.00  0.00     0.000 HD 
BRANCH  11  13
HETATM   13  S   UNL     1      -7.535   9.183  64.359  1.00  0.00    -0.105 S  
HETATM   14  O   UNL     1      -6.955   7.938  64.820  1.00  0.00    -0.060 OA 
HETATM   15  O   UNL     1      -7.104  10.452  64.900  1.00  0.00    -0.122 OA 
HETATM   16  C   UNL     1      -7.385   9.219  62.586  1.00  0.00    -0.099 C  
ENDBRANCH  11  13
ENDBRANCH   6  11
ENDBRANCH   4   5
ENDBRANCH   3   4
ENDBRANCH   2   3
BRANCH   2  17
HETATM   17  C   UNL     1     -12.339  14.230  69.074  1.00  0.00    -0.112 C  
BRANCH  17  18
HETATM   18  C   UNL     1     -12.007  13.183  70.149  1.00  0.00    -0.310 C  
BRANCH  18  19
HETATM   19  O   UNL     1     -12.384  11.883  69.678  1.00  0.00    -0.176 OA 
BRANCH  19  20
HETATM   20  C   UNL     1     -11.992  10.827  70.460  1.00  0.00    -0.361 A  
HETATM   21  C   UNL     1     -10.744  10.200  70.409  1.00  0.00    -0.329 A  
HETATM   22  C   UNL     1     -12.948  10.369  71.371  1.00  0.00    -0.545 A  
HETATM   23  C   UNL     1     -11.438   8.640  72.117  1.00  0.00    -0.373 A  
HETATM   24  C   UNL     1     -12.673   9.279  72.204  1.00  0.00    -0.465 A  
HETATM   25  C   UNL     1     -10.468   9.110  71.236  1.00  0.00    -0.398 A  
BRANCH  23  26
HETATM   26  N   UNL     1     -11.133   7.519  72.942  1.00  0.00    -0.403 N  
HETATM   27  H   UNL     1     -10.934   7.634  73.936  1.00  0.00     0.000 HD 
BRANCH  26  28
HETATM   28  S   UNL     1     -11.114   5.994  72.218  1.00  0.00    -0.291 S  
HETATM   29  O   UNL     1     -11.584   4.995  73.149  1.00  0.00    -0.328 OA 
HETATM   30  C   UNL     1      -9.373   5.754  71.925  1.00  0.00    -0.151 C  
HETATM   31  O   UNL     1     -11.751   6.176  70.928  1.00  0.00    -0.282 OA 
ENDBRANCH  26  28
ENDBRANCH  23  26
ENDBRANCH  19  20
ENDBRANCH  18  19
ENDBRANCH  17  18
ENDBRANCH   2  17
TORSDOF 11
ENDMDL
MODEL       60
REMARK 921   NORMALIZED FREE ENERGY PREDICTED BY IDOCK:   -5.12 KCAL/MOL
REMARK 922        TOTAL FREE ENERGY PREDICTED BY IDOCK:   -9.97 KCAL/MOL
REMARK 923 INTER-LIGAND FREE ENERGY PREDICTED BY IDOCK:   -8.13 KCAL/MOL
REMARK 924 INTRA-LIGAND FREE ENERGY PREDICTED BY IDOCK:   -1.85 KCAL/MOL
REMARK 927      BINDING AFFINITY PREDICTED BY RF-SCORE:    0.00 PKD
ROOT
HETATM    1  C   UNL     1     -10.367   6.977  73.912  1.00  0.00    -0.348 C  
HETATM    2  N   UNL     1     -10.301   7.252  72.473  1.00  0.00    -0.205 NA 
ENDROOT
BRANCH   2   3
HETATM    3  C   UNL     1     -10.254   8.705  72.199  1.00  0.00    -0.323 C  
BRANCH   3   4
HETATM    4  C   UNL     1     -11.496   9.305  71.502  1.00  0.00    -0.454 C  
BRANCH   4   5
HETATM    5  C   UNL     1     -11.170  10.318  70.427  1.00  0.00    -0.407 A  
HETATM    6  C   UNL     1     -10.610  12.146  68.378  1.00  0.00    -0.226 A  
HETATM    7  C   UNL     1     -10.053  10.139  69.598  1.00  0.00    -0.265 A  
HETATM    8  C   UNL     1     -11.979  11.446  70.239  1.00  0.00    -0.460 A  
HETATM    9  C   UNL     1      -9.772  11.050  68.577  1.00  0.00    -0.189 A  
HETATM   10  C   UNL     1     -11.699  12.357  69.218  1.00  0.00    -0.386 A  
BRANCH   6  11
HETATM   11  N   UNL     1     -10.348  13.080  67.336  1.00  0.00    -0.233 N  
HETATM   12  H   UNL     1      -9.436  13.527  67.243  1.00  0.00     0.000 HD 
BRANCH  11  13
HETATM   13  S   UNL     1     -11.604  13.423  66.259  1.00  0.00    -0.362 S  
HETATM   14  O   UNL     1     -12.274  14.585  66.807  1.00  0.00    -0.376 OA 
HETATM   15  O   UNL     1     -12.338  12.219  65.942  1.00  0.00    -0.618 OA 
HETATM   16  C   UNL     1     -10.701  13.955  64.821  1.00  0.00    -0.423 C  
ENDBRANCH  11  13
ENDBRANCH   6  11
ENDBRANCH   4   5
ENDBRANCH   3   4
ENDBRANCH   2   3
BRANCH   2  17
HETATM   17  C   UNL     1     -11.448   6.596  71.804  1.00  0.00    -0.291 C  
BRANCH  17  18
HETATM   18  C   UNL     1     -11.122   5.968  70.439  1.00  0.00    -0.329 C  
BRANCH  18  19
HETATM   19  O   UNL     1      -9.770   6.284  70.083  1.00  0.00    -0.161 OA 
BRANCH  19  20
HETATM   20  C   UNL     1      -9.589   6.799  68.825  1.00  0.00    -0.132 A  
HETATM   21  C   UNL     1     -10.610   7.155  67.940  1.00  0.00    -0.269 A  
HETATM   22  C   UNL     1      -8.258   6.965  68.433  1.00  0.00    -0.120 A  
HETATM   23  C   UNL     1      -8.974   7.775  66.274  1.00  0.00    -0.174 A  
HETATM   24  C   UNL     1      -7.947   7.457  67.161  1.00  0.00    -0.114 A  
HETATM   25  C   UNL     1     -10.302   7.643  66.669  1.00  0.00    -0.258 A  
BRANCH  23  26
HETATM   26  N   UNL     1      -8.689   8.265  64.968  1.00  0.00    -0.382 N  
HETATM   27  H   UNL     1      -8.739   7.654  64.153  1.00  0.00     0.000 HD 
BRANCH  26  28
HETATM   28  S   UNL     1      -8.266   9.893  64.815  1.00  0.00    -0.161 S  
HETATM   29  O   UNL     1      -9.301  10.731  65.372  1.00  0.00    -0.187 OA 
HETATM   30  C   UNL     1      -8.232  10.093  63.045  1.00  0.00    -0.158 C  
HETATM   31  O   UNL     1      -6.898   9.977  65.288  1.00  0.00    -0.114 OA 
ENDBRANCH  26  28
ENDBRANCH  23  26
ENDBRANCH  19  20
ENDBRANCH  18  19
ENDBRANCH  17  18
ENDBRANCH   2  17
TORSDOF 11
ENDMDL
MODEL       61
REMARK 921   NORMALIZED FREE ENERGY PREDICTED BY IDOCK:   -5.08 KCAL/MOL
REMARK 922        TOTAL FREE ENERGY PREDICTED BY IDOCK:   -9.91 KCAL/MOL
REMARK 923 INTER-LIGAND FREE ENERGY PREDICTED BY IDOCK:   -9.29 KCAL/MOL
REMARK 924 INTRA-LIGAND FREE ENERGY PREDICTED BY IDOCK:   -0.63 KCAL/MOL
REMARK 927      BINDING AFFINITY PREDICTED BY RF-SCORE:    0.00 PKD
ROOT
HETATM    1  C   UNL     1     -12.787  14.519  72.384  1.00  0.00    -0.360 C  
HETATM    2  N   UNL     1     -12.091  14.351  71.104  1.00  0.00    -0.336 NA 
ENDROOT
BRANCH   2   3
HETATM    3  C   UNL     1     -12.491  15.388  70.129  1.00  0.00    -0.335 C  
BRANCH   3   4
HETATM    4  C   UNL     1     -11.343  16.059  69.341  1.00  0.00    -0.355 C  
BRANCH   4   5
HETATM    5  C   UNL     1     -10.990  15.356  68.049  1.00  0.00    -0.307 A  
HETATM    6  C   UNL     1     -10.355  14.129  65.611  1.00  0.00    -0.333 A  
HETATM    7  C   UNL     1     -11.990  14.749  67.275  1.00  0.00    -0.236 A  
HETATM    8  C   UNL     1      -9.663  15.306  67.602  1.00  0.00    -0.208 A  
HETATM    9  C   UNL     1     -11.674  14.136  66.060  1.00  0.00    -0.389 A  
HETATM   10  C   UNL     1      -9.347  14.694  66.387  1.00  0.00    -0.313 A  
BRANCH   6  11
HETATM   11  N   UNL     1     -10.013  13.519  64.370  1.00  0.00    -0.615 N  
HETATM   12  H   UNL     1      -9.379  13.976  63.714  1.00  0.00     0.000 HD 
BRANCH  11  13
HETATM   13  S   UNL     1     -10.695  12.012  64.025  1.00  0.00    -0.421 S  
HETATM   14  O   UNL     1     -11.849  12.294  63.196  1.00  0.00    -0.389 OA 
HETATM   15  O   UNL     1     -10.817  11.226  65.232  1.00  0.00    -0.266 OA 
HETATM   16  C   UNL     1      -9.448  11.292  62.979  1.00  0.00    -0.367 C  
ENDBRANCH  11  13
ENDBRANCH   6  11
ENDBRANCH   4   5
ENDBRANCH   3   4
ENDBRANCH   2   3
BRANCH   2  17
HETATM   17  C   UNL     1     -12.340  12.982  70.596  1.00  0.00    -0.310 C  
BRANCH  17  18
HETATM   18  C   UNL     1     -12.891  12.000  71.642  1.00  0.00    -0.294 C  
BRANCH  18  19
HETATM   19  O   UNL     1     -13.048  10.708  71.044  1.00  0.00    -0.362 OA 
BRANCH  19  20
HETATM   20  C   UNL     1     -12.134   9.758  71.424  1.00  0.00    -0.400 A  
HETATM   21  C   UNL     1     -10.811   9.685  70.982  1.00  0.00    -0.412 A  
HETATM   22  C   UNL     1     -12.605   8.804  72.329  1.00  0.00    -0.460 A  
HETATM   23  C   UNL     1     -10.466   7.686  72.293  1.00  0.00    -0.237 A  
HETATM   24  C   UNL     1     -11.773   7.769  72.770  1.00  0.00    -0.312 A  
HETATM   25  C   UNL     1      -9.979   8.652  71.418  1.00  0.00    -0.324 A  
BRANCH  23  26
HETATM   26  N   UNL     1      -9.599   6.636  72.712  1.00  0.00    -0.146 N  
HETATM   27  H   UNL     1      -8.698   6.837  73.147  1.00  0.00     0.000 HD 
BRANCH  26  28
HETATM   28  S   UNL     1     -10.114   5.047  72.465  1.00  0.00    -0.189 S  
HETATM   29  O   UNL     1     -11.043   4.657  73.500  1.00  0.00    -0.295 OA 
HETATM   30  C   UNL     1      -8.594   4.139  72.665  1.00  0.00    -0.104 C  
HETATM   31  O   UNL     1     -10.480   4.978  71.064  1.00  0.00    -0.213 OA 
ENDBRANCH  26  28
ENDBRANCH  23  26
ENDBRANCH  19  20
ENDBRANCH  18  19
ENDBRANCH  17  18
ENDBRANCH   2  17
TORSDOF 11
ENDMDL
MODEL       62
REMARK 921   NORMALIZED FREE ENERGY PREDICTED BY IDOCK:   -5.07 KCAL/MOL
REMARK 922        TOTAL FREE ENERGY PREDICTED BY IDOCK:   -9.89 KCAL/MOL
REMARK 923 INTER-LIGAND FREE ENERGY PREDICTED BY IDOCK:   -7.00 KCAL/MOL
REMARK 924 INTRA-LIGAND FREE ENERGY PREDICTED BY IDOCK:   -2.89 KCAL/MOL
REMARK 927      BINDING AFFINITY PREDICTED BY RF-SCORE:    0.00 PKD
ROOT
HETATM    1  C   UNL     1     -10.347   4.979  74.209  1.00  0.00    -0.279 C  
HETATM    2  N   UNL     1     -10.036   5.889  73.102  1.00  0.00    -0.172 NA 
ENDROOT
BRANCH   2   3
HETATM    3  C   UNL     1     -10.097   5.196  71.797  1.00  0.00    -0.200 C  
BRANCH   3   4
HETATM    4  C   UNL     1     -11.120   5.751  70.780  1.00  0.00    -0.272 C  
BRANCH   4   5
HETATM    5  C   UNL     1     -10.519   6.133  69.446  1.00  0.00    -0.316 A  
HETATM    6  C   UNL     1      -9.405   6.754  66.951  1.00  0.00    -0.150 A  
HETATM    7  C   UNL     1      -9.130   6.088  69.255  1.00  0.00    -0.126 A  
HETATM    8  C   UNL     1     -11.337   6.530  68.380  1.00  0.00    -0.154 A  
HETATM    9  C   UNL     1      -8.574   6.399  68.011  1.00  0.00    -0.117 A  
HETATM   10  C   UNL     1     -10.781   6.840  67.137  1.00  0.00    -0.441 A  
BRANCH   6  11
HETATM   11  N   UNL     1      -8.859   7.063  65.673  1.00  0.00    -0.342 N  
HETATM   12  H   UNL     1      -8.615   6.327  65.010  1.00  0.00     0.000 HD 
BRANCH  11  13
HETATM   13  S   UNL     1      -8.630   8.694  65.294  1.00  0.00    -0.160 S  
HETATM   14  O   UNL     1      -7.545   9.138  66.146  1.00  0.00    -0.094 OA 
HETATM   15  O   UNL     1      -9.897   9.389  65.275  1.00  0.00    -0.231 OA 
HETATM   16  C   UNL     1      -7.996   8.585  63.634  1.00  0.00    -0.161 C  
ENDBRANCH  11  13
ENDBRANCH   6  11
ENDBRANCH   4   5
ENDBRANCH   3   4
ENDBRANCH   2   3
BRANCH   2  17
HETATM   17  C   UNL     1      -8.711   6.507  73.344  1.00  0.00    -0.123 C  
BRANCH  17  18
HETATM   18  C   UNL     1      -8.685   8.039  73.215  1.00  0.00    -0.245 C  
BRANCH  18  19
HETATM   19  O   UNL     1      -9.921   8.489  72.647  1.00  0.00    -0.278 OA 
BRANCH  19  20
HETATM   20  C   UNL     1      -9.835   9.061  71.404  1.00  0.00    -0.311 A  
HETATM   21  C   UNL     1      -8.653   9.276  70.691  1.00  0.00    -0.270 A  
HETATM   22  C   UNL     1     -11.053   9.446  70.837  1.00  0.00    -0.389 A  
HETATM   23  C   UNL     1      -9.901  10.308  68.899  1.00  0.00    -0.195 A  
HETATM   24  C   UNL     1     -11.090  10.065  69.583  1.00  0.00    -0.300 A  
HETATM   25  C   UNL     1      -8.687   9.897  69.441  1.00  0.00    -0.186 A  
BRANCH  23  26
HETATM   26  N   UNL     1      -9.905  10.948  67.627  1.00  0.00    -0.169 N  
HETATM   27  H   UNL     1      -9.443  10.526  66.821  1.00  0.00     0.000 HD 
BRANCH  26  28
HETATM   28  S   UNL     1     -10.700  12.433  67.498  1.00  0.00    -0.234 S  
HETATM   29  O   UNL     1     -12.092  12.226  67.175  1.00  0.00    -0.560 OA 
HETATM   30  C   UNL     1      -9.873  13.166  66.101  1.00  0.00    -0.280 C  
HETATM   31  O   UNL     1     -10.307  13.179  68.677  1.00  0.00    -0.243 OA 
ENDBRANCH  26  28
ENDBRANCH  23  26
ENDBRANCH  19  20
ENDBRANCH  18  19
ENDBRANCH  17  18
ENDBRANCH   2  17
TORSDOF 11
ENDMDL
MODEL       63
REMARK 921   NORMALIZED FREE ENERGY PREDICTED BY IDOCK:   -5.06 KCAL/MOL
REMARK 922        TOTAL FREE ENERGY PREDICTED BY IDOCK:   -9.88 KCAL/MOL
REMARK 923 INTER-LIGAND FREE ENERGY PREDICTED BY IDOCK:   -8.70 KCAL/MOL
REMARK 924 INTRA-LIGAND FREE ENERGY PREDICTED BY IDOCK:   -1.18 KCAL/MOL
REMARK 927      BINDING AFFINITY PREDICTED BY RF-SCORE:    0.00 PKD
ROOT
HETATM    1  C   UNL     1     -11.521  16.171  71.207  1.00  0.00    -0.375 C  
HETATM    2  N   UNL     1     -11.647  14.975  70.368  1.00  0.00    -0.269 NA 
ENDROOT
BRANCH   2   3
HETATM    3  C   UNL     1     -11.584  15.313  68.929  1.00  0.00    -0.347 C  
BRANCH   3   4
HETATM    4  C   UNL     1     -12.389  14.396  67.981  1.00  0.00     0.001 C  
BRANCH   4   5
HETATM    5  C   UNL     1     -11.532  13.513  67.102  1.00  0.00    -0.368 A  
HETATM    6  C   UNL     1      -9.922  11.948  65.425  1.00  0.00    -0.252 A  
HETATM    7  C   UNL     1     -12.050  12.975  65.914  1.00  0.00    -0.503 A  
HETATM    8  C   UNL     1     -10.207  13.224  67.454  1.00  0.00    -0.229 A  
HETATM    9  C   UNL     1     -11.248  12.194  65.078  1.00  0.00    -0.372 A  
HETATM   10  C   UNL     1      -9.405  12.444  66.619  1.00  0.00    -0.227 A  
BRANCH   6  11
HETATM   11  N   UNL     1      -9.084  11.164  64.581  1.00  0.00    -0.362 N  
HETATM   12  H   UNL     1      -8.612  11.575  63.776  1.00  0.00     0.000 HD 
BRANCH  11  13
HETATM   13  S   UNL     1      -8.900   9.529  64.964  1.00  0.00    -0.207 S  
HETATM   14  O   UNL     1      -8.680   8.860  63.697  1.00  0.00    -0.147 OA 
HETATM   15  O   UNL     1      -9.949   9.100  65.861  1.00  0.00    -0.295 OA 
HETATM   16  C   UNL     1      -7.350   9.543  65.838  1.00  0.00    -0.097 C  
ENDBRANCH  11  13
ENDBRANCH   6  11
ENDBRANCH   4   5
ENDBRANCH   3   4
ENDBRANCH   2   3
BRANCH   2  17
HETATM   17  C   UNL     1     -12.901  14.269  70.720  1.00  0.00    -0.337 C  
BRANCH  17  18
HETATM   18  C   UNL     1     -12.700  12.909  71.407  1.00  0.00    -0.270 C  
BRANCH  18  19
HETATM   19  O   UNL     1     -12.024  12.020  70.509  1.00  0.00    -0.351 OA 
BRANCH  19  20
HETATM   20  C   UNL     1     -12.112  10.685  70.811  1.00  0.00    -0.374 A  
HETATM   21  C   UNL     1     -12.995  10.120  71.735  1.00  0.00    -0.567 A  
HETATM   22  C   UNL     1     -11.228   9.855  70.117  1.00  0.00    -0.347 A  
HETATM   23  C   UNL     1     -12.066   7.931  71.310  1.00  0.00    -0.296 A  
HETATM   24  C   UNL     1     -11.205   8.477  70.360  1.00  0.00    -0.224 A  
HETATM   25  C   UNL     1     -12.972   8.746  71.982  1.00  0.00    -0.437 A  
BRANCH  23  26
HETATM   26  N   UNL     1     -12.057   6.535  71.589  1.00  0.00    -0.346 N  
HETATM   27  H   UNL     1     -12.668   5.892  71.086  1.00  0.00     0.000 HD 
BRANCH  26  28
HETATM   28  S   UNL     1     -10.999   5.980  72.783  1.00  0.00    -0.272 S  
HETATM   29  O   UNL     1     -10.582   7.074  73.627  1.00  0.00    -0.357 OA 
HETATM   30  C   UNL     1      -9.614   5.425  71.809  1.00  0.00    -0.149 C  
HETATM   31  O   UNL     1     -11.637   4.803  73.341  1.00  0.00    -0.323 OA 
ENDBRANCH  26  28
ENDBRANCH  23  26
ENDBRANCH  19  20
ENDBRANCH  18  19
ENDBRANCH  17  18
ENDBRANCH   2  17
TORSDOF 11
ENDMDL
MODEL       64
REMARK 921   NORMALIZED FREE ENERGY PREDICTED BY IDOCK:   -5.06 KCAL/MOL
REMARK 922        TOTAL FREE ENERGY PREDICTED BY IDOCK:   -9.87 KCAL/MOL
REMARK 923 INTER-LIGAND FREE ENERGY PREDICTED BY IDOCK:   -8.22 KCAL/MOL
REMARK 924 INTRA-LIGAND FREE ENERGY PREDICTED BY IDOCK:   -1.65 KCAL/MOL
REMARK 927      BINDING AFFINITY PREDICTED BY RF-SCORE:    0.00 PKD
ROOT
HETATM    1  C   UNL     1     -12.562  13.956  65.983  1.00  0.00    -0.423 C  
HETATM    2  N   UNL     1     -11.370  14.809  65.975  1.00  0.00    -0.343 NA 
ENDROOT
BRANCH   2   3
HETATM    3  C   UNL     1     -10.195  14.095  65.430  1.00  0.00    -0.358 C  
BRANCH   3   4
HETATM    4  C   UNL     1      -9.304  13.367  66.462  1.00  0.00    -0.225 C  
BRANCH   4   5
HETATM    5  C   UNL     1      -9.200  11.874  66.243  1.00  0.00    -0.218 A  
HETATM    6  C   UNL     1      -8.953   9.123  65.771  1.00  0.00    -0.193 A  
HETATM    7  C   UNL     1     -10.023  11.236  65.304  1.00  0.00    -0.301 A  
HETATM    8  C   UNL     1      -8.279  11.108  66.969  1.00  0.00    -0.146 A  
HETATM    9  C   UNL     1      -9.902   9.864  65.069  1.00  0.00    -0.323 A  
HETATM   10  C   UNL     1      -8.156   9.737  66.733  1.00  0.00    -0.120 A  
BRANCH   6  11
HETATM   11  N   UNL     1      -8.805   7.726  65.538  1.00  0.00    -0.356 N  
HETATM   12  H   UNL     1      -8.223   7.376  64.778  1.00  0.00     0.000 HD 
BRANCH  11  13
HETATM   13  S   UNL     1      -9.630   6.670  66.568  1.00  0.00    -0.101 S  
HETATM   14  O   UNL     1      -9.674   5.404  65.865  1.00  0.00    -0.144 OA 
HETATM   15  O   UNL     1     -10.837   7.290  67.064  1.00  0.00    -0.357 OA 
HETATM   16  C   UNL     1      -8.466   6.499  67.903  1.00  0.00    -0.118 C  
ENDBRANCH  11  13
ENDBRANCH   6  11
ENDBRANCH   4   5
ENDBRANCH   3   4
ENDBRANCH   2   3
BRANCH   2  17
HETATM   17  C   UNL     1     -11.128  15.313  67.347  1.00  0.00    -0.326 C  
BRANCH  17  18
HETATM   18  C   UNL     1     -12.225  14.957  68.363  1.00  0.00    -0.018 C  
BRANCH  18  19
HETATM   19  O   UNL     1     -11.620  14.420  69.546  1.00  0.00    -0.270 OA 
BRANCH  19  20
HETATM   20  C   UNL     1     -11.886  13.100  69.807  1.00  0.00    -0.316 A  
HETATM   21  C   UNL     1     -11.534  12.026  68.986  1.00  0.00    -0.357 A  
HETATM   22  C   UNL     1     -12.565  12.851  71.002  1.00  0.00    -0.376 A  
HETATM   23  C   UNL     1     -12.591  10.486  70.518  1.00  0.00    -0.339 A  
HETATM   24  C   UNL     1     -12.916  11.546  71.363  1.00  0.00    -0.450 A  
HETATM   25  C   UNL     1     -11.885  10.722  69.342  1.00  0.00    -0.370 A  
BRANCH  23  26
HETATM   26  N   UNL     1     -12.946   9.148  70.851  1.00  0.00    -0.521 N  
HETATM   27  H   UNL     1     -13.919   8.842  70.841  1.00  0.00     0.000 HD 
BRANCH  26  28
HETATM   28  S   UNL     1     -11.700   8.085  71.265  1.00  0.00    -0.285 S  
HETATM   29  O   UNL     1     -10.980   7.677  70.082  1.00  0.00    -0.255 OA 
HETATM   30  C   UNL     1     -12.609   6.696  71.912  1.00  0.00    -0.256 C  
HETATM   31  O   UNL     1     -11.017   8.714  72.379  1.00  0.00    -0.353 OA 
ENDBRANCH  26  28
ENDBRANCH  23  26
ENDBRANCH  19  20
ENDBRANCH  18  19
ENDBRANCH  17  18
ENDBRANCH   2  17
TORSDOF 11
ENDMDL
MODEL       65
REMARK 921   NORMALIZED FREE ENERGY PREDICTED BY IDOCK:   -5.05 KCAL/MOL
REMARK 922        TOTAL FREE ENERGY PREDICTED BY IDOCK:   -9.86 KCAL/MOL
REMARK 923 INTER-LIGAND FREE ENERGY PREDICTED BY IDOCK:   -8.81 KCAL/MOL
REMARK 924 INTRA-LIGAND FREE ENERGY PREDICTED BY IDOCK:   -1.05 KCAL/MOL
REMARK 927      BINDING AFFINITY PREDICTED BY RF-SCORE:    0.00 PKD
ROOT
HETATM    1  C   UNL     1     -13.779   9.212  72.246  1.00  0.00    -0.487 C  
HETATM    2  N   UNL     1     -12.480   8.613  71.922  1.00  0.00    -0.333 NA 
ENDROOT
BRANCH   2   3
HETATM    3  C   UNL     1     -11.686   9.489  71.034  1.00  0.00    -0.343 C  
BRANCH   3   4
HETATM    4  C   UNL     1     -12.275  10.891  70.758  1.00  0.00    -0.483 C  
BRANCH   4   5
HETATM    5  C   UNL     1     -11.891  11.467  69.414  1.00  0.00    -0.417 A  
HETATM    6  C   UNL     1     -11.098  12.546  66.952  1.00  0.00    -0.278 A  
HETATM    7  C   UNL     1     -11.910  12.854  69.204  1.00  0.00    -0.353 A  
HETATM    8  C   UNL     1     -11.506  10.628  68.360  1.00  0.00    -0.330 A  
HETATM    9  C   UNL     1     -11.516  13.393  67.976  1.00  0.00    -0.339 A  
HETATM   10  C   UNL     1     -11.111  11.166  67.133  1.00  0.00    -0.352 A  
BRANCH   6  11
HETATM   11  N   UNL     1     -10.682  13.075  65.697  1.00  0.00    -0.272 N  
HETATM   12  H   UNL     1      -9.730  13.414  65.556  1.00  0.00     0.000 HD 
BRANCH  11  13
HETATM   13  S   UNL     1     -11.821  13.120  64.450  1.00  0.00    -0.414 S  
HETATM   14  O   UNL     1     -13.042  12.595  65.026  1.00  0.00    -0.808 OA 
HETATM   15  O   UNL     1     -11.266  12.559  63.240  1.00  0.00    -0.452 OA 
HETATM   16  C   UNL     1     -12.042  14.873  64.237  1.00  0.00    -0.353 C  
ENDBRANCH  11  13
ENDBRANCH   6  11
ENDBRANCH   4   5
ENDBRANCH   3   4
ENDBRANCH   2   3
BRANCH   2  17
HETATM   17  C   UNL     1     -12.702   7.273  71.331  1.00  0.00    -0.389 C  
BRANCH  17  18
HETATM   18  C   UNL     1     -11.429   6.582  70.815  1.00  0.00    -0.360 C  
BRANCH  18  19
HETATM   19  O   UNL     1     -11.636   6.153  69.464  1.00  0.00    -0.396 OA 
BRANCH  19  20
HETATM   20  C   UNL     1     -10.575   6.328  68.612  1.00  0.00    -0.264 A  
HETATM   21  C   UNL     1      -9.307   5.765  68.773  1.00  0.00    -0.135 A  
HETATM   22  C   UNL     1     -10.824   7.144  67.506  1.00  0.00    -0.311 A  
HETATM   23  C   UNL     1      -8.540   6.880  66.771  1.00  0.00    -0.120 A  
HETATM   24  C   UNL     1      -9.811   7.418  66.581  1.00  0.00    -0.263 A  
HETATM   25  C   UNL     1      -8.293   6.040  67.853  1.00  0.00    -0.116 A  
BRANCH  23  26
HETATM   26  N   UNL     1      -7.485   7.152  65.855  1.00  0.00    -0.078 N  
HETATM   27  H   UNL     1      -6.807   7.892  66.035  1.00  0.00     0.000 HD 
BRANCH  26  28
HETATM   28  S   UNL     1      -7.394   6.205  64.459  1.00  0.00    -0.075 S  
HETATM   29  O   UNL     1      -6.066   5.656  64.314  1.00  0.00    -0.024 OA 
HETATM   30  C   UNL     1      -7.674   7.415  63.182  1.00  0.00    -0.128 C  
HETATM   31  O   UNL     1      -8.560   5.344  64.505  1.00  0.00    -0.137 OA 
ENDBRANCH  26  28
ENDBRANCH  23  26
ENDBRANCH  19  20
ENDBRANCH  18  19
ENDBRANCH  17  18
ENDBRANCH   2  17
TORSDOF 11
ENDMDL
MODEL       66
REMARK 921   NORMALIZED FREE ENERGY PREDICTED BY IDOCK:   -5.02 KCAL/MOL
REMARK 922        TOTAL FREE ENERGY PREDICTED BY IDOCK:   -9.81 KCAL/MOL
REMARK 923 INTER-LIGAND FREE ENERGY PREDICTED BY IDOCK:   -8.50 KCAL/MOL
REMARK 924 INTRA-LIGAND FREE ENERGY PREDICTED BY IDOCK:   -1.32 KCAL/MOL
REMARK 927      BINDING AFFINITY PREDICTED BY RF-SCORE:    0.00 PKD
ROOT
HETATM    1  C   UNL     1     -14.200   8.442  71.711  1.00  0.00    -0.458 C  
HETATM    2  N   UNL     1     -12.756   8.256  71.885  1.00  0.00    -0.329 NA 
ENDROOT
BRANCH   2   3
HETATM    3  C   UNL     1     -11.990   9.372  71.289  1.00  0.00    -0.353 C  
BRANCH   3   4
HETATM    4  C   UNL     1     -12.558  10.790  71.527  1.00  0.00    -0.500 C  
BRANCH   4   5
HETATM    5  C   UNL     1     -12.285  11.760  70.399  1.00  0.00    -0.416 A  
HETATM    6  C   UNL     1     -11.866  13.552  68.286  1.00  0.00    -0.366 A  
HETATM    7  C   UNL     1     -11.992  11.287  69.112  1.00  0.00    -0.405 A  
HETATM    8  C   UNL     1     -12.328  13.143  70.620  1.00  0.00    -0.405 A  
HETATM    9  C   UNL     1     -11.781  12.180  68.058  1.00  0.00    -0.409 A  
HETATM   10  C   UNL     1     -12.119  14.036  69.567  1.00  0.00    -0.397 A  
BRANCH   6  11
HETATM   11  N   UNL     1     -11.666  14.479  67.224  1.00  0.00    -0.396 N  
HETATM   12  H   UNL     1     -12.295  14.507  66.421  1.00  0.00     0.000 HD 
BRANCH  11  13
HETATM   13  S   UNL     1     -10.349  15.530  67.341  1.00  0.00    -0.271 S  
HETATM   14  O   UNL     1      -9.211  14.689  67.652  1.00  0.00    -0.186 OA 
HETATM   15  O   UNL     1     -10.684  16.667  68.168  1.00  0.00    -0.323 OA 
HETATM   16  C   UNL     1     -10.172  16.064  65.652  1.00  0.00    -0.386 C  
ENDBRANCH  11  13
ENDBRANCH   6  11
ENDBRANCH   4   5
ENDBRANCH   3   4
ENDBRANCH   2   3
BRANCH   2  17
HETATM   17  C   UNL     1     -12.367   6.945  71.316  1.00  0.00    -0.375 C  
BRANCH  17  18
HETATM   18  C   UNL     1     -10.888   6.835  70.913  1.00  0.00    -0.249 C  
BRANCH  18  19
HETATM   19  O   UNL     1     -10.777   6.045  69.722  1.00  0.00    -0.263 OA 
BRANCH  19  20
HETATM   20  C   UNL     1     -10.334   6.706  68.606  1.00  0.00    -0.188 A  
HETATM   21  C   UNL     1     -10.749   7.976  68.198  1.00  0.00    -0.093 A  
HETATM   22  C   UNL     1      -9.389   6.019  67.839  1.00  0.00    -0.110 A  
HETATM   23  C   UNL     1      -9.332   7.832  66.247  1.00  0.00    -0.151 A  
HETATM   24  C   UNL     1      -8.883   6.580  66.662  1.00  0.00    -0.135 A  
HETATM   25  C   UNL     1     -10.248   8.537  67.021  1.00  0.00    -0.371 A  
BRANCH  23  26
HETATM   26  N   UNL     1      -8.846   8.423  65.046  1.00  0.00    -0.405 N  
HETATM   27  H   UNL     1      -8.957   7.958  64.145  1.00  0.00     0.000 HD 
BRANCH  26  28
HETATM   28  S   UNL     1      -8.078   9.923  65.165  1.00  0.00    -0.145 S  
HETATM   29  O   UNL     1      -9.055  10.986  65.143  1.00  0.00    -0.205 OA 
HETATM   30  C   UNL     1      -7.128   9.963  63.658  1.00  0.00    -0.121 C  
HETATM   31  O   UNL     1      -7.143   9.786  66.264  1.00  0.00    -0.090 OA 
ENDBRANCH  26  28
ENDBRANCH  23  26
ENDBRANCH  19  20
ENDBRANCH  18  19
ENDBRANCH  17  18
ENDBRANCH   2  17
TORSDOF 11
ENDMDL
MODEL       67
REMARK 921   NORMALIZED FREE ENERGY PREDICTED BY IDOCK:   -5.01 KCAL/MOL
REMARK 922        TOTAL FREE ENERGY PREDICTED BY IDOCK:   -9.79 KCAL/MOL
REMARK 923 INTER-LIGAND FREE ENERGY PREDICTED BY IDOCK:   -7.34 KCAL/MOL
REMARK 924 INTRA-LIGAND FREE ENERGY PREDICTED BY IDOCK:   -2.45 KCAL/MOL
REMARK 927      BINDING AFFINITY PREDICTED BY RF-SCORE:    0.00 PKD
ROOT
HETATM    1  C   UNL     1     -13.786   8.971  72.502  1.00  0.00    -0.424 C  
HETATM    2  N   UNL     1     -12.500   8.762  71.830  1.00  0.00    -0.346 NA 
ENDROOT
BRANCH   2   3
HETATM    3  C   UNL     1     -12.103   9.945  71.037  1.00  0.00    -0.358 C  
BRANCH   3   4
HETATM    4  C   UNL     1     -10.655   9.947  70.497  1.00  0.00    -0.359 C  
BRANCH   4   5
HETATM    5  C   UNL     1     -10.490  10.667  69.177  1.00  0.00    -0.245 A  
HETATM    6  C   UNL     1     -10.171  11.924  66.693  1.00  0.00    -0.208 A  
HETATM    7  C   UNL     1      -9.212  11.006  68.709  1.00  0.00    -0.167 A  
HETATM    8  C   UNL     1     -11.607  11.002  68.400  1.00  0.00    -0.372 A  
HETATM    9  C   UNL     1      -9.052  11.634  67.471  1.00  0.00    -0.172 A  
HETATM   10  C   UNL     1     -11.448  11.629  67.163  1.00  0.00    -0.344 A  
BRANCH   6  11
HETATM   11  N   UNL     1     -10.030  12.554  65.424  1.00  0.00    -0.358 N  
HETATM   12  H   UNL     1      -9.815  13.548  65.347  1.00  0.00     0.000 HD 
BRANCH  11  13
HETATM   13  S   UNL     1     -10.231  11.593  64.048  1.00  0.00    -0.385 S  
HETATM   14  O   UNL     1     -10.253  10.228  64.532  1.00  0.00    -0.314 OA 
HETATM   15  O   UNL     1      -9.312  12.002  63.010  1.00  0.00    -0.281 OA 
HETATM   16  C   UNL     1     -11.890  12.015  63.562  1.00  0.00    -0.492 C  
ENDBRANCH  11  13
ENDBRANCH   6  11
ENDBRANCH   4   5
ENDBRANCH   3   4
ENDBRANCH   2   3
BRANCH   2  17
HETATM   17  C   UNL     1     -12.582   7.537  71.001  1.00  0.00    -0.189 C  
BRANCH  17  18
HETATM   18  C   UNL     1     -11.440   6.534  71.224  1.00  0.00    -0.318 C  
BRANCH  18  19
HETATM   19  O   UNL     1     -11.216   5.793  70.018  1.00  0.00    -0.335 OA 
BRANCH  19  20
HETATM   20  C   UNL     1     -10.535   6.453  69.028  1.00  0.00    -0.224 A  
HETATM   21  C   UNL     1     -11.072   6.844  67.798  1.00  0.00    -0.223 A  
HETATM   22  C   UNL     1      -9.198   6.741  69.311  1.00  0.00    -0.141 A  
HETATM   23  C   UNL     1      -8.930   7.740  67.130  1.00  0.00    -0.126 A  
HETATM   24  C   UNL     1      -8.393   7.388  68.366  1.00  0.00    -0.125 A  
HETATM   25  C   UNL     1     -10.270   7.487  66.853  1.00  0.00    -0.359 A  
BRANCH  23  26
HETATM   26  N   UNL     1      -8.133   8.387  66.143  1.00  0.00    -0.102 N  
HETATM   27  H   UNL     1      -7.904   9.378  66.216  1.00  0.00     0.000 HD 
BRANCH  26  28
HETATM   28  S   UNL     1      -7.581   7.457  64.846  1.00  0.00    -0.112 S  
HETATM   29  O   UNL     1      -7.714   6.051  65.149  1.00  0.00    -0.084 OA 
HETATM   30  C   UNL     1      -5.853   7.889  64.801  1.00  0.00    -0.045 C  
HETATM   31  O   UNL     1      -8.204   8.033  63.671  1.00  0.00    -0.134 OA 
ENDBRANCH  26  28
ENDBRANCH  23  26
ENDBRANCH  19  20
ENDBRANCH  18  19
ENDBRANCH  17  18
ENDBRANCH   2  17
TORSDOF 11
ENDMDL
MODEL       68
REMARK 921   NORMALIZED FREE ENERGY PREDICTED BY IDOCK:   -5.00 KCAL/MOL
REMARK 922        TOTAL FREE ENERGY PREDICTED BY IDOCK:   -9.77 KCAL/MOL
REMARK 923 INTER-LIGAND FREE ENERGY PREDICTED BY IDOCK:   -8.66 KCAL/MOL
REMARK 924 INTRA-LIGAND FREE ENERGY PREDICTED BY IDOCK:   -1.11 KCAL/MOL
REMARK 927      BINDING AFFINITY PREDICTED BY RF-SCORE:    0.00 PKD
ROOT
HETATM    1  C   UNL     1      -6.488  16.405  68.541  1.00  0.00    -0.134 C  
HETATM    2  N   UNL     1      -7.671  15.560  68.353  1.00  0.00    -0.121 NA 
ENDROOT
BRANCH   2   3
HETATM    3  C   UNL     1      -8.826  16.065  69.126  1.00  0.00    -0.245 C  
BRANCH   3   4
HETATM    4  C   UNL     1      -9.853  16.911  68.340  1.00  0.00    -0.266 C  
BRANCH   4   5
HETATM    5  C   UNL     1     -10.573  16.150  67.249  1.00  0.00    -0.305 A  
HETATM    6  C   UNL     1     -11.838  14.685  65.223  1.00  0.00    -0.324 A  
HETATM    7  C   UNL     1     -10.321  16.436  65.899  1.00  0.00    -0.378 A  
HETATM    8  C   UNL     1     -11.496  15.145  67.568  1.00  0.00    -0.306 A  
HETATM    9  C   UNL     1     -10.953  15.707  64.888  1.00  0.00    -0.447 A  
HETATM   10  C   UNL     1     -12.126  14.416  66.558  1.00  0.00    -0.395 A  
BRANCH   6  11
HETATM   11  N   UNL     1     -12.483  13.922  64.209  1.00  0.00    -0.678 N  
HETATM   12  H   UNL     1     -13.085  14.366  63.515  1.00  0.00     0.000 HD 
BRANCH  11  13
HETATM   13  S   UNL     1     -12.217  12.253  64.196  1.00  0.00    -0.443 S  
HETATM   14  O   UNL     1     -13.161  11.720  63.235  1.00  0.00    -0.598 OA 
HETATM   15  O   UNL     1     -12.158  11.742  65.547  1.00  0.00    -0.316 OA 
HETATM   16  C   UNL     1     -10.598  12.160  63.462  1.00  0.00    -0.458 C  
ENDBRANCH  11  13
ENDBRANCH   6  11
ENDBRANCH   4   5
ENDBRANCH   3   4
ENDBRANCH   2   3
BRANCH   2  17
HETATM   17  C   UNL     1      -7.328  14.164  68.709  1.00  0.00    -0.128 C  
BRANCH  17  18
HETATM   18  C   UNL     1      -7.622  13.131  67.610  1.00  0.00    -0.171 C  
BRANCH  18  19
HETATM   19  O   UNL     1      -9.036  12.915  67.526  1.00  0.00    -0.174 OA 
BRANCH  19  20
HETATM   20  C   UNL     1      -9.497  11.749  68.079  1.00  0.00    -0.188 A  
HETATM   21  C   UNL     1      -8.875  10.502  67.975  1.00  0.00    -0.131 A  
HETATM   22  C   UNL     1     -10.690  11.858  68.798  1.00  0.00    -0.257 A  
HETATM   23  C   UNL     1     -10.662   9.486  69.244  1.00  0.00    -0.222 A  
HETATM   24  C   UNL     1     -11.273  10.730  69.386  1.00  0.00    -0.337 A  
HETATM   25  C   UNL     1      -9.457   9.374  68.558  1.00  0.00    -0.150 A  
BRANCH  23  26
HETATM   26  N   UNL     1     -11.238   8.317  69.819  1.00  0.00    -0.450 N  
HETATM   27  H   UNL     1     -12.039   7.856  69.387  1.00  0.00     0.000 HD 
BRANCH  26  28
HETATM   28  S   UNL     1     -10.550   7.721  71.242  1.00  0.00    -0.220 S  
HETATM   29  O   UNL     1      -9.464   6.821  70.931  1.00  0.00    -0.158 OA 
HETATM   30  C   UNL     1     -11.903   6.794  71.938  1.00  0.00    -0.326 C  
HETATM   31  O   UNL     1     -10.343   8.884  72.082  1.00  0.00    -0.333 OA 
ENDBRANCH  26  28
ENDBRANCH  23  26
ENDBRANCH  19  20
ENDBRANCH  18  19
ENDBRANCH  17  18
ENDBRANCH   2  17
TORSDOF 11
ENDMDL
MODEL       69
REMARK 921   NORMALIZED FREE ENERGY PREDICTED BY IDOCK:   -4.96 KCAL/MOL
REMARK 922        TOTAL FREE ENERGY PREDICTED BY IDOCK:   -9.71 KCAL/MOL
REMARK 923 INTER-LIGAND FREE ENERGY PREDICTED BY IDOCK:   -9.05 KCAL/MOL
REMARK 924 INTRA-LIGAND FREE ENERGY PREDICTED BY IDOCK:   -0.66 KCAL/MOL
REMARK 927      BINDING AFFINITY PREDICTED BY RF-SCORE:    0.00 PKD
ROOT
HETATM    1  C   UNL     1      -9.721  10.845  62.817  1.00  0.00    -0.271 C  
HETATM    2  N   UNL     1     -10.505  11.174  64.012  1.00  0.00    -0.362 NA 
ENDROOT
BRANCH   2   3
HETATM    3  C   UNL     1     -11.197  12.473  63.867  1.00  0.00    -0.436 C  
BRANCH   3   4
HETATM    4  C   UNL     1     -11.998  12.956  65.097  1.00  0.00    -0.452 C  
BRANCH   4   5
HETATM    5  C   UNL     1     -11.338  14.084  65.859  1.00  0.00    -0.317 A  
HETATM    6  C   UNL     1     -10.172  16.231  67.232  1.00  0.00    -0.279 A  
HETATM    7  C   UNL     1     -10.325  14.848  65.260  1.00  0.00    -0.424 A  
HETATM    8  C   UNL     1     -11.731  14.389  67.169  1.00  0.00    -0.424 A  
HETATM    9  C   UNL     1      -9.742  15.917  65.944  1.00  0.00    -0.386 A  
HETATM   10  C   UNL     1     -11.149  15.458  67.853  1.00  0.00    -0.323 A  
BRANCH   6  11
HETATM   11  N   UNL     1      -9.600  17.324  67.943  1.00  0.00    -0.263 N  
HETATM   12  H   UNL     1      -9.044  17.174  68.785  1.00  0.00     0.000 HD 
BRANCH  11  13
HETATM   13  S   UNL     1      -9.873  18.878  67.340  1.00  0.00    -0.339 S  
HETATM   14  O   UNL     1     -10.206  19.686  68.496  1.00  0.00    -0.427 OA 
HETATM   15  O   UNL     1     -10.747  18.826  66.189  1.00  0.00    -0.393 OA 
HETATM   16  C   UNL     1      -8.238  19.346  66.814  1.00  0.00    -0.292 C  
ENDBRANCH  11  13
ENDBRANCH   6  11
ENDBRANCH   4   5
ENDBRANCH   3   4
ENDBRANCH   2   3
BRANCH   2  17
HETATM   17  C   UNL     1      -9.614  11.145  65.196  1.00  0.00    -0.234 C  
BRANCH  17  18
HETATM   18  C   UNL     1     -10.047  10.169  66.301  1.00  0.00    -0.238 C  
BRANCH  18  19
HETATM   19  O   UNL     1     -10.349  10.905  67.493  1.00  0.00    -0.186 OA 
BRANCH  19  20
HETATM   20  C   UNL     1     -10.600  10.153  68.612  1.00  0.00    -0.210 A  
HETATM   21  C   UNL     1     -11.309  10.586  69.736  1.00  0.00    -0.367 A  
HETATM   22  C   UNL     1     -10.090   8.853  68.587  1.00  0.00    -0.206 A  
HETATM   23  C   UNL     1     -10.936   8.456  70.812  1.00  0.00    -0.247 A  
HETATM   24  C   UNL     1     -10.259   8.000  69.683  1.00  0.00    -0.208 A  
HETATM   25  C   UNL     1     -11.477   9.738  70.832  1.00  0.00    -0.447 A  
BRANCH  23  26
HETATM   26  N   UNL     1     -11.113   7.616  71.949  1.00  0.00    -0.241 N  
HETATM   27  H   UNL     1     -11.991   7.121  72.107  1.00  0.00     0.000 HD 
BRANCH  26  28
HETATM   28  S   UNL     1      -9.820   7.469  73.025  1.00  0.00    -0.266 S  
HETATM   29  O   UNL     1      -9.026   8.675  73.018  1.00  0.00    -0.326 OA 
HETATM   30  C   UNL     1      -8.885   6.143  72.288  1.00  0.00    -0.137 C  
HETATM   31  O   UNL     1     -10.401   6.960  74.252  1.00  0.00    -0.346 OA 
ENDBRANCH  26  28
ENDBRANCH  23  26
ENDBRANCH  19  20
ENDBRANCH  18  19
ENDBRANCH  17  18
ENDBRANCH   2  17
TORSDOF 11
ENDMDL
MODEL       70
REMARK 921   NORMALIZED FREE ENERGY PREDICTED BY IDOCK:   -4.95 KCAL/MOL
REMARK 922        TOTAL FREE ENERGY PREDICTED BY IDOCK:   -9.69 KCAL/MOL
REMARK 923 INTER-LIGAND FREE ENERGY PREDICTED BY IDOCK:   -8.28 KCAL/MOL
REMARK 924 INTRA-LIGAND FREE ENERGY PREDICTED BY IDOCK:   -1.41 KCAL/MOL
REMARK 927      BINDING AFFINITY PREDICTED BY RF-SCORE:    0.00 PKD
ROOT
HETATM    1  C   UNL     1     -10.475  20.146  65.359  1.00  0.00    -0.004 C  
HETATM    2  N   UNL     1      -9.875  20.095  66.696  1.00  0.00    -0.440 NA 
ENDROOT
BRANCH   2   3
HETATM    3  C   UNL     1      -8.399  20.158  66.631  1.00  0.00    -0.285 C  
BRANCH   3   4
HETATM    4  C   UNL     1      -7.649  19.887  67.955  1.00  0.00    -0.332 C  
BRANCH   4   5
HETATM    5  C   UNL     1      -7.071  18.493  68.062  1.00  0.00    -0.246 A  
HETATM    6  C   UNL     1      -5.919  15.946  68.255  1.00  0.00    -0.108 A  
HETATM    7  C   UNL     1      -6.732  17.775  66.906  1.00  0.00    -0.211 A  
HETATM    8  C   UNL     1      -6.859  17.901  69.314  1.00  0.00    -0.183 A  
HETATM    9  C   UNL     1      -6.159  16.504  67.001  1.00  0.00    -0.173 A  
HETATM   10  C   UNL     1      -6.286  16.632  69.410  1.00  0.00    -0.205 A  
BRANCH   6  11
HETATM   11  N   UNL     1      -5.326  14.657  68.375  1.00  0.00    -0.101 N  
HETATM   12  H   UNL     1      -4.399  14.538  68.785  1.00  0.00     0.000 HD 
BRANCH  11  13
HETATM   13  S   UNL     1      -6.212  13.333  67.813  1.00  0.00    -0.150 S  
HETATM   14  O   UNL     1      -5.363  12.693  66.828  1.00  0.00    -0.298 OA 
HETATM   15  O   UNL     1      -7.562  13.731  67.488  1.00  0.00    -0.163 OA 
HETATM   16  C   UNL     1      -6.238  12.289  69.254  1.00  0.00    -0.098 C  
ENDBRANCH  11  13
ENDBRANCH   6  11
ENDBRANCH   4   5
ENDBRANCH   3   4
ENDBRANCH   2   3
BRANCH   2  17
HETATM   17  C   UNL     1     -10.351  18.877  67.392  1.00  0.00    -0.427 C  
BRANCH  17  18
HETATM   18  C   UNL     1     -10.534  17.651  66.484  1.00  0.00    -0.283 C  
BRANCH  18  19
HETATM   19  O   UNL     1      -9.788  16.550  67.017  1.00  0.00    -0.245 OA 
BRANCH  19  20
HETATM   20  C   UNL     1     -10.419  15.814  67.987  1.00  0.00    -0.270 A  
HETATM   21  C   UNL     1     -11.456  14.904  67.767  1.00  0.00    -0.353 A  
HETATM   22  C   UNL     1      -9.957  16.020  69.289  1.00  0.00    -0.252 A  
HETATM   23  C   UNL     1     -11.599  14.469  70.139  1.00  0.00    -0.276 A  
HETATM   24  C   UNL     1     -10.541  15.346  70.367  1.00  0.00    -0.274 A  
HETATM   25  C   UNL     1     -12.044  14.233  68.842  1.00  0.00    -0.314 A  
BRANCH  23  26
HETATM   26  N   UNL     1     -12.224  13.778  71.217  1.00  0.00    -0.396 N  
HETATM   27  H   UNL     1     -11.962  12.821  71.453  1.00  0.00     0.000 HD 
BRANCH  26  28
HETATM   28  S   UNL     1     -13.413  14.599  72.091  1.00  0.00    -0.441 S  
HETATM   29  O   UNL     1     -13.814  15.794  71.386  1.00  0.00    -0.522 OA 
HETATM   30  C   UNL     1     -12.527  15.055  73.568  1.00  0.00    -0.513 C  
HETATM   31  O   UNL     1     -14.382  13.586  72.461  1.00  0.00    -0.713 OA 
ENDBRANCH  26  28
ENDBRANCH  23  26
ENDBRANCH  19  20
ENDBRANCH  18  19
ENDBRANCH  17  18
ENDBRANCH   2  17
TORSDOF 11
ENDMDL
MODEL       71
REMARK 921   NORMALIZED FREE ENERGY PREDICTED BY IDOCK:   -4.94 KCAL/MOL
REMARK 922        TOTAL FREE ENERGY PREDICTED BY IDOCK:   -9.67 KCAL/MOL
REMARK 923 INTER-LIGAND FREE ENERGY PREDICTED BY IDOCK:   -8.79 KCAL/MOL
REMARK 924 INTRA-LIGAND FREE ENERGY PREDICTED BY IDOCK:   -0.88 KCAL/MOL
REMARK 927      BINDING AFFINITY PREDICTED BY RF-SCORE:    0.00 PKD
ROOT
HETATM    1  C   UNL     1     -10.666  11.631  63.341  1.00  0.00    -0.391 C  
HETATM    2  N   UNL     1     -10.643  12.573  64.465  1.00  0.00    -0.316 NA 
ENDROOT
BRANCH   2   3
HETATM    3  C   UNL     1      -9.882  12.032  65.611  1.00  0.00    -0.243 C  
BRANCH   3   4
HETATM    4  C   UNL     1     -10.169  10.559  65.983  1.00  0.00    -0.310 C  
BRANCH   4   5
HETATM    5  C   UNL     1     -10.374  10.326  67.463  1.00  0.00    -0.276 A  
HETATM    6  C   UNL     1     -10.813   9.831  70.186  1.00  0.00    -0.291 A  
HETATM    7  C   UNL     1     -11.402  10.986  68.151  1.00  0.00    -0.374 A  
HETATM    8  C   UNL     1      -9.546   9.442  68.168  1.00  0.00    -0.158 A  
HETATM    9  C   UNL     1     -11.621  10.741  69.509  1.00  0.00    -0.375 A  
HETATM   10  C   UNL     1      -9.765   9.197  69.526  1.00  0.00    -0.176 A  
BRANCH   6  11
HETATM   11  N   UNL     1     -11.026   9.558  71.567  1.00  0.00    -0.357 N  
HETATM   12  H   UNL     1     -10.617  10.147  72.292  1.00  0.00     0.000 HD 
BRANCH  11  13
HETATM   13  S   UNL     1     -11.983   8.222  71.962  1.00  0.00    -0.374 S  
HETATM   14  O   UNL     1     -11.508   7.779  73.257  1.00  0.00    -0.295 OA 
HETATM   15  O   UNL     1     -12.059   7.309  70.844  1.00  0.00    -0.320 OA 
HETATM   16  C   UNL     1     -13.572   8.985  72.207  1.00  0.00    -0.484 C  
ENDBRANCH  11  13
ENDBRANCH   6  11
ENDBRANCH   4   5
ENDBRANCH   3   4
ENDBRANCH   2   3
BRANCH   2  17
HETATM   17  C   UNL     1     -12.036  12.918  64.833  1.00  0.00    -0.432 C  
BRANCH  17  18
HETATM   18  C   UNL     1     -12.193  14.262  65.561  1.00  0.00    -0.402 C  
BRANCH  18  19
HETATM   19  O   UNL     1     -11.382  15.250  64.914  1.00  0.00    -0.389 OA 
BRANCH  19  20
HETATM   20  C   UNL     1     -10.776  16.161  65.741  1.00  0.00    -0.280 A  
HETATM   21  C   UNL     1     -10.646  17.528  65.482  1.00  0.00    -0.097 A  
HETATM   22  C   UNL     1     -10.259  15.640  66.929  1.00  0.00    -0.281 A  
HETATM   23  C   UNL     1      -9.439  17.823  67.554  1.00  0.00    -0.257 A  
HETATM   24  C   UNL     1      -9.594  16.468  67.840  1.00  0.00    -0.233 A  
HETATM   25  C   UNL     1      -9.980  18.356  66.388  1.00  0.00    -0.399 A  
BRANCH  23  26
HETATM   26  N   UNL     1      -8.755  18.688  68.455  1.00  0.00    -0.325 N  
HETATM   27  H   UNL     1      -9.265  19.350  69.041  1.00  0.00     0.000 HD 
BRANCH  26  28
HETATM   28  S   UNL     1      -7.071  18.582  68.520  1.00  0.00    -0.285 S  
HETATM   29  O   UNL     1      -6.671  17.263  68.952  1.00  0.00    -0.195 OA 
HETATM   30  C   UNL     1      -6.683  19.763  69.796  1.00  0.00    -0.279 C  
HETATM   31  O   UNL     1      -6.605  19.132  67.262  1.00  0.00    -0.193 OA 
ENDBRANCH  26  28
ENDBRANCH  23  26
ENDBRANCH  19  20
ENDBRANCH  18  19
ENDBRANCH  17  18
ENDBRANCH   2  17
TORSDOF 11
ENDMDL
MODEL       72
REMARK 921   NORMALIZED FREE ENERGY PREDICTED BY IDOCK:   -4.93 KCAL/MOL
REMARK 922        TOTAL FREE ENERGY PREDICTED BY IDOCK:   -9.66 KCAL/MOL
REMARK 923 INTER-LIGAND FREE ENERGY PREDICTED BY IDOCK:   -8.68 KCAL/MOL
REMARK 924 INTRA-LIGAND FREE ENERGY PREDICTED BY IDOCK:   -0.98 KCAL/MOL
REMARK 927      BINDING AFFINITY PREDICTED BY RF-SCORE:    0.00 PKD
ROOT
HETATM    1  C   UNL     1      -9.068   8.381  72.658  1.00  0.00    -0.241 C  
HETATM    2  N   UNL     1     -10.053   8.374  71.571  1.00  0.00    -0.207 NA 
ENDROOT
BRANCH   2   3
HETATM    3  C   UNL     1     -10.117   9.684  70.889  1.00  0.00    -0.186 C  
BRANCH   3   4
HETATM    4  C   UNL     1     -11.487  10.068  70.283  1.00  0.00    -0.372 C  
BRANCH   4   5
HETATM    5  C   UNL     1     -11.403  11.077  69.159  1.00  0.00    -0.348 A  
HETATM    6  C   UNL     1     -11.326  12.917  67.047  1.00  0.00    -0.309 A  
HETATM    7  C   UNL     1     -10.908  10.699  67.902  1.00  0.00    -0.328 A  
HETATM    8  C   UNL     1     -11.823  12.400  69.352  1.00  0.00    -0.365 A  
HETATM    9  C   UNL     1     -10.868  11.616  66.849  1.00  0.00    -0.322 A  
HETATM   10  C   UNL     1     -11.784  13.317  68.300  1.00  0.00    -0.388 A  
BRANCH   6  11
HETATM   11  N   UNL     1     -11.305  13.865  65.984  1.00  0.00    -0.318 N  
HETATM   12  H   UNL     1     -10.780  14.736  66.063  1.00  0.00     0.000 HD 
BRANCH  11  13
HETATM   13  S   UNL     1     -12.180  13.493  64.588  1.00  0.00    -0.399 S  
HETATM   14  O   UNL     1     -12.440  14.766  63.947  1.00  0.00    -0.811 OA 
HETATM   15  O   UNL     1     -13.257  12.579  64.896  1.00  0.00    -0.787 OA 
HETATM   16  C   UNL     1     -10.952  12.647  63.616  1.00  0.00    -0.416 C  
ENDBRANCH  11  13
ENDBRANCH   6  11
ENDBRANCH   4   5
ENDBRANCH   3   4
ENDBRANCH   2   3
BRANCH   2  17
HETATM   17  C   UNL     1     -11.369   7.965  72.117  1.00  0.00    -0.313 C  
BRANCH  17  18
HETATM   18  C   UNL     1     -11.819   6.552  71.712  1.00  0.00    -0.335 C  
BRANCH  18  19
HETATM   19  O   UNL     1     -12.212   6.555  70.334  1.00  0.00    -0.306 OA 
BRANCH  19  20
HETATM   20  C   UNL     1     -11.245   6.184  69.435  1.00  0.00    -0.396 A  
HETATM   21  C   UNL     1     -10.287   5.189  69.642  1.00  0.00    -0.316 A  
HETATM   22  C   UNL     1     -11.253   6.883  68.226  1.00  0.00    -0.070 A  
HETATM   23  C   UNL     1      -9.324   5.642  67.473  1.00  0.00    -0.109 A  
HETATM   24  C   UNL     1     -10.298   6.612  67.240  1.00  0.00    -0.296 A  
HETATM   25  C   UNL     1      -9.330   4.919  68.661  1.00  0.00    -0.182 A  
BRANCH  23  26
HETATM   26  N   UNL     1      -8.330   5.353  66.495  1.00  0.00    -0.109 N  
HETATM   27  H   UNL     1      -7.472   5.901  66.436  1.00  0.00     0.000 HD 
BRANCH  26  28
HETATM   28  S   UNL     1      -8.621   4.070  65.436  1.00  0.00    -0.116 S  
HETATM   29  O   UNL     1      -8.247   2.819  66.053  1.00  0.00    -0.083 OA 
HETATM   30  C   UNL     1      -7.490   4.434  64.108  1.00  0.00    -0.070 C  
HETATM   31  O   UNL     1      -9.964   4.286  64.934  1.00  0.00    -0.185 OA 
ENDBRANCH  26  28
ENDBRANCH  23  26
ENDBRANCH  19  20
ENDBRANCH  18  19
ENDBRANCH  17  18
ENDBRANCH   2  17
TORSDOF 11
ENDMDL
MODEL       73
REMARK 921   NORMALIZED FREE ENERGY PREDICTED BY IDOCK:   -4.93 KCAL/MOL
REMARK 922        TOTAL FREE ENERGY PREDICTED BY IDOCK:   -9.66 KCAL/MOL
REMARK 923 INTER-LIGAND FREE ENERGY PREDICTED BY IDOCK:   -8.67 KCAL/MOL
REMARK 924 INTRA-LIGAND FREE ENERGY PREDICTED BY IDOCK:   -0.98 KCAL/MOL
REMARK 927      BINDING AFFINITY PREDICTED BY RF-SCORE:    0.00 PKD
ROOT
HETATM    1  C   UNL     1      -9.086   9.470  62.373  1.00  0.00    -0.238 C  
HETATM    2  N   UNL     1      -9.504  10.180  63.586  1.00  0.00    -0.289 NA 
ENDROOT
BRANCH   2   3
HETATM    3  C   UNL     1      -9.929  11.564  63.285  1.00  0.00    -0.409 C  
BRANCH   3   4
HETATM    4  C   UNL     1     -11.394  11.915  63.632  1.00  0.00    -0.536 C  
BRANCH   4   5
HETATM    5  C   UNL     1     -11.564  12.601  64.969  1.00  0.00    -0.384 A  
HETATM    6  C   UNL     1     -11.966  13.868  67.436  1.00  0.00    -0.401 A  
HETATM    7  C   UNL     1     -11.738  13.991  65.037  1.00  0.00    -0.366 A  
HETATM    8  C   UNL     1     -11.556  11.861  66.159  1.00  0.00    -0.299 A  
HETATM    9  C   UNL     1     -11.937  14.624  66.267  1.00  0.00    -0.262 A  
HETATM   10  C   UNL     1     -11.755  12.493  67.388  1.00  0.00    -0.432 A  
BRANCH   6  11
HETATM   11  N   UNL     1     -12.178  14.491  68.699  1.00  0.00    -0.579 N  
HETATM   12  H   UNL     1     -13.033  14.328  69.232  1.00  0.00     0.000 HD 
BRANCH  11  13
HETATM   13  S   UNL     1     -10.964  15.510  69.283  1.00  0.00    -0.293 S  
HETATM   14  O   UNL     1     -11.026  15.395  70.726  1.00  0.00    -0.326 OA 
HETATM   15  O   UNL     1     -11.033  16.799  68.634  1.00  0.00    -0.338 OA 
HETATM   16  C   UNL     1      -9.498  14.658  68.742  1.00  0.00    -0.199 C  
ENDBRANCH  11  13
ENDBRANCH   6  11
ENDBRANCH   4   5
ENDBRANCH   3   4
ENDBRANCH   2   3
BRANCH   2  17
HETATM   17  C   UNL     1      -8.400  10.138  64.573  1.00  0.00    -0.167 C  
BRANCH  17  18
HETATM   18  C   UNL     1      -8.835   9.802  66.009  1.00  0.00    -0.147 C  
BRANCH  18  19
HETATM   19  O   UNL     1      -9.811   8.754  65.976  1.00  0.00    -0.258 OA 
BRANCH  19  20
HETATM   20  C   UNL     1     -10.242   8.300  67.196  1.00  0.00    -0.295 A  
HETATM   21  C   UNL     1     -10.273   9.050  68.374  1.00  0.00    -0.232 A  
HETATM   22  C   UNL     1     -10.679   6.973  67.221  1.00  0.00    -0.412 A  
HETATM   23  C   UNL     1     -11.108   7.137  69.590  1.00  0.00    -0.179 A  
HETATM   24  C   UNL     1     -11.117   6.389  68.414  1.00  0.00    -0.374 A  
HETATM   25  C   UNL     1     -10.706   8.469  69.568  1.00  0.00    -0.181 A  
BRANCH  23  26
HETATM   26  N   UNL     1     -11.535   6.567  70.824  1.00  0.00    -0.340 N  
HETATM   27  H   UNL     1     -12.523   6.532  71.075  1.00  0.00     0.000 HD 
BRANCH  26  28
HETATM   28  S   UNL     1     -10.348   5.951  71.856  1.00  0.00    -0.216 S  
HETATM   29  O   UNL     1      -9.391   5.172  71.106  1.00  0.00    -0.141 OA 
HETATM   30  C   UNL     1     -11.303   4.867  72.899  1.00  0.00    -0.216 C  
HETATM   31  O   UNL     1      -9.928   7.076  72.668  1.00  0.00    -0.166 OA 
ENDBRANCH  26  28
ENDBRANCH  23  26
ENDBRANCH  19  20
ENDBRANCH  18  19
ENDBRANCH  17  18
ENDBRANCH   2  17
TORSDOF 11
ENDMDL
MODEL       74
REMARK 921   NORMALIZED FREE ENERGY PREDICTED BY IDOCK:   -4.92 KCAL/MOL
REMARK 922        TOTAL FREE ENERGY PREDICTED BY IDOCK:   -9.65 KCAL/MOL
REMARK 923 INTER-LIGAND FREE ENERGY PREDICTED BY IDOCK:   -8.90 KCAL/MOL
REMARK 924 INTRA-LIGAND FREE ENERGY PREDICTED BY IDOCK:   -0.75 KCAL/MOL
REMARK 927      BINDING AFFINITY PREDICTED BY RF-SCORE:    0.00 PKD
ROOT
HETATM    1  C   UNL     1     -10.631  14.991  69.437  1.00  0.00    -0.256 C  
HETATM    2  N   UNL     1     -11.892  14.557  68.827  1.00  0.00    -0.319 NA 
ENDROOT
BRANCH   2   3
HETATM    3  C   UNL     1     -12.156  13.125  69.089  1.00  0.00    -0.214 C  
BRANCH   3   4
HETATM    4  C   UNL     1     -12.279  12.718  70.575  1.00  0.00    -0.389 C  
BRANCH   4   5
HETATM    5  C   UNL     1     -12.260  11.224  70.808  1.00  0.00    -0.479 A  
HETATM    6  C   UNL     1     -12.160   8.467  71.299  1.00  0.00    -0.284 A  
HETATM    7  C   UNL     1     -11.365  10.406  70.103  1.00  0.00    -0.397 A  
HETATM    8  C   UNL     1     -13.130  10.634  71.734  1.00  0.00    -0.571 A  
HETATM    9  C   UNL     1     -11.315   9.031  70.346  1.00  0.00    -0.242 A  
HETATM   10  C   UNL     1     -13.081   9.260  71.978  1.00  0.00    -0.512 A  
BRANCH   6  11
HETATM   11  N   UNL     1     -12.118   7.070  71.570  1.00  0.00    -0.332 N  
HETATM   12  H   UNL     1     -12.781   6.427  71.136  1.00  0.00     0.000 HD 
BRANCH  11  13
HETATM   13  S   UNL     1     -10.930   6.515  72.636  1.00  0.00    -0.261 S  
HETATM   14  O   UNL     1     -11.507   5.355  73.284  1.00  0.00    -0.268 OA 
HETATM   15  O   UNL     1     -10.396   7.613  73.409  1.00  0.00    -0.341 OA 
HETATM   16  C   UNL     1      -9.686   5.932  71.505  1.00  0.00    -0.161 C  
ENDBRANCH  11  13
ENDBRANCH   6  11
ENDBRANCH   4   5
ENDBRANCH   3   4
ENDBRANCH   2   3
BRANCH   2  17
HETATM   17  C   UNL     1     -11.856  14.861  67.377  1.00  0.00    -0.224 C  
BRANCH  17  18
HETATM   18  C   UNL     1     -12.378  13.734  66.472  1.00  0.00    -0.386 C  
BRANCH  18  19
HETATM   19  O   UNL     1     -11.662  13.751  65.231  1.00  0.00    -0.319 OA 
BRANCH  19  20
HETATM   20  C   UNL     1     -10.963  12.611  64.928  1.00  0.00    -0.293 A  
HETATM   21  C   UNL     1     -10.387  12.320  63.688  1.00  0.00    -0.463 A  
HETATM   22  C   UNL     1     -10.839  11.690  65.970  1.00  0.00    -0.339 A  
HETATM   23  C   UNL     1      -9.632  10.182  64.522  1.00  0.00    -0.311 A  
HETATM   24  C   UNL     1     -10.171  10.477  65.773  1.00  0.00    -0.310 A  
HETATM   25  C   UNL     1      -9.722  11.109  63.488  1.00  0.00    -0.367 A  
BRANCH  23  26
HETATM   26  N   UNL     1      -8.958   8.950  64.286  1.00  0.00    -0.418 N  
HETATM   27  H   UNL     1      -8.861   8.574  63.343  1.00  0.00     0.000 HD 
BRANCH  26  28
HETATM   28  S   UNL     1      -8.324   8.134  65.622  1.00  0.00    -0.149 S  
HETATM   29  O   UNL     1      -7.646   9.061  66.497  1.00  0.00    -0.088 OA 
HETATM   30  C   UNL     1      -7.125   7.062  64.855  1.00  0.00    -0.064 C  
HETATM   31  O   UNL     1      -9.405   7.299  66.107  1.00  0.00    -0.141 OA 
ENDBRANCH  26  28
ENDBRANCH  23  26
ENDBRANCH  19  20
ENDBRANCH  18  19
ENDBRANCH  17  18
ENDBRANCH   2  17
TORSDOF 11
ENDMDL
MODEL       75
REMARK 921   NORMALIZED FREE ENERGY PREDICTED BY IDOCK:   -4.92 KCAL/MOL
REMARK 922        TOTAL FREE ENERGY PREDICTED BY IDOCK:   -9.65 KCAL/MOL
REMARK 923 INTER-LIGAND FREE ENERGY PREDICTED BY IDOCK:   -8.24 KCAL/MOL
REMARK 924 INTRA-LIGAND FREE ENERGY PREDICTED BY IDOCK:   -1.41 KCAL/MOL
REMARK 927      BINDING AFFINITY PREDICTED BY RF-SCORE:    0.00 PKD
ROOT
HETATM    1  C   UNL     1      -7.455  20.096  65.779  1.00  0.00    -0.251 C  
HETATM    2  N   UNL     1      -8.789  19.729  66.264  1.00  0.00    -0.372 NA 
ENDROOT
BRANCH   2   3
HETATM    3  C   UNL     1      -8.818  19.613  67.738  1.00  0.00    -0.322 C  
BRANCH   3   4
HETATM    4  C   UNL     1      -8.018  18.437  68.342  1.00  0.00    -0.325 C  
BRANCH   4   5
HETATM    5  C   UNL     1      -8.881  17.327  68.899  1.00  0.00    -0.173 A  
HETATM    6  C   UNL     1     -10.502  15.247  69.848  1.00  0.00    -0.262 A  
HETATM    7  C   UNL     1     -10.249  17.536  69.125  1.00  0.00    -0.256 A  
HETATM    8  C   UNL     1      -8.331  16.071  69.191  1.00  0.00    -0.244 A  
HETATM    9  C   UNL     1     -11.058  16.501  69.600  1.00  0.00    -0.235 A  
HETATM   10  C   UNL     1      -9.139  15.036  69.664  1.00  0.00     0.005 A  
BRANCH   6  11
HETATM   11  N   UNL     1     -11.311  14.175  70.320  1.00  0.00    -0.479 N  
HETATM   12  H   UNL     1     -11.183  13.224  69.975  1.00  0.00     0.000 HD 
BRANCH  11  13
HETATM   13  S   UNL     1     -12.491  14.535  71.474  1.00  0.00    -0.370 S  
HETATM   14  O   UNL     1     -13.552  15.200  70.745  1.00  0.00    -0.353 OA 
HETATM   15  O   UNL     1     -11.889  15.147  72.637  1.00  0.00    -0.399 OA 
HETATM   16  C   UNL     1     -13.075  12.909  71.902  1.00  0.00    -0.373 C  
ENDBRANCH  11  13
ENDBRANCH   6  11
ENDBRANCH   4   5
ENDBRANCH   3   4
ENDBRANCH   2   3
BRANCH   2  17
HETATM   17  C   UNL     1      -9.216  18.476  65.598  1.00  0.00     0.739 C  
BRANCH  17  18
HETATM   18  C   UNL     1     -10.732  18.223  65.619  1.00  0.00    -0.033 C  
BRANCH  18  19
HETATM   19  O   UNL     1     -11.060  17.226  64.644  1.00  0.00    -1.052 OA 
BRANCH  19  20
HETATM   20  C   UNL     1     -10.895  15.924  65.042  1.00  0.00    -0.426 A  
HETATM   21  C   UNL     1      -9.916  15.465  65.926  1.00  0.00    -0.374 A  
HETATM   22  C   UNL     1     -11.801  15.011  64.495  1.00  0.00    -0.377 A  
HETATM   23  C   UNL     1     -10.711  13.200  65.659  1.00  0.00    -0.280 A  
HETATM   24  C   UNL     1     -11.715  13.650  64.805  1.00  0.00    -0.399 A  
HETATM   25  C   UNL     1      -9.826  14.106  66.235  1.00  0.00    -0.321 A  
BRANCH  23  26
HETATM   26  N   UNL     1     -10.589  11.818  65.983  1.00  0.00    -0.251 N  
HETATM   27  H   UNL     1     -10.294  11.136  65.285  1.00  0.00     0.000 HD 
BRANCH  26  28
HETATM   28  S   UNL     1     -10.951  11.348  67.565  1.00  0.00    -0.278 S  
HETATM   29  O   UNL     1     -11.931  12.240  68.138  1.00  0.00    -0.386 OA 
HETATM   30  C   UNL     1      -9.385  11.588  68.380  1.00  0.00    -0.194 C  
HETATM   31  O   UNL     1     -11.188   9.919  67.493  1.00  0.00    -0.196 OA 
ENDBRANCH  26  28
ENDBRANCH  23  26
ENDBRANCH  19  20
ENDBRANCH  18  19
ENDBRANCH  17  18
ENDBRANCH   2  17
TORSDOF 11
ENDMDL
MODEL       76
REMARK 921   NORMALIZED FREE ENERGY PREDICTED BY IDOCK:   -4.90 KCAL/MOL
REMARK 922        TOTAL FREE ENERGY PREDICTED BY IDOCK:   -9.62 KCAL/MOL
REMARK 923 INTER-LIGAND FREE ENERGY PREDICTED BY IDOCK:   -8.48 KCAL/MOL
REMARK 924 INTRA-LIGAND FREE ENERGY PREDICTED BY IDOCK:   -1.14 KCAL/MOL
REMARK 927      BINDING AFFINITY PREDICTED BY RF-SCORE:    0.00 PKD
ROOT
HETATM    1  C   UNL     1      -6.479   4.439  64.379  1.00  0.00    -0.038 C  
HETATM    2  N   UNL     1      -7.573   5.094  65.104  1.00  0.00    -0.080 NA 
ENDROOT
BRANCH   2   3
HETATM    3  C   UNL     1      -8.758   4.215  65.206  1.00  0.00    -0.122 C  
BRANCH   3   4
HETATM    4  C   UNL     1      -9.022   3.591  66.596  1.00  0.00    -0.158 C  
BRANCH   4   5
HETATM    5  C   UNL     1      -9.724   4.517  67.564  1.00  0.00    -0.213 A  
HETATM    6  C   UNL     1     -11.099   6.185  69.347  1.00  0.00    -0.409 A  
HETATM    7  C   UNL     1     -10.458   5.615  67.091  1.00  0.00    -0.334 A  
HETATM    8  C   UNL     1      -9.659   4.290  68.945  1.00  0.00    -0.227 A  
HETATM    9  C   UNL     1     -11.142   6.448  67.979  1.00  0.00    -0.365 A  
HETATM   10  C   UNL     1     -10.344   5.122  69.833  1.00  0.00    -0.347 A  
BRANCH   6  11
HETATM   11  N   UNL     1     -11.799   7.015  70.268  1.00  0.00    -0.567 N  
HETATM   12  H   UNL     1     -12.757   6.803  70.548  1.00  0.00     0.000 HD 
BRANCH  11  13
HETATM   13  S   UNL     1     -10.985   8.362  70.882  1.00  0.00    -0.249 S  
HETATM   14  O   UNL     1     -11.891   9.477  70.693  1.00  0.00    -0.270 OA 
HETATM   15  O   UNL     1      -9.632   8.407  70.377  1.00  0.00    -0.165 OA 
HETATM   16  C   UNL     1     -10.950   7.992  72.622  1.00  0.00    -0.382 C  
ENDBRANCH  11  13
ENDBRANCH   6  11
ENDBRANCH   4   5
ENDBRANCH   3   4
ENDBRANCH   2   3
BRANCH   2  17
HETATM   17  C   UNL     1      -7.889   6.380  64.439  1.00  0.00    -0.115 C  
BRANCH  17  18
HETATM   18  C   UNL     1      -7.883   7.602  65.372  1.00  0.00    -0.115 C  
BRANCH  18  19
HETATM   19  O   UNL     1      -7.641   8.786  64.602  1.00  0.00    -0.101 OA 
BRANCH  19  20
HETATM   20  C   UNL     1      -8.710   9.631  64.452  1.00  0.00    -0.205 A  
HETATM   21  C   UNL     1      -9.055  10.299  63.275  1.00  0.00    -0.284 A  
HETATM   22  C   UNL     1      -9.494   9.813  65.594  1.00  0.00    -0.307 A  
HETATM   23  C   UNL     1     -10.909  11.362  64.401  1.00  0.00    -0.330 A  
HETATM   24  C   UNL     1     -10.597  10.673  65.571  1.00  0.00    -0.180 A  
HETATM   25  C   UNL     1     -10.153  11.162  63.250  1.00  0.00    -0.426 A  
BRANCH  23  26
HETATM   26  N   UNL     1     -12.017  12.256  64.350  1.00  0.00    -0.391 N  
HETATM   27  H   UNL     1     -12.952  11.924  64.114  1.00  0.00     0.000 HD 
BRANCH  26  28
HETATM   28  S   UNL     1     -11.729  13.884  64.695  1.00  0.00    -0.417 S  
HETATM   29  O   UNL     1     -10.315  14.167  64.615  1.00  0.00    -0.432 OA 
HETATM   30  C   UNL     1     -12.258  13.993  66.393  1.00  0.00    -0.460 C  
HETATM   31  O   UNL     1     -12.687  14.619  63.893  1.00  0.00    -0.788 OA 
ENDBRANCH  26  28
ENDBRANCH  23  26
ENDBRANCH  19  20
ENDBRANCH  18  19
ENDBRANCH  17  18
ENDBRANCH   2  17
TORSDOF 11
ENDMDL
MODEL       77
REMARK 921   NORMALIZED FREE ENERGY PREDICTED BY IDOCK:   -4.89 KCAL/MOL
REMARK 922        TOTAL FREE ENERGY PREDICTED BY IDOCK:   -9.60 KCAL/MOL
REMARK 923 INTER-LIGAND FREE ENERGY PREDICTED BY IDOCK:   -7.78 KCAL/MOL
REMARK 924 INTRA-LIGAND FREE ENERGY PREDICTED BY IDOCK:   -1.81 KCAL/MOL
REMARK 927      BINDING AFFINITY PREDICTED BY RF-SCORE:    0.00 PKD
ROOT
HETATM    1  C   UNL     1     -10.408   7.420  73.067  1.00  0.00    -0.306 C  
HETATM    2  N   UNL     1     -11.399   6.753  72.217  1.00  0.00    -0.264 NA 
ENDROOT
BRANCH   2   3
HETATM    3  C   UNL     1     -10.760   6.080  71.065  1.00  0.00    -0.265 C  
BRANCH   3   4
HETATM    4  C   UNL     1     -11.354   6.403  69.675  1.00  0.00    -0.479 C  
BRANCH   4   5
HETATM    5  C   UNL     1     -10.455   7.249  68.802  1.00  0.00    -0.214 A  
HETATM    6  C   UNL     1      -8.843   8.885  67.196  1.00  0.00    -0.123 A  
HETATM    7  C   UNL     1     -10.713   7.376  67.429  1.00  0.00    -0.348 A  
HETATM    8  C   UNL     1      -9.355   7.924  69.350  1.00  0.00    -0.152 A  
HETATM    9  C   UNL     1      -9.909   8.191  66.627  1.00  0.00    -0.331 A  
HETATM   10  C   UNL     1      -8.552   8.738  68.549  1.00  0.00    -0.134 A  
BRANCH   6  11
HETATM   11  N   UNL     1      -8.019   9.729  66.399  1.00  0.00    -0.108 N  
HETATM   12  H   UNL     1      -8.326  10.662  66.124  1.00  0.00     0.000 HD 
BRANCH  11  13
HETATM   13  S   UNL     1      -6.512   9.129  65.924  1.00  0.00    -0.061 S  
HETATM   14  O   UNL     1      -6.758   7.766  65.500  1.00  0.00    -0.045 OA 
HETATM   15  O   UNL     1      -5.512   9.431  66.923  1.00  0.00    -0.041 OA 
HETATM   16  C   UNL     1      -6.192  10.094  64.464  1.00  0.00    -0.133 C  
ENDBRANCH  11  13
ENDBRANCH   6  11
ENDBRANCH   4   5
ENDBRANCH   3   4
ENDBRANCH   2   3
BRANCH   2  17
HETATM   17  C   UNL     1     -12.414   7.744  71.791  1.00  0.00    -0.320 C  
BRANCH  17  18
HETATM   18  C   UNL     1     -12.017   9.210  72.026  1.00  0.00    -0.350 C  
BRANCH  18  19
HETATM   19  O   UNL     1     -12.969  10.068  71.386  1.00  0.00    -0.358 OA 
BRANCH  19  20
HETATM   20  C   UNL     1     -12.459  10.939  70.458  1.00  0.00    -0.351 A  
HETATM   21  C   UNL     1     -12.380  12.326  70.607  1.00  0.00    -0.375 A  
HETATM   22  C   UNL     1     -11.990  10.352  69.280  1.00  0.00    -0.105 A  
HETATM   23  C   UNL     1     -11.432  12.526  68.394  1.00  0.00    -0.312 A  
HETATM   24  C   UNL     1     -11.472  11.141  68.248  1.00  0.00    -0.373 A  
HETATM   25  C   UNL     1     -11.866  13.117  69.577  1.00  0.00    -0.383 A  
BRANCH  23  26
HETATM   26  N   UNL     1     -10.923  13.358  67.355  1.00  0.00    -0.268 N  
HETATM   27  H   UNL     1     -10.461  14.243  67.566  1.00  0.00     0.000 HD 
BRANCH  26  28
HETATM   28  S   UNL     1     -11.110  12.828  65.763  1.00  0.00    -0.294 S  
HETATM   29  O   UNL     1     -10.012  11.966  65.392  1.00  0.00    -0.244 OA 
HETATM   30  C   UNL     1     -10.991  14.358  64.856  1.00  0.00    -0.406 C  
HETATM   31  O   UNL     1     -12.484  12.374  65.671  1.00  0.00    -0.640 OA 
ENDBRANCH  26  28
ENDBRANCH  23  26
ENDBRANCH  19  20
ENDBRANCH  18  19
ENDBRANCH  17  18
ENDBRANCH   2  17
TORSDOF 11
ENDMDL
MODEL       78
REMARK 921   NORMALIZED FREE ENERGY PREDICTED BY IDOCK:   -4.85 KCAL/MOL
REMARK 922        TOTAL FREE ENERGY PREDICTED BY IDOCK:   -9.53 KCAL/MOL
REMARK 923 INTER-LIGAND FREE ENERGY PREDICTED BY IDOCK:   -7.85 KCAL/MOL
REMARK 924 INTRA-LIGAND FREE ENERGY PREDICTED BY IDOCK:   -1.68 KCAL/MOL
REMARK 927      BINDING AFFINITY PREDICTED BY RF-SCORE:    0.00 PKD
ROOT
HETATM    1  C   UNL     1     -12.982  13.965  65.206  1.00  0.00    -0.297 C  
HETATM    2  N   UNL     1     -11.780  13.831  64.376  1.00  0.00    -0.398 NA 
ENDROOT
BRANCH   2   3
HETATM    3  C   UNL     1     -11.621  12.450  63.872  1.00  0.00    -0.441 C  
BRANCH   3   4
HETATM    4  C   UNL     1     -10.206  12.064  63.384  1.00  0.00    -0.457 C  
BRANCH   4   5
HETATM    5  C   UNL     1      -9.639  10.830  64.050  1.00  0.00    -0.339 A  
HETATM    6  C   UNL     1      -8.647   8.494  65.238  1.00  0.00    -0.165 A  
HETATM    7  C   UNL     1     -10.245  10.302  65.200  1.00  0.00    -0.295 A  
HETATM    8  C   UNL     1      -8.507  10.191  63.527  1.00  0.00    -0.186 A  
HETATM    9  C   UNL     1      -9.750   9.139  65.793  1.00  0.00    -0.299 A  
HETATM   10  C   UNL     1      -8.012   9.028  64.120  1.00  0.00    -0.144 A  
BRANCH   6  11
HETATM   11  N   UNL     1      -8.133   7.301  65.821  1.00  0.00    -0.122 N  
HETATM   12  H   UNL     1      -7.974   6.464  65.259  1.00  0.00     0.000 HD 
BRANCH  11  13
HETATM   13  S   UNL     1      -7.798   7.320  67.476  1.00  0.00    -0.114 S  
HETATM   14  O   UNL     1      -9.063   7.043  68.128  1.00  0.00    -0.130 OA 
HETATM   15  O   UNL     1      -7.023   8.490  67.820  1.00  0.00    -0.072 OA 
HETATM   16  C   UNL     1      -6.781   5.870  67.648  1.00  0.00    -0.058 C  
ENDBRANCH  11  13
ENDBRANCH   6  11
ENDBRANCH   4   5
ENDBRANCH   3   4
ENDBRANCH   2   3
BRANCH   2  17
HETATM   17  C   UNL     1     -10.603  14.278  65.157  1.00  0.00    -0.406 C  
BRANCH  17  18
HETATM   18  C   UNL     1     -10.863  14.459  66.661  1.00  0.00    -0.304 C  
BRANCH  18  19
HETATM   19  O   UNL     1      -9.793  13.860  67.403  1.00  0.00    -0.230 OA 
BRANCH  19  20
HETATM   20  C   UNL     1     -10.069  12.644  67.974  1.00  0.00    -0.229 A  
HETATM   21  C   UNL     1      -9.117  11.734  68.441  1.00  0.00    -0.176 A  
HETATM   22  C   UNL     1     -11.426  12.326  68.079  1.00  0.00    -0.378 A  
HETATM   23  C   UNL     1     -10.870  10.186  69.048  1.00  0.00    -0.224 A  
HETATM   24  C   UNL     1     -11.830  11.101  68.619  1.00  0.00    -0.357 A  
HETATM   25  C   UNL     1      -9.518  10.509  68.978  1.00  0.00    -0.211 A  
BRANCH  23  26
HETATM   26  N   UNL     1     -11.250   8.925  69.590  1.00  0.00    -0.436 N  
HETATM   27  H   UNL     1     -11.367   8.107  68.992  1.00  0.00     0.000 HD 
BRANCH  26  28
HETATM   28  S   UNL     1     -11.499   8.831  71.258  1.00  0.00    -0.313 S  
HETATM   29  O   UNL     1     -12.294   7.668  71.578  1.00  0.00    -0.307 OA 
HETATM   30  C   UNL     1     -12.456  10.302  71.564  1.00  0.00    -0.422 C  
HETATM   31  O   UNL     1     -10.192   9.031  71.851  1.00  0.00    -0.343 OA 
ENDBRANCH  26  28
ENDBRANCH  23  26
ENDBRANCH  19  20
ENDBRANCH  18  19
ENDBRANCH  17  18
ENDBRANCH   2  17
TORSDOF 11
ENDMDL
MODEL       79
REMARK 921   NORMALIZED FREE ENERGY PREDICTED BY IDOCK:   -4.84 KCAL/MOL
REMARK 922        TOTAL FREE ENERGY PREDICTED BY IDOCK:   -9.52 KCAL/MOL
REMARK 923 INTER-LIGAND FREE ENERGY PREDICTED BY IDOCK:   -8.87 KCAL/MOL
REMARK 924 INTRA-LIGAND FREE ENERGY PREDICTED BY IDOCK:   -0.65 KCAL/MOL
REMARK 927      BINDING AFFINITY PREDICTED BY RF-SCORE:    0.00 PKD
ROOT
HETATM    1  C   UNL     1     -14.043  15.093  71.287  1.00  0.00    -0.445 C  
HETATM    2  N   UNL     1     -12.781  14.371  71.088  1.00  0.00    -0.331 NA 
ENDROOT
BRANCH   2   3
HETATM    3  C   UNL     1     -12.736  13.128  71.887  1.00  0.00    -0.127 C  
BRANCH   3   4
HETATM    4  C   UNL     1     -13.309  11.863  71.209  1.00  0.00     0.111 C  
BRANCH   4   5
HETATM    5  C   UNL     1     -12.397  10.658  71.280  1.00  0.00    -0.488 A  
HETATM    6  C   UNL     1     -10.761   8.385  71.354  1.00  0.00    -0.237 A  
HETATM    7  C   UNL     1     -12.673   9.611  72.171  1.00  0.00    -0.427 A  
HETATM    8  C   UNL     1     -11.269  10.566  70.454  1.00  0.00    -0.378 A  
HETATM    9  C   UNL     1     -11.857   8.478  72.210  1.00  0.00    -0.453 A  
HETATM   10  C   UNL     1     -10.454   9.433  70.492  1.00  0.00    -0.335 A  
BRANCH   6  11
HETATM   11  N   UNL     1      -9.923   7.233  71.370  1.00  0.00    -0.187 N  
HETATM   12  H   UNL     1      -9.242   7.085  72.114  1.00  0.00     0.000 HD 
BRANCH  11  13
HETATM   13  S   UNL     1     -10.099   6.121  70.110  1.00  0.00    -0.194 S  
HETATM   14  O   UNL     1      -8.929   6.300  69.273  1.00  0.00    -0.125 OA 
HETATM   15  O   UNL     1     -11.431   6.195  69.555  1.00  0.00    -0.429 OA 
HETATM   16  C   UNL     1      -9.907   4.577  70.973  1.00  0.00    -0.196 C  
ENDBRANCH  11  13
ENDBRANCH   6  11
ENDBRANCH   4   5
ENDBRANCH   3   4
ENDBRANCH   2   3
BRANCH   2  17
HETATM   17  C   UNL     1     -11.653  15.278  71.402  1.00  0.00    -0.391 C  
BRANCH  17  18
HETATM   18  C   UNL     1     -10.631  15.448  70.267  1.00  0.00    -0.277 C  
BRANCH  18  19
HETATM   19  O   UNL     1     -11.318  15.802  69.060  1.00  0.00    -0.305 OA 
BRANCH  19  20
HETATM   20  C   UNL     1     -10.734  16.788  68.306  1.00  0.00    -0.364 A  
HETATM   21  C   UNL     1     -10.626  16.786  66.913  1.00  0.00    -0.219 A  
HETATM   22  C   UNL     1     -10.216  17.865  69.029  1.00  0.00    -0.274 A  
HETATM   23  C   UNL     1      -9.439  18.889  66.986  1.00  0.00    -0.310 A  
HETATM   24  C   UNL     1      -9.572  18.920  68.372  1.00  0.00    -0.420 A  
HETATM   25  C   UNL     1      -9.981  17.835  66.256  1.00  0.00    -0.322 A  
BRANCH  23  26
HETATM   26  N   UNL     1      -8.777  19.940  66.290  1.00  0.00    -0.431 N  
HETATM   27  H   UNL     1      -9.284  20.551  65.649  1.00  0.00     0.000 HD 
BRANCH  26  28
HETATM   28  S   UNL     1      -7.122  20.141  66.562  1.00  0.00    -0.260 S  
HETATM   29  O   UNL     1      -6.883  21.360  67.299  1.00  0.00    -0.572 OA 
HETATM   30  C   UNL     1      -6.502  20.325  64.901  1.00  0.00    -0.293 C  
HETATM   31  O   UNL     1      -6.659  18.861  67.059  1.00  0.00    -0.194 OA 
ENDBRANCH  26  28
ENDBRANCH  23  26
ENDBRANCH  19  20
ENDBRANCH  18  19
ENDBRANCH  17  18
ENDBRANCH   2  17
TORSDOF 11
ENDMDL
MODEL       80
REMARK 921   NORMALIZED FREE ENERGY PREDICTED BY IDOCK:   -4.84 KCAL/MOL
REMARK 922        TOTAL FREE ENERGY PREDICTED BY IDOCK:   -9.51 KCAL/MOL
REMARK 923 INTER-LIGAND FREE ENERGY PREDICTED BY IDOCK:   -7.80 KCAL/MOL
REMARK 924 INTRA-LIGAND FREE ENERGY PREDICTED BY IDOCK:   -1.71 KCAL/MOL
REMARK 927      BINDING AFFINITY PREDICTED BY RF-SCORE:    0.00 PKD
ROOT
HETATM    1  C   UNL     1      -8.900   5.887  74.189  1.00  0.00    -0.123 C  
HETATM    2  N   UNL     1      -9.696   6.349  73.046  1.00  0.00    -0.153 NA 
ENDROOT
BRANCH   2   3
HETATM    3  C   UNL     1     -10.663   7.393  73.446  1.00  0.00    -0.357 C  
BRANCH   3   4
HETATM    4  C   UNL     1     -11.881   7.584  72.513  1.00  0.00    -0.266 C  
BRANCH   4   5
HETATM    5  C   UNL     1     -11.871   8.887  71.746  1.00  0.00    -0.429 A  
HETATM    6  C   UNL     1     -11.819  11.342  70.396  1.00  0.00    -0.335 A  
HETATM    7  C   UNL     1     -12.935   9.794  71.873  1.00  0.00    -0.535 A  
HETATM    8  C   UNL     1     -10.800   9.213  70.904  1.00  0.00    -0.345 A  
HETATM    9  C   UNL     1     -12.910  11.017  71.199  1.00  0.00    -0.491 A  
HETATM   10  C   UNL     1     -10.775  10.437  70.231  1.00  0.00    -0.249 A  
BRANCH   6  11
HETATM   11  N   UNL     1     -11.768  12.589  69.710  1.00  0.00    -0.434 N  
HETATM   12  H   UNL     1     -11.963  13.466  70.192  1.00  0.00     0.000 HD 
BRANCH  11  13
HETATM   13  S   UNL     1     -11.373  12.562  68.067  1.00  0.00    -0.312 S  
HETATM   14  O   UNL     1     -12.151  11.478  67.502  1.00  0.00    -0.614 OA 
HETATM   15  O   UNL     1      -9.940  12.621  67.893  1.00  0.00    -0.214 OA 
HETATM   16  C   UNL     1     -12.096  14.088  67.505  1.00  0.00    -0.326 C  
ENDBRANCH  11  13
ENDBRANCH   6  11
ENDBRANCH   4   5
ENDBRANCH   3   4
ENDBRANCH   2   3
BRANCH   2  17
HETATM   17  C   UNL     1     -10.361   5.183  72.420  1.00  0.00    -0.204 C  
BRANCH  17  18
HETATM   18  C   UNL     1      -9.820   4.805  71.032  1.00  0.00    -0.197 C  
BRANCH  18  19
HETATM   19  O   UNL     1     -10.784   5.162  70.033  1.00  0.00    -0.241 OA 
BRANCH  19  20
HETATM   20  C   UNL     1     -10.362   6.064  69.090  1.00  0.00    -0.229 A  
HETATM   21  C   UNL     1     -11.143   6.573  68.050  1.00  0.00    -0.332 A  
HETATM   22  C   UNL     1      -9.035   6.485  69.216  1.00  0.00    -0.131 A  
HETATM   23  C   UNL     1      -9.262   7.855  67.242  1.00  0.00    -0.142 A  
HETATM   24  C   UNL     1      -8.483   7.384  68.297  1.00  0.00    -0.125 A  
HETATM   25  C   UNL     1     -10.593   7.467  67.129  1.00  0.00    -0.415 A  
BRANCH  23  26
HETATM   26  N   UNL     1      -8.724   8.760  66.282  1.00  0.00    -0.139 N  
HETATM   27  H   UNL     1      -8.912   9.761  66.338  1.00  0.00     0.000 HD 
BRANCH  26  28
HETATM   28  S   UNL     1      -7.764   8.118  65.050  1.00  0.00    -0.121 S  
HETATM   29  O   UNL     1      -6.384   8.497  65.244  1.00  0.00    -0.052 OA 
HETATM   30  C   UNL     1      -8.409   8.956  63.616  1.00  0.00    -0.162 C  
HETATM   31  O   UNL     1      -8.153   6.725  64.950  1.00  0.00    -0.125 OA 
ENDBRANCH  26  28
ENDBRANCH  23  26
ENDBRANCH  19  20
ENDBRANCH  18  19
ENDBRANCH  17  18
ENDBRANCH   2  17
TORSDOF 11
ENDMDL
MODEL       81
REMARK 921   NORMALIZED FREE ENERGY PREDICTED BY IDOCK:   -4.83 KCAL/MOL
REMARK 922        TOTAL FREE ENERGY PREDICTED BY IDOCK:   -9.50 KCAL/MOL
REMARK 923 INTER-LIGAND FREE ENERGY PREDICTED BY IDOCK:   -8.62 KCAL/MOL
REMARK 924 INTRA-LIGAND FREE ENERGY PREDICTED BY IDOCK:   -0.88 KCAL/MOL
REMARK 927      BINDING AFFINITY PREDICTED BY RF-SCORE:    0.00 PKD
ROOT
HETATM    1  C   UNL     1      -9.381  11.324  62.724  1.00  0.00    -0.332 C  
HETATM    2  N   UNL     1     -10.103  12.037  63.782  1.00  0.00    -0.383 NA 
ENDROOT
BRANCH   2   3
HETATM    3  C   UNL     1      -9.937  11.373  65.094  1.00  0.00    -0.264 C  
BRANCH   3   4
HETATM    4  C   UNL     1      -9.700   9.846  65.057  1.00  0.00    -0.359 C  
BRANCH   4   5
HETATM    5  C   UNL     1      -9.669   9.194  66.421  1.00  0.00    -0.330 A  
HETATM    6  C   UNL     1      -9.523   8.001  68.952  1.00  0.00    -0.151 A  
HETATM    7  C   UNL     1      -9.363   7.831  66.550  1.00  0.00    -0.243 A  
HETATM    8  C   UNL     1      -9.937   9.940  67.576  1.00  0.00    -0.229 A  
HETATM    9  C   UNL     1      -9.292   7.235  67.811  1.00  0.00    -0.134 A  
HETATM   10  C   UNL     1      -9.865   9.345  68.837  1.00  0.00    -0.176 A  
BRANCH   6  11
HETATM   11  N   UNL     1      -9.444   7.415  70.248  1.00  0.00    -0.165 N  
HETATM   12  H   UNL     1      -8.655   7.604  70.866  1.00  0.00     0.000 HD 
BRANCH  11  13
HETATM   13  S   UNL     1     -10.705   6.396  70.724  1.00  0.00    -0.265 S  
HETATM   14  O   UNL     1     -11.710   6.519  69.687  1.00  0.00    -0.357 OA 
HETATM   15  O   UNL     1     -11.035   6.619  72.113  1.00  0.00    -0.229 OA 
HETATM   16  C   UNL     1      -9.950   4.794  70.549  1.00  0.00    -0.236 C  
ENDBRANCH  11  13
ENDBRANCH   6  11
ENDBRANCH   4   5
ENDBRANCH   3   4
ENDBRANCH   2   3
BRANCH   2  17
HETATM   17  C   UNL     1     -11.528  12.159  63.396  1.00  0.00    -0.416 C  
BRANCH  17  18
HETATM   18  C   UNL     1     -12.492  12.401  64.568  1.00  0.00    -0.435 C  
BRANCH  18  19
HETATM   19  O   UNL     1     -12.776  13.802  64.668  1.00  0.00    -0.644 OA 
BRANCH  19  20
HETATM   20  C   UNL     1     -11.868  14.548  65.374  1.00  0.00    -0.344 A  
HETATM   21  C   UNL     1     -11.423  14.269  66.669  1.00  0.00    -0.374 A  
HETATM   22  C   UNL     1     -11.369  15.670  64.709  1.00  0.00    -0.348 A  
HETATM   23  C   UNL     1     -10.049  16.255  66.643  1.00  0.00    -0.276 A  
HETATM   24  C   UNL     1     -10.456  16.524  65.338  1.00  0.00    -0.291 A  
HETATM   25  C   UNL     1     -10.515  15.121  67.301  1.00  0.00    -0.271 A  
BRANCH  23  26
HETATM   26  N   UNL     1      -9.131  17.112  67.315  1.00  0.00    -0.219 N  
HETATM   27  H   UNL     1      -9.450  17.781  68.016  1.00  0.00     0.000 HD 
BRANCH  26  28
HETATM   28  S   UNL     1      -7.496  16.984  66.911  1.00  0.00    -0.240 S  
HETATM   29  O   UNL     1      -7.093  15.597  66.903  1.00  0.00    -0.199 OA 
HETATM   30  C   UNL     1      -6.718  17.816  68.281  1.00  0.00    -0.206 C  
HETATM   31  O   UNL     1      -7.326  17.821  65.740  1.00  0.00    -0.505 OA 
ENDBRANCH  26  28
ENDBRANCH  23  26
ENDBRANCH  19  20
ENDBRANCH  18  19
ENDBRANCH  17  18
ENDBRANCH   2  17
TORSDOF 11
ENDMDL
MODEL       82
REMARK 921   NORMALIZED FREE ENERGY PREDICTED BY IDOCK:   -4.83 KCAL/MOL
REMARK 922        TOTAL FREE ENERGY PREDICTED BY IDOCK:   -9.50 KCAL/MOL
REMARK 923 INTER-LIGAND FREE ENERGY PREDICTED BY IDOCK:   -8.64 KCAL/MOL
REMARK 924 INTRA-LIGAND FREE ENERGY PREDICTED BY IDOCK:   -0.86 KCAL/MOL
REMARK 927      BINDING AFFINITY PREDICTED BY RF-SCORE:    0.00 PKD
ROOT
HETATM    1  C   UNL     1     -10.574  11.492  63.308  1.00  0.00    -0.338 C  
HETATM    2  N   UNL     1     -10.938  11.453  64.728  1.00  0.00    -0.272 NA 
ENDROOT
BRANCH   2   3
HETATM    3  C   UNL     1     -11.884  12.535  65.076  1.00  0.00    -0.396 C  
BRANCH   3   4
HETATM    4  C   UNL     1     -11.906  12.966  66.560  1.00  0.00    -0.473 C  
BRANCH   4   5
HETATM    5  C   UNL     1     -11.478  14.398  66.793  1.00  0.00    -0.381 A  
HETATM    6  C   UNL     1     -10.608  17.021  67.256  1.00  0.00    -0.267 A  
HETATM    7  C   UNL     1     -11.663  15.000  68.047  1.00  0.00    -0.320 A  
HETATM    8  C   UNL     1     -10.885  15.143  65.765  1.00  0.00    -0.358 A  
HETATM    9  C   UNL     1     -11.230  16.308  68.278  1.00  0.00    -0.324 A  
HETATM   10  C   UNL     1     -10.452  16.451  65.996  1.00  0.00    -0.333 A  
BRANCH   6  11
HETATM   11  N   UNL     1     -10.149  18.352  67.474  1.00  0.00    -0.340 N  
HETATM   12  H   UNL     1     -10.793  19.143  67.454  1.00  0.00     0.000 HD 
BRANCH  11  13
HETATM   13  S   UNL     1      -8.500  18.573  67.767  1.00  0.00    -0.275 S  
HETATM   14  O   UNL     1      -7.951  17.238  67.896  1.00  0.00    -0.196 OA 
HETATM   15  O   UNL     1      -8.300  19.565  68.798  1.00  0.00    -0.362 OA 
HETATM   16  C   UNL     1      -7.949  19.228  66.207  1.00  0.00    -0.308 C  
ENDBRANCH  11  13
ENDBRANCH   6  11
ENDBRANCH   4   5
ENDBRANCH   3   4
ENDBRANCH   2   3
BRANCH   2  17
HETATM   17  C   UNL     1      -9.702  11.508  65.543  1.00  0.00    -0.230 C  
BRANCH  17  18
HETATM   18  C   UNL     1      -9.186  10.141  66.018  1.00  0.00    -0.158 C  
BRANCH  18  19
HETATM   19  O   UNL     1     -10.277   9.214  66.075  1.00  0.00    -0.256 OA 
BRANCH  19  20
HETATM   20  C   UNL     1     -10.328   8.418  67.190  1.00  0.00    -0.311 A  
HETATM   21  C   UNL     1     -10.723   7.078  67.211  1.00  0.00    -0.412 A  
HETATM   22  C   UNL     1      -9.947   9.036  68.384  1.00  0.00    -0.200 A  
HETATM   23  C   UNL     1     -10.414   7.008  69.606  1.00  0.00    -0.223 A  
HETATM   24  C   UNL     1      -9.983   8.333  69.593  1.00  0.00    -0.193 A  
HETATM   25  C   UNL     1     -10.764   6.375  68.417  1.00  0.00    -0.349 A  
BRANCH  23  26
HETATM   26  N   UNL     1     -10.476   6.269  70.823  1.00  0.00    -0.213 N  
HETATM   27  H   UNL     1      -9.840   5.492  71.002  1.00  0.00     0.000 HD 
BRANCH  26  28
HETATM   28  S   UNL     1     -11.639   6.726  71.960  1.00  0.00    -0.303 S  
HETATM   29  O   UNL     1     -11.140   7.807  72.776  1.00  0.00    -0.342 OA 
HETATM   30  C   UNL     1     -11.773   5.251  72.951  1.00  0.00    -0.153 C  
HETATM   31  O   UNL     1     -12.872   6.859  71.210  1.00  0.00    -0.359 OA 
ENDBRANCH  26  28
ENDBRANCH  23  26
ENDBRANCH  19  20
ENDBRANCH  18  19
ENDBRANCH  17  18
ENDBRANCH   2  17
TORSDOF 11
ENDMDL
MODEL       83
REMARK 921   NORMALIZED FREE ENERGY PREDICTED BY IDOCK:   -4.83 KCAL/MOL
REMARK 922        TOTAL FREE ENERGY PREDICTED BY IDOCK:   -9.50 KCAL/MOL
REMARK 923 INTER-LIGAND FREE ENERGY PREDICTED BY IDOCK:   -7.95 KCAL/MOL
REMARK 924 INTRA-LIGAND FREE ENERGY PREDICTED BY IDOCK:   -1.55 KCAL/MOL
REMARK 927      BINDING AFFINITY PREDICTED BY RF-SCORE:    0.00 PKD
ROOT
HETATM    1  C   UNL     1     -11.159   7.853  72.755  1.00  0.00    -0.400 C  
HETATM    2  N   UNL     1     -10.714   7.943  71.360  1.00  0.00    -0.222 NA 
ENDROOT
BRANCH   2   3
HETATM    3  C   UNL     1     -10.577   9.350  70.925  1.00  0.00    -0.320 C  
BRANCH   3   4
HETATM    4  C   UNL     1     -11.883  10.174  70.867  1.00  0.00    -0.468 C  
BRANCH   4   5
HETATM    5  C   UNL     1     -11.867  11.283  69.838  1.00  0.00    -0.436 A  
HETATM    6  C   UNL     1     -11.753  13.355  67.955  1.00  0.00    -0.361 A  
HETATM    7  C   UNL     1     -12.133  12.607  70.218  1.00  0.00    -0.372 A  
HETATM    8  C   UNL     1     -11.580  11.008  68.495  1.00  0.00    -0.380 A  
HETATM    9  C   UNL     1     -12.077  13.640  69.279  1.00  0.00    -0.360 A  
HETATM   10  C   UNL     1     -11.524  12.041  67.556  1.00  0.00    -0.403 A  
BRANCH   6  11
HETATM   11  N   UNL     1     -11.679  14.394  66.985  1.00  0.00    -0.385 N  
HETATM   12  H   UNL     1     -12.519  14.876  66.662  1.00  0.00     0.000 HD 
BRANCH  11  13
HETATM   13  S   UNL     1     -10.152  14.802  66.388  1.00  0.00    -0.293 S  
HETATM   14  O   UNL     1     -10.043  14.120  65.114  1.00  0.00    -0.364 OA 
HETATM   15  O   UNL     1      -9.149  14.630  67.414  1.00  0.00    -0.183 OA 
HETATM   16  C   UNL     1     -10.356  16.537  66.050  1.00  0.00    -0.345 C  
ENDBRANCH  11  13
ENDBRANCH   6  11
ENDBRANCH   4   5
ENDBRANCH   3   4
ENDBRANCH   2   3
BRANCH   2  17
HETATM   17  C   UNL     1     -11.656   7.185  70.504  1.00  0.00    -0.290 C  
BRANCH  17  18
HETATM   18  C   UNL     1     -11.024   6.010  69.741  1.00  0.00    -0.401 C  
BRANCH  18  19
HETATM   19  O   UNL     1     -11.182   6.219  68.332  1.00  0.00    -0.335 OA 
BRANCH  19  20
HETATM   20  C   UNL     1     -10.247   7.028  67.739  1.00  0.00    -0.180 A  
HETATM   21  C   UNL     1     -10.507   7.964  66.735  1.00  0.00    -0.317 A  
HETATM   22  C   UNL     1      -8.940   6.873  68.205  1.00  0.00    -0.124 A  
HETATM   23  C   UNL     1      -8.161   8.529  66.631  1.00  0.00    -0.104 A  
HETATM   24  C   UNL     1      -7.895   7.625  67.658  1.00  0.00    -0.123 A  
HETATM   25  C   UNL     1      -9.465   8.713  66.184  1.00  0.00    -0.308 A  
BRANCH  23  26
HETATM   26  N   UNL     1      -7.116   9.298  66.044  1.00  0.00    -0.089 N  
HETATM   27  H   UNL     1      -6.663   9.001  65.179  1.00  0.00     0.000 HD 
BRANCH  26  28
HETATM   28  S   UNL     1      -6.652  10.720  66.828  1.00  0.00    -0.115 S  
HETATM   29  O   UNL     1      -5.898  11.562  65.929  1.00  0.00    -0.127 OA 
HETATM   30  C   UNL     1      -5.571  10.096  68.099  1.00  0.00    -0.038 C  
HETATM   31  O   UNL     1      -7.853  11.206  67.479  1.00  0.00    -0.111 OA 
ENDBRANCH  26  28
ENDBRANCH  23  26
ENDBRANCH  19  20
ENDBRANCH  18  19
ENDBRANCH  17  18
ENDBRANCH   2  17
TORSDOF 11
ENDMDL
MODEL       84
REMARK 921   NORMALIZED FREE ENERGY PREDICTED BY IDOCK:   -4.83 KCAL/MOL
REMARK 922        TOTAL FREE ENERGY PREDICTED BY IDOCK:   -9.50 KCAL/MOL
REMARK 923 INTER-LIGAND FREE ENERGY PREDICTED BY IDOCK:   -8.35 KCAL/MOL
REMARK 924 INTRA-LIGAND FREE ENERGY PREDICTED BY IDOCK:   -1.15 KCAL/MOL
REMARK 927      BINDING AFFINITY PREDICTED BY RF-SCORE:    0.00 PKD
ROOT
HETATM    1  C   UNL     1     -13.127  12.297  72.055  1.00  0.00    -0.355 C  
HETATM    2  N   UNL     1     -12.688  11.054  71.412  1.00  0.00    -0.423 NA 
ENDROOT
BRANCH   2   3
HETATM    3  C   UNL     1     -12.528  11.225  69.952  1.00  0.00    -0.153 C  
BRANCH   3   4
HETATM    4  C   UNL     1     -11.096  11.530  69.457  1.00  0.00    -0.256 C  
BRANCH   4   5
HETATM    5  C   UNL     1     -10.988  12.787  68.622  1.00  0.00    -0.295 A  
HETATM    6  C   UNL     1     -10.735  15.152  67.140  1.00  0.00    -0.310 A  
HETATM    7  C   UNL     1     -11.861  13.863  68.842  1.00  0.00    -0.393 A  
HETATM    8  C   UNL     1     -10.011  12.900  67.624  1.00  0.00    -0.218 A  
HETATM    9  C   UNL     1     -11.737  15.042  68.102  1.00  0.00    -0.335 A  
HETATM   10  C   UNL     1      -9.886  14.079  66.885  1.00  0.00    -0.267 A  
BRANCH   6  11
HETATM   11  N   UNL     1     -10.584  16.349  66.383  1.00  0.00    -0.277 N  
HETATM   12  H   UNL     1     -11.114  16.502  65.525  1.00  0.00     0.000 HD 
BRANCH  11  13
HETATM   13  S   UNL     1      -9.496  17.506  66.959  1.00  0.00    -0.277 S  
HETATM   14  O   UNL     1      -8.649  17.833  65.829  1.00  0.00    -0.510 OA 
HETATM   15  O   UNL     1      -8.928  17.081  68.218  1.00  0.00    -0.227 OA 
HETATM   16  C   UNL     1     -10.573  18.895  67.239  1.00  0.00    -0.456 C  
ENDBRANCH  11  13
ENDBRANCH   6  11
ENDBRANCH   4   5
ENDBRANCH   3   4
ENDBRANCH   2   3
BRANCH   2  17
HETATM   17  C   UNL     1     -13.646   9.975  71.746  1.00  0.00    -0.242 C  
BRANCH  17  18
HETATM   18  C   UNL     1     -13.041   8.799  72.529  1.00  0.00    -0.335 C  
BRANCH  18  19
HETATM   19  O   UNL     1     -11.620   8.783  72.339  1.00  0.00    -0.352 OA 
BRANCH  19  20
HETATM   20  C   UNL     1     -11.164   8.002  71.309  1.00  0.00    -0.256 A  
HETATM   21  C   UNL     1     -11.852   6.927  70.741  1.00  0.00    -0.427 A  
HETATM   22  C   UNL     1      -9.902   8.341  70.814  1.00  0.00    -0.205 A  
HETATM   23  C   UNL     1     -10.000   6.507  69.248  1.00  0.00    -0.153 A  
HETATM   24  C   UNL     1      -9.319   7.599  69.781  1.00  0.00    -0.150 A  
HETATM   25  C   UNL     1     -11.271   6.183  69.712  1.00  0.00    -0.494 A  
BRANCH  23  26
HETATM   26  N   UNL     1      -9.427   5.724  68.205  1.00  0.00    -0.116 N  
HETATM   27  H   UNL     1      -8.706   5.029  68.402  1.00  0.00     0.000 HD 
BRANCH  26  28
HETATM   28  S   UNL     1      -9.981   5.986  66.632  1.00  0.00    -0.153 S  
HETATM   29  O   UNL     1     -10.754   4.853  66.181  1.00  0.00    -0.317 OA 
HETATM   30  C   UNL     1      -8.454   6.060  65.718  1.00  0.00    -0.146 C  
HETATM   31  O   UNL     1     -10.546   7.321  66.644  1.00  0.00    -0.249 OA 
ENDBRANCH  26  28
ENDBRANCH  23  26
ENDBRANCH  19  20
ENDBRANCH  18  19
ENDBRANCH  17  18
ENDBRANCH   2  17
TORSDOF 11
ENDMDL
MODEL       85
REMARK 921   NORMALIZED FREE ENERGY PREDICTED BY IDOCK:   -4.82 KCAL/MOL
REMARK 922        TOTAL FREE ENERGY PREDICTED BY IDOCK:   -9.49 KCAL/MOL
REMARK 923 INTER-LIGAND FREE ENERGY PREDICTED BY IDOCK:   -9.32 KCAL/MOL
REMARK 924 INTRA-LIGAND FREE ENERGY PREDICTED BY IDOCK:   -0.16 KCAL/MOL
REMARK 927      BINDING AFFINITY PREDICTED BY RF-SCORE:    0.00 PKD
ROOT
HETATM    1  C   UNL     1     -11.746  12.386  65.326  1.00  0.00    -0.390 C  
HETATM    2  N   UNL     1     -12.022  13.615  66.077  1.00  0.00    -0.388 NA 
ENDROOT
BRANCH   2   3
HETATM    3  C   UNL     1     -11.218  14.750  65.574  1.00  0.00    -0.346 C  
BRANCH   3   4
HETATM    4  C   UNL     1      -9.735  14.779  66.010  1.00  0.00    -0.350 C  
BRANCH   4   5
HETATM    5  C   UNL     1      -9.328  16.047  66.725  1.00  0.00    -0.260 A  
HETATM    6  C   UNL     1      -8.510  18.352  68.094  1.00  0.00    -0.285 A  
HETATM    7  C   UNL     1      -9.852  16.349  67.991  1.00  0.00    -0.238 A  
HETATM    8  C   UNL     1      -8.416  16.937  66.140  1.00  0.00    -0.281 A  
HETATM    9  C   UNL     1      -9.446  17.498  68.673  1.00  0.00    -0.278 A  
HETATM   10  C   UNL     1      -8.010  18.085  66.823  1.00  0.00    -0.261 A  
BRANCH   6  11
HETATM   11  N   UNL     1      -8.074  19.523  68.777  1.00  0.00    -0.351 N  
HETATM   12  H   UNL     1      -8.732  20.253  69.048  1.00  0.00     0.000 HD 
BRANCH  11  13
HETATM   13  S   UNL     1      -6.426  19.658  69.124  1.00  0.00    -0.341 S  
HETATM   14  O   UNL     1      -6.349  20.492  70.306  1.00  0.00    -0.423 OA 
HETATM   15  O   UNL     1      -5.685  19.988  67.928  1.00  0.00    -0.196 OA 
HETATM   16  C   UNL     1      -6.031  17.994  69.618  1.00  0.00    -0.247 C  
ENDBRANCH  11  13
ENDBRANCH   6  11
ENDBRANCH   4   5
ENDBRANCH   3   4
ENDBRANCH   2   3
BRANCH   2  17
HETATM   17  C   UNL     1     -11.788  13.362  67.518  1.00  0.00    -0.366 C  
BRANCH  17  18
HETATM   18  C   UNL     1     -11.464  11.901  67.868  1.00  0.00    -0.316 C  
BRANCH  18  19
HETATM   19  O   UNL     1     -12.359  11.448  68.892  1.00  0.00    -0.446 OA 
BRANCH  19  20
HETATM   20  C   UNL     1     -11.814  10.620  69.839  1.00  0.00    -0.315 A  
HETATM   21  C   UNL     1     -10.495  10.158  69.849  1.00  0.00    -0.322 A  
HETATM   22  C   UNL     1     -12.682  10.228  70.861  1.00  0.00    -0.462 A  
HETATM   23  C   UNL     1     -10.941   8.879  71.849  1.00  0.00    -0.369 A  
HETATM   24  C   UNL     1     -12.247   9.361  71.870  1.00  0.00    -0.440 A  
HETATM   25  C   UNL     1     -10.060   9.291  70.853  1.00  0.00    -0.373 A  
BRANCH  23  26
HETATM   26  N   UNL     1     -10.473   7.985  72.854  1.00  0.00    -0.349 N  
HETATM   27  H   UNL     1     -10.219   8.321  73.783  1.00  0.00     0.000 HD 
BRANCH  26  28
HETATM   28  S   UNL     1     -10.354   6.348  72.455  1.00  0.00    -0.197 S  
HETATM   29  O   UNL     1      -8.997   6.023  72.084  1.00  0.00    -0.142 OA 
HETATM   30  C   UNL     1     -11.400   6.250  71.016  1.00  0.00    -0.316 C  
HETATM   31  O   UNL     1     -11.027   5.644  73.530  1.00  0.00    -0.276 OA 
ENDBRANCH  26  28
ENDBRANCH  23  26
ENDBRANCH  19  20
ENDBRANCH  18  19
ENDBRANCH  17  18
ENDBRANCH   2  17
TORSDOF 11
ENDMDL
MODEL       86
REMARK 921   NORMALIZED FREE ENERGY PREDICTED BY IDOCK:   -4.81 KCAL/MOL
REMARK 922        TOTAL FREE ENERGY PREDICTED BY IDOCK:   -9.47 KCAL/MOL
REMARK 923 INTER-LIGAND FREE ENERGY PREDICTED BY IDOCK:   -8.67 KCAL/MOL
REMARK 924 INTRA-LIGAND FREE ENERGY PREDICTED BY IDOCK:   -0.80 KCAL/MOL
REMARK 927      BINDING AFFINITY PREDICTED BY RF-SCORE:    0.00 PKD
ROOT
HETATM    1  C   UNL     1     -11.811  14.226  65.126  1.00  0.00    -0.384 C  
HETATM    2  N   UNL     1     -11.306  13.469  66.276  1.00  0.00    -0.303 NA 
ENDROOT
BRANCH   2   3
HETATM    3  C   UNL     1     -11.567  12.021  66.128  1.00  0.00    -0.304 C  
BRANCH   3   4
HETATM    4  C   UNL     1     -10.369  11.083  66.405  1.00  0.00    -0.302 C  
BRANCH   4   5
HETATM    5  C   UNL     1     -10.528  10.230  67.644  1.00  0.00    -0.285 A  
HETATM    6  C   UNL     1     -10.905   8.629  69.912  1.00  0.00    -0.208 A  
HETATM    7  C   UNL     1     -11.126  10.758  68.798  1.00  0.00    -0.312 A  
HETATM    8  C   UNL     1     -10.089   8.900  67.657  1.00  0.00    -0.274 A  
HETATM    9  C   UNL     1     -11.313   9.961  69.930  1.00  0.00    -0.273 A  
HETATM   10  C   UNL     1     -10.277   8.102  68.788  1.00  0.00    -0.221 A  
BRANCH   6  11
HETATM   11  N   UNL     1     -11.097   7.796  71.051  1.00  0.00    -0.253 N  
HETATM   12  H   UNL     1     -11.993   7.341  71.229  1.00  0.00     0.000 HD 
BRANCH  11  13
HETATM   13  S   UNL     1      -9.787   7.586  72.097  1.00  0.00    -0.175 S  
HETATM   14  O   UNL     1      -9.085   8.854  72.092  1.00  0.00    -0.375 OA 
HETATM   15  O   UNL     1      -9.098   6.351  71.801  1.00  0.00    -0.143 OA 
HETATM   16  C   UNL     1     -10.610   7.438  73.668  1.00  0.00    -0.265 C  
ENDBRANCH  11  13
ENDBRANCH   6  11
ENDBRANCH   4   5
ENDBRANCH   3   4
ENDBRANCH   2   3
BRANCH   2  17
HETATM   17  C   UNL     1     -11.903  14.019  67.515  1.00  0.00    -0.407 C  
BRANCH  17  18
HETATM   18  C   UNL     1     -10.962  14.913  68.338  1.00  0.00    -0.261 C  
BRANCH  18  19
HETATM   19  O   UNL     1     -11.539  16.219  68.466  1.00  0.00    -0.346 OA 
BRANCH  19  20
HETATM   20  C   UNL     1     -10.737  17.266  68.092  1.00  0.00    -0.363 A  
HETATM   21  C   UNL     1     -10.054  18.116  68.967  1.00  0.00    -0.290 A  
HETATM   22  C   UNL     1     -10.617  17.467  66.715  1.00  0.00    -0.194 A  
HETATM   23  C   UNL     1      -9.201  19.384  67.096  1.00  0.00    -0.313 A  
HETATM   24  C   UNL     1      -9.847  18.521  66.213  1.00  0.00    -0.352 A  
HETATM   25  C   UNL     1      -9.288  19.171  68.469  1.00  0.00    -0.426 A  
BRANCH  23  26
HETATM   26  N   UNL     1      -8.422  20.475  66.616  1.00  0.00    -0.546 N  
HETATM   27  H   UNL     1      -8.819  21.410  66.529  1.00  0.00     0.000 HD 
BRANCH  26  28
HETATM   28  S   UNL     1      -6.815  20.166  66.196  1.00  0.00    -0.257 S  
HETATM   29  O   UNL     1      -6.438  18.836  66.612  1.00  0.00    -0.184 OA 
HETATM   30  C   UNL     1      -5.945  21.364  67.188  1.00  0.00    -0.349 C  
HETATM   31  O   UNL     1      -6.697  20.580  64.812  1.00  0.00    -0.305 OA 
ENDBRANCH  26  28
ENDBRANCH  23  26
ENDBRANCH  19  20
ENDBRANCH  18  19
ENDBRANCH  17  18
ENDBRANCH   2  17
TORSDOF 11
ENDMDL
MODEL       87
REMARK 921   NORMALIZED FREE ENERGY PREDICTED BY IDOCK:   -4.81 KCAL/MOL
REMARK 922        TOTAL FREE ENERGY PREDICTED BY IDOCK:   -9.47 KCAL/MOL
REMARK 923 INTER-LIGAND FREE ENERGY PREDICTED BY IDOCK:   -7.92 KCAL/MOL
REMARK 924 INTRA-LIGAND FREE ENERGY PREDICTED BY IDOCK:   -1.55 KCAL/MOL
REMARK 927      BINDING AFFINITY PREDICTED BY RF-SCORE:    0.00 PKD
ROOT
HETATM    1  C   UNL     1     -11.421  15.260  68.113  1.00  0.00    -0.346 C  
HETATM    2  N   UNL     1     -12.027  13.930  67.991  1.00  0.00    -0.374 NA 
ENDROOT
BRANCH   2   3
HETATM    3  C   UNL     1     -11.415  12.966  68.931  1.00  0.00    -0.304 C  
BRANCH   3   4
HETATM    4  C   UNL     1     -12.156  12.761  70.271  1.00  0.00    -0.373 C  
BRANCH   4   5
HETATM    5  C   UNL     1     -12.184  11.325  70.747  1.00  0.00    -0.479 A  
HETATM    6  C   UNL     1     -12.297   8.648  71.566  1.00  0.00    -0.324 A  
HETATM    7  C   UNL     1     -13.136  10.908  71.688  1.00  0.00    -0.538 A  
HETATM    8  C   UNL     1     -11.265  10.390  70.251  1.00  0.00    -0.395 A  
HETATM    9  C   UNL     1     -13.192   9.573  72.098  1.00  0.00    -0.539 A  
HETATM   10  C   UNL     1     -11.322   9.056  70.660  1.00  0.00    -0.311 A  
BRANCH   6  11
HETATM   11  N   UNL     1     -12.344   7.281  71.962  1.00  0.00    -0.424 N  
HETATM   12  H   UNL     1     -13.222   6.761  71.963  1.00  0.00     0.000 HD 
BRANCH  11  13
HETATM   13  S   UNL     1     -10.894   6.551  72.429  1.00  0.00    -0.244 S  
HETATM   14  O   UNL     1     -10.372   7.382  73.496  1.00  0.00    -0.342 OA 
HETATM   15  O   UNL     1     -10.092   6.235  71.269  1.00  0.00    -0.186 OA 
HETATM   16  C   UNL     1     -11.480   5.041  73.167  1.00  0.00    -0.282 C  
ENDBRANCH  11  13
ENDBRANCH   6  11
ENDBRANCH   4   5
ENDBRANCH   3   4
ENDBRANCH   2   3
BRANCH   2  17
HETATM   17  C   UNL     1     -11.921  13.480  66.583  1.00  0.00    -0.404 C  
BRANCH  17  18
HETATM   18  C   UNL     1     -10.510  13.584  65.981  1.00  0.00    -0.299 C  
BRANCH  18  19
HETATM   19  O   UNL     1     -10.171  12.344  65.349  1.00  0.00    -0.271 OA 
BRANCH  19  20
HETATM   20  C   UNL     1      -9.692  11.362  66.178  1.00  0.00    -0.219 A  
HETATM   21  C   UNL     1     -10.140  10.039  66.210  1.00  0.00    -0.310 A  
HETATM   22  C   UNL     1      -8.673  11.757  67.048  1.00  0.00    -0.181 A  
HETATM   23  C   UNL     1      -8.603   9.543  68.007  1.00  0.00    -0.120 A  
HETATM   24  C   UNL     1      -8.123  10.850  67.960  1.00  0.00    -0.119 A  
HETATM   25  C   UNL     1      -9.595   9.132  67.121  1.00  0.00    -0.215 A  
BRANCH  23  26
HETATM   26  N   UNL     1      -8.074   8.600  68.933  1.00  0.00    -0.116 N  
HETATM   27  H   UNL     1      -8.571   8.368  69.793  1.00  0.00     0.000 HD 
BRANCH  26  28
HETATM   28  S   UNL     1      -6.593   7.880  68.559  1.00  0.00    -0.063 S  
HETATM   29  O   UNL     1      -6.616   7.364  67.211  1.00  0.00    -0.057 OA 
HETATM   30  C   UNL     1      -6.552   6.520  69.710  1.00  0.00    -0.048 C  
HETATM   31  O   UNL     1      -5.587   8.835  68.980  1.00  0.00    -0.036 OA 
ENDBRANCH  26  28
ENDBRANCH  23  26
ENDBRANCH  19  20
ENDBRANCH  18  19
ENDBRANCH  17  18
ENDBRANCH   2  17
TORSDOF 11
ENDMDL
MODEL       88
REMARK 921   NORMALIZED FREE ENERGY PREDICTED BY IDOCK:   -4.79 KCAL/MOL
REMARK 922        TOTAL FREE ENERGY PREDICTED BY IDOCK:   -9.44 KCAL/MOL
REMARK 923 INTER-LIGAND FREE ENERGY PREDICTED BY IDOCK:   -8.90 KCAL/MOL
REMARK 924 INTRA-LIGAND FREE ENERGY PREDICTED BY IDOCK:   -0.54 KCAL/MOL
REMARK 927      BINDING AFFINITY PREDICTED BY RF-SCORE:    0.00 PKD
ROOT
HETATM    1  C   UNL     1      -9.449  11.538  67.529  1.00  0.00    -0.169 C  
HETATM    2  N   UNL     1     -10.744  12.192  67.746  1.00  0.00    -0.204 NA 
ENDROOT
BRANCH   2   3
HETATM    3  C   UNL     1     -11.720  11.270  68.367  1.00  0.00    -0.294 C  
BRANCH   3   4
HETATM    4  C   UNL     1     -12.047  11.530  69.855  1.00  0.00    -0.389 C  
BRANCH   4   5
HETATM    5  C   UNL     1     -11.747  10.360  70.766  1.00  0.00    -0.464 A  
HETATM    6  C   UNL     1     -11.160   8.250  72.513  1.00  0.00    -0.368 A  
HETATM    7  C   UNL     1     -10.467   9.787  70.786  1.00  0.00    -0.339 A  
HETATM    8  C   UNL     1     -12.737   9.836  71.606  1.00  0.00    -0.517 A  
HETATM    9  C   UNL     1     -10.174   8.734  71.656  1.00  0.00    -0.394 A  
HETATM   10  C   UNL     1     -12.445   8.783  72.476  1.00  0.00    -0.368 A  
BRANCH   6  11
HETATM   11  N   UNL     1     -10.879   7.185  73.416  1.00  0.00    -0.510 N  
HETATM   12  H   UNL     1     -10.458   7.362  74.328  1.00  0.00     0.000 HD 
BRANCH  11  13
HETATM   13  S   UNL     1     -11.267   5.617  72.920  1.00  0.00    -0.269 S  
HETATM   14  O   UNL     1     -12.526   5.738  72.212  1.00  0.00    -0.069 OA 
HETATM   15  O   UNL     1     -11.116   4.689  74.019  1.00  0.00    -0.259 OA 
HETATM   16  C   UNL     1     -10.001   5.305  71.710  1.00  0.00    -0.190 C  
ENDBRANCH  11  13
ENDBRANCH   6  11
ENDBRANCH   4   5
ENDBRANCH   3   4
ENDBRANCH   2   3
BRANCH   2  17
HETATM   17  C   UNL     1     -11.232  12.734  66.456  1.00  0.00    -0.307 C  
BRANCH  17  18
HETATM   18  C   UNL     1     -12.007  14.056  66.569  1.00  0.00    -0.444 C  
BRANCH  18  19
HETATM   19  O   UNL     1     -11.260  15.101  65.935  1.00  0.00    -0.338 OA 
BRANCH  19  20
HETATM   20  C   UNL     1     -10.306  15.709  66.710  1.00  0.00    -0.287 A  
HETATM   21  C   UNL     1     -10.404  15.934  68.086  1.00  0.00    -0.256 A  
HETATM   22  C   UNL     1      -9.158  16.123  66.031  1.00  0.00    -0.354 A  
HETATM   23  C   UNL     1      -8.252  17.031  68.076  1.00  0.00    -0.206 A  
HETATM   24  C   UNL     1      -8.126  16.780  66.711  1.00  0.00    -0.273 A  
HETATM   25  C   UNL     1      -9.378  16.593  68.766  1.00  0.00    -0.256 A  
BRANCH  23  26
HETATM   26  N   UNL     1      -7.225  17.710  68.793  1.00  0.00    -0.261 N  
HETATM   27  H   UNL     1      -6.631  17.215  69.458  1.00  0.00     0.000 HD 
BRANCH  26  28
HETATM   28  S   UNL     1      -7.027  19.362  68.504  1.00  0.00    -0.311 S  
HETATM   29  O   UNL     1      -6.147  19.569  67.378  1.00  0.00    -0.189 OA 
HETATM   30  C   UNL     1      -6.210  19.894  69.996  1.00  0.00    -0.350 C  
HETATM   31  O   UNL     1      -8.366  19.916  68.521  1.00  0.00    -0.262 OA 
ENDBRANCH  26  28
ENDBRANCH  23  26
ENDBRANCH  19  20
ENDBRANCH  18  19
ENDBRANCH  17  18
ENDBRANCH   2  17
TORSDOF 11
ENDMDL
MODEL       89
REMARK 921   NORMALIZED FREE ENERGY PREDICTED BY IDOCK:   -4.79 KCAL/MOL
REMARK 922        TOTAL FREE ENERGY PREDICTED BY IDOCK:   -9.43 KCAL/MOL
REMARK 923 INTER-LIGAND FREE ENERGY PREDICTED BY IDOCK:   -8.87 KCAL/MOL
REMARK 924 INTRA-LIGAND FREE ENERGY PREDICTED BY IDOCK:   -0.57 KCAL/MOL
REMARK 927      BINDING AFFINITY PREDICTED BY RF-SCORE:    0.00 PKD
ROOT
HETATM    1  C   UNL     1      -9.641  10.704  62.849  1.00  0.00    -0.327 C  
HETATM    2  N   UNL     1     -10.525  11.225  63.897  1.00  0.00    -0.363 NA 
ENDROOT
BRANCH   2   3
HETATM    3  C   UNL     1     -11.185  12.479  63.477  1.00  0.00    -0.462 C  
BRANCH   3   4
HETATM    4  C   UNL     1     -12.258  13.038  64.439  1.00  0.00    -0.471 C  
BRANCH   4   5
HETATM    5  C   UNL     1     -11.781  14.195  65.289  1.00  0.00    -0.353 A  
HETATM    6  C   UNL     1     -10.818  16.298  66.871  1.00  0.00    -0.151 A  
HETATM    7  C   UNL     1     -11.863  14.130  66.688  1.00  0.00    -0.447 A  
HETATM    8  C   UNL     1     -11.244  15.345  64.695  1.00  0.00    -0.374 A  
HETATM    9  C   UNL     1     -11.384  15.179  67.477  1.00  0.00    -0.325 A  
HETATM   10  C   UNL     1     -10.765  16.393  65.484  1.00  0.00    -0.300 A  
BRANCH   6  11
HETATM   11  N   UNL     1     -10.314  17.372  67.658  1.00  0.00    -0.342 N  
HETATM   12  H   UNL     1     -10.926  18.117  67.990  1.00  0.00     0.000 HD 
BRANCH  11  13
HETATM   13  S   UNL     1      -8.664  17.369  68.021  1.00  0.00    -0.247 S  
HETATM   14  O   UNL     1      -7.989  17.244  66.745  1.00  0.00    -0.204 OA 
HETATM   15  O   UNL     1      -8.388  16.452  69.104  1.00  0.00    -0.239 OA 
HETATM   16  C   UNL     1      -8.424  19.038  68.591  1.00  0.00    -0.359 C  
ENDBRANCH  11  13
ENDBRANCH   6  11
ENDBRANCH   4   5
ENDBRANCH   3   4
ENDBRANCH   2   3
BRANCH   2  17
HETATM   17  C   UNL     1      -9.744  11.396  65.144  1.00  0.00    -0.244 C  
BRANCH  17  18
HETATM   18  C   UNL     1     -10.306  10.644  66.361  1.00  0.00    -0.231 C  
BRANCH  18  19
HETATM   19  O   UNL     1      -9.829  11.262  67.563  1.00  0.00    -0.175 OA 
BRANCH  19  20
HETATM   20  C   UNL     1     -10.057  10.567  68.723  1.00  0.00    -0.191 A  
HETATM   21  C   UNL     1      -9.096   9.846  69.437  1.00  0.00    -0.216 A  
HETATM   22  C   UNL     1     -11.370  10.609  69.199  1.00  0.00    -0.338 A  
HETATM   23  C   UNL     1     -10.770   9.171  71.042  1.00  0.00    -0.293 A  
HETATM   24  C   UNL     1     -11.729   9.916  70.360  1.00  0.00    -0.333 A  
HETATM   25  C   UNL     1      -9.453   9.151  70.594  1.00  0.00    -0.316 A  
BRANCH  23  26
HETATM   26  N   UNL     1     -11.108   8.443  72.219  1.00  0.00    -0.349 N  
HETATM   27  H   UNL     1     -10.918   8.823  73.146  1.00  0.00     0.000 HD 
BRANCH  26  28
HETATM   28  S   UNL     1     -11.834   6.931  72.025  1.00  0.00    -0.303 S  
HETATM   29  O   UNL     1     -11.340   6.010  73.022  1.00  0.00    -0.234 OA 
HETATM   30  C   UNL     1     -11.232   6.443  70.421  1.00  0.00    -0.372 C  
HETATM   31  O   UNL     1     -13.252   7.203  71.893  1.00  0.00    -0.309 OA 
ENDBRANCH  26  28
ENDBRANCH  23  26
ENDBRANCH  19  20
ENDBRANCH  18  19
ENDBRANCH  17  18
ENDBRANCH   2  17
TORSDOF 11
ENDMDL
MODEL       90
REMARK 921   NORMALIZED FREE ENERGY PREDICTED BY IDOCK:   -4.78 KCAL/MOL
REMARK 922        TOTAL FREE ENERGY PREDICTED BY IDOCK:   -9.42 KCAL/MOL
REMARK 923 INTER-LIGAND FREE ENERGY PREDICTED BY IDOCK:  -10.18 KCAL/MOL
REMARK 924 INTRA-LIGAND FREE ENERGY PREDICTED BY IDOCK:    0.76 KCAL/MOL
REMARK 927      BINDING AFFINITY PREDICTED BY RF-SCORE:    0.00 PKD
ROOT
HETATM    1  C   UNL     1     -10.260  18.659  68.595  1.00  0.00    -0.313 C  
HETATM    2  N   UNL     1      -9.970  17.331  69.145  1.00  0.00    -0.252 NA 
ENDROOT
BRANCH   2   3
HETATM    3  C   UNL     1      -8.753  16.747  68.539  1.00  0.00    -0.245 C  
BRANCH   3   4
HETATM    4  C   UNL     1      -8.566  16.989  67.024  1.00  0.00    -0.232 C  
BRANCH   4   5
HETATM    5  C   UNL     1      -9.521  16.205  66.151  1.00  0.00    -0.362 A  
HETATM    6  C   UNL     1     -11.237  14.768  64.466  1.00  0.00    -0.274 A  
HETATM    7  C   UNL     1     -10.524  16.865  65.427  1.00  0.00    -0.172 A  
HETATM    8  C   UNL     1      -9.414  14.812  66.048  1.00  0.00    -0.299 A  
HETATM    9  C   UNL     1     -11.382  16.149  64.587  1.00  0.00    -0.287 A  
HETATM   10  C   UNL     1     -10.270  14.096  65.208  1.00  0.00    -0.400 A  
BRANCH   6  11
HETATM   11  N   UNL     1     -12.093  14.021  63.607  1.00  0.00    -0.942 N  
HETATM   12  H   UNL     1     -12.499  14.441  62.771  1.00  0.00     0.000 HD 
BRANCH  11  13
HETATM   13  S   UNL     1     -12.409  12.415  64.023  1.00  0.00    -0.477 S  
HETATM   14  O   UNL     1     -13.361  11.943  63.037  1.00  0.00    -0.400 OA 
HETATM   15  O   UNL     1     -12.685  12.305  65.437  1.00  0.00    -0.500 OA 
HETATM   16  C   UNL     1     -10.846  11.643  63.667  1.00  0.00    -0.432 C  
ENDBRANCH  11  13
ENDBRANCH   6  11
ENDBRANCH   4   5
ENDBRANCH   3   4
ENDBRANCH   2   3
BRANCH   2  17
HETATM   17  C   UNL     1     -11.156  16.463  68.959  1.00  0.00    -0.315 C  
BRANCH  17  18
HETATM   18  C   UNL     1     -11.065  15.095  69.654  1.00  0.00    -0.270 C  
BRANCH  18  19
HETATM   19  O   UNL     1     -12.013  14.198  69.063  1.00  0.00    -0.325 OA 
BRANCH  19  20
HETATM   20  C   UNL     1     -11.842  12.869  69.356  1.00  0.00    -0.312 A  
HETATM   21  C   UNL     1     -12.265  12.239  70.529  1.00  0.00    -0.387 A  
HETATM   22  C   UNL     1     -11.188  12.119  68.377  1.00  0.00    -0.314 A  
HETATM   23  C   UNL     1     -11.326  10.149  69.764  1.00  0.00    -0.256 A  
HETATM   24  C   UNL     1     -10.932  10.758  68.575  1.00  0.00    -0.291 A  
HETATM   25  C   UNL     1     -12.009  10.881  70.731  1.00  0.00    -0.449 A  
BRANCH  23  26
HETATM   26  N   UNL     1     -11.068   8.768  70.001  1.00  0.00    -0.373 N  
HETATM   27  H   UNL     1     -10.339   8.272  69.489  1.00  0.00     0.000 HD 
BRANCH  26  28
HETATM   28  S   UNL     1     -12.012   7.981  71.159  1.00  0.00    -0.244 S  
HETATM   29  O   UNL     1     -13.243   8.704  71.375  1.00  0.00    -0.310 OA 
HETATM   30  C   UNL     1     -10.988   8.112  72.611  1.00  0.00    -0.370 C  
HETATM   31  O   UNL     1     -12.022   6.587  70.759  1.00  0.00    -0.378 OA 
ENDBRANCH  26  28
ENDBRANCH  23  26
ENDBRANCH  19  20
ENDBRANCH  18  19
ENDBRANCH  17  18
ENDBRANCH   2  17
TORSDOF 11
ENDMDL
MODEL       91
REMARK 921   NORMALIZED FREE ENERGY PREDICTED BY IDOCK:   -4.78 KCAL/MOL
REMARK 922        TOTAL FREE ENERGY PREDICTED BY IDOCK:   -9.41 KCAL/MOL
REMARK 923 INTER-LIGAND FREE ENERGY PREDICTED BY IDOCK:   -8.72 KCAL/MOL
REMARK 924 INTRA-LIGAND FREE ENERGY PREDICTED BY IDOCK:   -0.69 KCAL/MOL
REMARK 927      BINDING AFFINITY PREDICTED BY RF-SCORE:    0.00 PKD
ROOT
HETATM    1  C   UNL     1     -13.868  14.082  72.310  1.00  0.00    -0.557 C  
HETATM    2  N   UNL     1     -13.368  13.115  71.327  1.00  0.00    -0.129 NA 
ENDROOT
BRANCH   2   3
HETATM    3  C   UNL     1     -13.202  11.772  71.923  1.00  0.00    -0.362 C  
BRANCH   3   4
HETATM    4  C   UNL     1     -12.942  10.616  70.931  1.00  0.00    -0.429 C  
BRANCH   4   5
HETATM    5  C   UNL     1     -11.953   9.586  71.430  1.00  0.00    -0.464 A  
HETATM    6  C   UNL     1     -10.147   7.623  72.289  1.00  0.00    -0.208 A  
HETATM    7  C   UNL     1     -12.363   8.580  72.318  1.00  0.00    -0.450 A  
HETATM    8  C   UNL     1     -10.617   9.615  71.009  1.00  0.00    -0.362 A  
HETATM    9  C   UNL     1     -11.463   7.602  72.748  1.00  0.00    -0.384 A  
HETATM   10  C   UNL     1      -9.717   8.637  71.439  1.00  0.00    -0.314 A  
BRANCH   6  11
HETATM   11  N   UNL     1      -9.217   6.629  72.706  1.00  0.00    -0.136 N  
HETATM   12  H   UNL     1      -8.675   6.739  73.564  1.00  0.00     0.000 HD 
BRANCH  11  13
HETATM   13  S   UNL     1      -9.044   5.261  71.730  1.00  0.00    -0.138 S  
HETATM   14  O   UNL     1      -8.325   5.714  70.557  1.00  0.00    -0.113 OA 
HETATM   15  O   UNL     1     -10.305   4.566  71.610  1.00  0.00    -0.175 OA 
HETATM   16  C   UNL     1      -7.921   4.277  72.698  1.00  0.00    -0.085 C  
ENDBRANCH  11  13
ENDBRANCH   6  11
ENDBRANCH   4   5
ENDBRANCH   3   4
ENDBRANCH   2   3
BRANCH   2  17
HETATM   17  C   UNL     1     -12.104  13.627  70.747  1.00  0.00    -0.295 C  
BRANCH  17  18
HETATM   18  C   UNL     1     -12.151  13.884  69.233  1.00  0.00    -0.339 C  
BRANCH  18  19
HETATM   19  O   UNL     1     -10.815  14.001  68.729  1.00  0.00    -0.250 OA 
BRANCH  19  20
HETATM   20  C   UNL     1     -10.299  15.271  68.693  1.00  0.00    -0.232 A  
HETATM   21  C   UNL     1     -11.049  16.450  68.696  1.00  0.00    -0.352 A  
HETATM   22  C   UNL     1      -8.905  15.350  68.650  1.00  0.00    -0.186 A  
HETATM   23  C   UNL     1      -9.023  17.759  68.550  1.00  0.00    -0.287 A  
HETATM   24  C   UNL     1      -8.263  16.591  68.584  1.00  0.00    -0.234 A  
HETATM   25  C   UNL     1     -10.411  17.690  68.626  1.00  0.00    -0.317 A  
BRANCH  23  26
HETATM   26  N   UNL     1      -8.400  19.037  68.469  1.00  0.00    -0.342 N  
HETATM   27  H   UNL     1      -7.969  19.467  69.287  1.00  0.00     0.000 HD 
BRANCH  26  28
HETATM   28  S   UNL     1      -8.399  19.815  66.970  1.00  0.00    -0.324 S  
HETATM   29  O   UNL     1      -8.180  18.858  65.911  1.00  0.00    -0.477 OA 
HETATM   30  C   UNL     1      -6.973  20.874  67.113  1.00  0.00    -0.364 C  
HETATM   31  O   UNL     1      -9.574  20.665  66.981  1.00  0.00    -0.416 OA 
ENDBRANCH  26  28
ENDBRANCH  23  26
ENDBRANCH  19  20
ENDBRANCH  18  19
ENDBRANCH  17  18
ENDBRANCH   2  17
TORSDOF 11
ENDMDL
MODEL       92
REMARK 921   NORMALIZED FREE ENERGY PREDICTED BY IDOCK:   -4.78 KCAL/MOL
REMARK 922        TOTAL FREE ENERGY PREDICTED BY IDOCK:   -9.41 KCAL/MOL
REMARK 923 INTER-LIGAND FREE ENERGY PREDICTED BY IDOCK:   -8.90 KCAL/MOL
REMARK 924 INTRA-LIGAND FREE ENERGY PREDICTED BY IDOCK:   -0.51 KCAL/MOL
REMARK 927      BINDING AFFINITY PREDICTED BY RF-SCORE:    0.00 PKD
ROOT
HETATM    1  C   UNL     1     -11.740  12.218  68.768  1.00  0.00    -0.340 C  
HETATM    2  N   UNL     1     -11.643  10.943  68.050  1.00  0.00    -0.525 NA 
ENDROOT
BRANCH   2   3
HETATM    3  C   UNL     1     -10.808   9.969  68.786  1.00  0.00    -0.219 C  
BRANCH   3   4
HETATM    4  C   UNL     1     -10.794  10.112  70.325  1.00  0.00    -0.370 C  
BRANCH   4   5
HETATM    5  C   UNL     1     -11.018   8.813  71.066  1.00  0.00    -0.328 A  
HETATM    6  C   UNL     1     -11.497   6.446  72.488  1.00  0.00    -0.247 A  
HETATM    7  C   UNL     1     -10.375   8.574  72.290  1.00  0.00    -0.402 A  
HETATM    8  C   UNL     1     -11.875   7.833  70.548  1.00  0.00    -0.063 A  
HETATM    9  C   UNL     1     -10.612   7.393  72.998  1.00  0.00    -0.392 A  
HETATM   10  C   UNL     1     -12.113   6.653  71.257  1.00  0.00    -0.395 A  
BRANCH   6  11
HETATM   11  N   UNL     1     -11.762   5.241  73.199  1.00  0.00    -0.535 N  
HETATM   12  H   UNL     1     -12.670   5.072  73.632  1.00  0.00     0.000 HD 
BRANCH  11  13
HETATM   13  S   UNL     1     -10.517   4.103  73.301  1.00  0.00    -0.191 S  
HETATM   14  O   UNL     1     -11.171   2.843  73.592  1.00  0.00    -0.220 OA 
HETATM   15  O   UNL     1      -9.448   4.600  74.138  1.00  0.00    -0.116 OA 
HETATM   16  C   UNL     1      -9.959   4.039  71.613  1.00  0.00    -0.162 C  
ENDBRANCH  11  13
ENDBRANCH   6  11
ENDBRANCH   4   5
ENDBRANCH   3   4
ENDBRANCH   2   3
BRANCH   2  17
HETATM   17  C   UNL     1     -11.130  11.198  66.684  1.00  0.00    -0.189 C  
BRANCH  17  18
HETATM   18  C   UNL     1     -11.891  12.282  65.905  1.00  0.00    -0.354 C  
BRANCH  18  19
HETATM   19  O   UNL     1     -10.998  12.921  64.985  1.00  0.00    -0.284 OA 
BRANCH  19  20
HETATM   20  C   UNL     1     -10.496  14.134  65.383  1.00  0.00    -0.357 A  
HETATM   21  C   UNL     1      -9.389  14.318  66.215  1.00  0.00    -0.236 A  
HETATM   22  C   UNL     1     -11.175  15.252  64.895  1.00  0.00    -0.422 A  
HETATM   23  C   UNL     1      -9.690  16.712  66.114  1.00  0.00    -0.303 A  
HETATM   24  C   UNL     1     -10.773  16.543  65.254  1.00  0.00    -0.269 A  
HETATM   25  C   UNL     1      -8.987  15.605  66.578  1.00  0.00    -0.343 A  
BRANCH  23  26
HETATM   26  N   UNL     1      -9.264  18.013  66.509  1.00  0.00    -0.280 N  
HETATM   27  H   UNL     1      -8.781  18.631  65.857  1.00  0.00     0.000 HD 
BRANCH  26  28
HETATM   28  S   UNL     1      -9.587  18.497  68.094  1.00  0.00    -0.344 S  
HETATM   29  O   UNL     1     -10.625  17.671  68.666  1.00  0.00    -0.335 OA 
HETATM   30  C   UNL     1     -10.215  20.146  67.848  1.00  0.00    -0.360 C  
HETATM   31  O   UNL     1      -8.289  18.616  68.729  1.00  0.00    -0.322 OA 
ENDBRANCH  26  28
ENDBRANCH  23  26
ENDBRANCH  19  20
ENDBRANCH  18  19
ENDBRANCH  17  18
ENDBRANCH   2  17
TORSDOF 11
ENDMDL
MODEL       93
REMARK 921   NORMALIZED FREE ENERGY PREDICTED BY IDOCK:   -4.77 KCAL/MOL
REMARK 922        TOTAL FREE ENERGY PREDICTED BY IDOCK:   -9.41 KCAL/MOL
REMARK 923 INTER-LIGAND FREE ENERGY PREDICTED BY IDOCK:   -8.79 KCAL/MOL
REMARK 924 INTRA-LIGAND FREE ENERGY PREDICTED BY IDOCK:   -0.61 KCAL/MOL
REMARK 927      BINDING AFFINITY PREDICTED BY RF-SCORE:    0.00 PKD
ROOT
HETATM    1  C   UNL     1     -13.473  13.335  72.111  1.00  0.00    -0.562 C  
HETATM    2  N   UNL     1     -12.452  13.468  71.066  1.00  0.00    -0.373 NA 
ENDROOT
BRANCH   2   3
HETATM    3  C   UNL     1     -12.706  14.643  70.205  1.00  0.00    -0.273 C  
BRANCH   3   4
HETATM    4  C   UNL     1     -11.460  15.307  69.577  1.00  0.00    -0.318 C  
BRANCH   4   5
HETATM    5  C   UNL     1     -11.103  14.775  68.206  1.00  0.00    -0.284 A  
HETATM    6  C   UNL     1     -10.438  13.874  65.638  1.00  0.00    -0.312 A  
HETATM    7  C   UNL     1     -12.099  14.590  67.235  1.00  0.00    -0.298 A  
HETATM    8  C   UNL     1      -9.776  14.466  67.882  1.00  0.00    -0.223 A  
HETATM    9  C   UNL     1     -11.768  14.139  65.955  1.00  0.00    -0.369 A  
HETATM   10  C   UNL     1      -9.445  14.016  66.603  1.00  0.00    -0.300 A  
BRANCH   6  11
HETATM   11  N   UNL     1     -10.078  13.424  64.335  1.00  0.00    -0.641 N  
HETATM   12  H   UNL     1      -9.524  14.009  63.709  1.00  0.00     0.000 HD 
BRANCH  11  13
HETATM   13  S   UNL     1     -10.601  11.888  63.866  1.00  0.00    -0.442 S  
HETATM   14  O   UNL     1      -9.693  11.478  62.813  1.00  0.00    -0.340 OA 
HETATM   15  O   UNL     1     -12.031  11.884  63.660  1.00  0.00    -0.473 OA 
HETATM   16  C   UNL     1     -10.212  10.925  65.311  1.00  0.00    -0.288 C  
ENDBRANCH  11  13
ENDBRANCH   6  11
ENDBRANCH   4   5
ENDBRANCH   3   4
ENDBRANCH   2   3
BRANCH   2  17
HETATM   17  C   UNL     1     -12.392  12.209  70.288  1.00  0.00    -0.191 C  
BRANCH  17  18
HETATM   18  C   UNL     1     -12.972  10.981  71.009  1.00  0.00    -0.276 C  
BRANCH  18  19
HETATM   19  O   UNL     1     -11.931  10.327  71.744  1.00  0.00    -0.271 OA 
BRANCH  19  20
HETATM   20  C   UNL     1     -11.614   9.058  71.332  1.00  0.00    -0.326 A  
HETATM   21  C   UNL     1     -12.431   7.933  71.471  1.00  0.00    -0.341 A  
HETATM   22  C   UNL     1     -10.362   8.921  70.726  1.00  0.00    -0.283 A  
HETATM   23  C   UNL     1     -10.725   6.549  70.466  1.00  0.00    -0.254 A  
HETATM   24  C   UNL     1      -9.916   7.669  70.288  1.00  0.00    -0.189 A  
HETATM   25  C   UNL     1     -11.987   6.682  71.038  1.00  0.00    -0.415 A  
BRANCH  23  26
HETATM   26  N   UNL     1     -10.294   5.259  70.043  1.00  0.00    -0.289 N  
HETATM   27  H   UNL     1     -10.706   4.806  69.228  1.00  0.00     0.000 HD 
BRANCH  26  28
HETATM   28  S   UNL     1      -9.075   4.506  70.938  1.00  0.00    -0.140 S  
HETATM   29  O   UNL     1      -7.816   4.591  70.236  1.00  0.00    -0.058 OA 
HETATM   30  C   UNL     1      -9.630   2.813  70.952  1.00  0.00    -0.132 C  
HETATM   31  O   UNL     1      -9.218   5.022  72.286  1.00  0.00    -0.133 OA 
ENDBRANCH  26  28
ENDBRANCH  23  26
ENDBRANCH  19  20
ENDBRANCH  18  19
ENDBRANCH  17  18
ENDBRANCH   2  17
TORSDOF 11
ENDMDL
MODEL       94
REMARK 921   NORMALIZED FREE ENERGY PREDICTED BY IDOCK:   -4.77 KCAL/MOL
REMARK 922        TOTAL FREE ENERGY PREDICTED BY IDOCK:   -9.40 KCAL/MOL
REMARK 923 INTER-LIGAND FREE ENERGY PREDICTED BY IDOCK:   -8.88 KCAL/MOL
REMARK 924 INTRA-LIGAND FREE ENERGY PREDICTED BY IDOCK:   -0.52 KCAL/MOL
REMARK 927      BINDING AFFINITY PREDICTED BY RF-SCORE:    0.00 PKD
ROOT
HETATM    1  C   UNL     1      -6.932   5.685  65.070  1.00  0.00    -0.059 C  
HETATM    2  N   UNL     1      -8.286   6.198  65.302  1.00  0.00    -0.148 NA 
ENDROOT
BRANCH   2   3
HETATM    3  C   UNL     1      -8.259   7.573  65.845  1.00  0.00    -0.134 C  
BRANCH   3   4
HETATM    4  C   UNL     1      -7.693   8.663  64.906  1.00  0.00    -0.106 C  
BRANCH   4   5
HETATM    5  C   UNL     1      -8.717   9.682  64.457  1.00  0.00    -0.227 A  
HETATM    6  C   UNL     1     -10.573  11.630  63.675  1.00  0.00    -0.433 A  
HETATM    7  C   UNL     1      -9.859   9.931  65.233  1.00  0.00    -0.373 A  
HETATM    8  C   UNL     1      -8.539  10.396  63.265  1.00  0.00    -0.190 A  
HETATM    9  C   UNL     1     -10.785  10.902  64.843  1.00  0.00    -0.240 A  
HETATM   10  C   UNL     1      -9.465  11.367  62.875  1.00  0.00    -0.372 A  
BRANCH   6  11
HETATM   11  N   UNL     1     -11.500  12.631  63.266  1.00  0.00    -0.765 N  
HETATM   12  H   UNL     1     -11.830  12.683  62.302  1.00  0.00     0.000 HD 
BRANCH  11  13
HETATM   13  S   UNL     1     -12.031  13.730  64.434  1.00  0.00    -0.448 S  
HETATM   14  O   UNL     1     -12.673  12.925  65.454  1.00  0.00    -0.583 OA 
HETATM   15  O   UNL     1     -12.724  14.834  63.809  1.00  0.00    -0.767 OA 
HETATM   16  C   UNL     1     -10.487  14.308  65.104  1.00  0.00    -0.411 C  
ENDBRANCH  11  13
ENDBRANCH   6  11
ENDBRANCH   4   5
ENDBRANCH   3   4
ENDBRANCH   2   3
BRANCH   2  17
HETATM   17  C   UNL     1      -9.010   5.261  66.192  1.00  0.00    -0.139 C  
BRANCH  17  18
HETATM   18  C   UNL     1     -10.298   5.829  66.810  1.00  0.00    -0.256 C  
BRANCH  18  19
HETATM   19  O   UNL     1     -10.378   5.436  68.185  1.00  0.00    -0.179 OA 
BRANCH  19  20
HETATM   20  C   UNL     1     -10.688   6.433  69.075  1.00  0.00    -0.286 A  
HETATM   21  C   UNL     1     -11.480   6.283  70.216  1.00  0.00    -0.428 A  
HETATM   22  C   UNL     1     -10.148   7.687  68.780  1.00  0.00    -0.202 A  
HETATM   23  C   UNL     1     -11.238   8.634  70.715  1.00  0.00    -0.261 A  
HETATM   24  C   UNL     1     -10.417   8.789  69.600  1.00  0.00    -0.220 A  
HETATM   25  C   UNL     1     -11.752   7.381  71.034  1.00  0.00    -0.326 A  
BRANCH  23  26
HETATM   26  N   UNL     1     -11.541   9.739  71.561  1.00  0.00    -0.379 N  
HETATM   27  H   UNL     1     -11.009   9.911  72.414  1.00  0.00     0.000 HD 
BRANCH  26  28
HETATM   28  S   UNL     1     -12.810  10.754  71.102  1.00  0.00    -0.407 S  
HETATM   29  O   UNL     1     -13.746  10.036  70.269  1.00  0.00     0.198 OA 
HETATM   30  C   UNL     1     -11.960  11.973  70.119  1.00  0.00    -0.321 C  
HETATM   31  O   UNL     1     -13.239  11.404  72.324  1.00  0.00    -0.415 OA 
ENDBRANCH  26  28
ENDBRANCH  23  26
ENDBRANCH  19  20
ENDBRANCH  18  19
ENDBRANCH  17  18
ENDBRANCH   2  17
TORSDOF 11
ENDMDL
MODEL       95
REMARK 921   NORMALIZED FREE ENERGY PREDICTED BY IDOCK:   -4.74 KCAL/MOL
REMARK 922        TOTAL FREE ENERGY PREDICTED BY IDOCK:   -9.34 KCAL/MOL
REMARK 923 INTER-LIGAND FREE ENERGY PREDICTED BY IDOCK:   -8.05 KCAL/MOL
REMARK 924 INTRA-LIGAND FREE ENERGY PREDICTED BY IDOCK:   -1.29 KCAL/MOL
REMARK 927      BINDING AFFINITY PREDICTED BY RF-SCORE:    0.00 PKD
ROOT
HETATM    1  C   UNL     1     -10.766  15.398  65.268  1.00  0.00    -0.421 C  
HETATM    2  N   UNL     1     -11.329  14.044  65.315  1.00  0.00    -0.311 NA 
ENDROOT
BRANCH   2   3
HETATM    3  C   UNL     1     -11.856  13.630  63.996  1.00  0.00    -0.400 C  
BRANCH   3   4
HETATM    4  C   UNL     1     -12.027  12.109  63.781  1.00  0.00    -0.607 C  
BRANCH   4   5
HETATM    5  C   UNL     1     -10.734  11.328  63.845  1.00  0.00    -0.451 A  
HETATM    6  C   UNL     1      -8.295   9.954  63.992  1.00  0.00    -0.168 A  
HETATM    7  C   UNL     1      -9.850  11.326  62.756  1.00  0.00    -0.241 A  
HETATM    8  C   UNL     1     -10.394  10.600  64.994  1.00  0.00    -0.341 A  
HETATM    9  C   UNL     1      -8.635  10.641  62.828  1.00  0.00    -0.231 A  
HETATM   10  C   UNL     1      -9.179   9.915  65.066  1.00  0.00    -0.295 A  
BRANCH   6  11
HETATM   11  N   UNL     1      -7.057   9.259  64.090  1.00  0.00    -0.096 N  
HETATM   12  H   UNL     1      -6.268   9.653  64.604  1.00  0.00     0.000 HD 
BRANCH  11  13
HETATM   13  S   UNL     1      -6.940   7.757  63.324  1.00  0.00    -0.075 S  
HETATM   14  O   UNL     1      -5.829   7.880  62.402  1.00  0.00    -0.067 OA 
HETATM   15  O   UNL     1      -8.241   7.320  62.871  1.00  0.00    -0.093 OA 
HETATM   16  C   UNL     1      -6.407   6.717  64.667  1.00  0.00    -0.038 C  
ENDBRANCH  11  13
ENDBRANCH   6  11
ENDBRANCH   4   5
ENDBRANCH   3   4
ENDBRANCH   2   3
BRANCH   2  17
HETATM   17  C   UNL     1     -12.367  13.990  66.371  1.00  0.00    -0.431 C  
BRANCH  17  18
HETATM   18  C   UNL     1     -11.826  13.740  67.788  1.00  0.00    -0.369 C  
BRANCH  18  19
HETATM   19  O   UNL     1     -10.771  12.772  67.730  1.00  0.00    -0.214 OA 
BRANCH  19  20
HETATM   20  C   UNL     1     -10.827  11.771  68.665  1.00  0.00    -0.220 A  
HETATM   21  C   UNL     1     -11.880  11.554  69.558  1.00  0.00    -0.419 A  
HETATM   22  C   UNL     1      -9.720  10.918  68.696  1.00  0.00    -0.188 A  
HETATM   23  C   UNL     1     -10.690   9.692  70.535  1.00  0.00    -0.311 A  
HETATM   24  C   UNL     1      -9.650   9.875  69.626  1.00  0.00    -0.249 A  
HETATM   25  C   UNL     1     -11.811  10.516  70.489  1.00  0.00    -0.442 A  
BRANCH  23  26
HETATM   26  N   UNL     1     -10.642   8.648  71.502  1.00  0.00    -0.256 N  
HETATM   27  H   UNL     1     -10.281   8.814  72.441  1.00  0.00     0.000 HD 
BRANCH  26  28
HETATM   28  S   UNL     1     -11.204   7.123  71.040  1.00  0.00    -0.281 S  
HETATM   29  O   UNL     1     -11.164   6.992  69.603  1.00  0.00    -0.243 OA 
HETATM   30  C   UNL     1     -12.901   7.184  71.580  1.00  0.00    -0.391 C  
HETATM   31  O   UNL     1     -10.509   6.184  71.899  1.00  0.00    -0.204 OA 
ENDBRANCH  26  28
ENDBRANCH  23  26
ENDBRANCH  19  20
ENDBRANCH  18  19
ENDBRANCH  17  18
ENDBRANCH   2  17
TORSDOF 11
ENDMDL
MODEL       96
REMARK 921   NORMALIZED FREE ENERGY PREDICTED BY IDOCK:   -4.74 KCAL/MOL
REMARK 922        TOTAL FREE ENERGY PREDICTED BY IDOCK:   -9.34 KCAL/MOL
REMARK 923 INTER-LIGAND FREE ENERGY PREDICTED BY IDOCK:   -8.80 KCAL/MOL
REMARK 924 INTRA-LIGAND FREE ENERGY PREDICTED BY IDOCK:   -0.55 KCAL/MOL
REMARK 927      BINDING AFFINITY PREDICTED BY RF-SCORE:    0.00 PKD
ROOT
HETATM    1  C   UNL     1     -12.193  13.198  65.764  1.00  0.00    -0.456 C  
HETATM    2  N   UNL     1     -12.181  12.944  67.209  1.00  0.00    -0.348 NA 
ENDROOT
BRANCH   2   3
HETATM    3  C   UNL     1     -12.158  14.205  67.980  1.00  0.00    -0.268 C  
BRANCH   3   4
HETATM    4  C   UNL     1     -11.029  14.341  69.027  1.00  0.00    -0.282 C  
BRANCH   4   5
HETATM    5  C   UNL     1     -10.024  15.426  68.713  1.00  0.00    -0.208 A  
HETATM    6  C   UNL     1      -8.160  17.459  68.217  1.00  0.00    -0.249 A  
HETATM    7  C   UNL     1     -10.449  16.745  68.491  1.00  0.00    -0.335 A  
HETATM    8  C   UNL     1      -8.655  15.136  68.645  1.00  0.00    -0.172 A  
HETATM    9  C   UNL     1      -9.521  17.759  68.243  1.00  0.00    -0.290 A  
HETATM   10  C   UNL     1      -7.727  16.149  68.397  1.00  0.00    -0.154 A  
BRANCH   6  11
HETATM   11  N   UNL     1      -7.197  18.480  67.976  1.00  0.00    -0.240 N  
HETATM   12  H   UNL     1      -6.681  18.911  68.744  1.00  0.00     0.000 HD 
BRANCH  11  13
HETATM   13  S   UNL     1      -6.939  18.950  66.374  1.00  0.00    -0.232 S  
HETATM   14  O   UNL     1      -7.240  17.779  65.576  1.00  0.00    -0.475 OA 
HETATM   15  O   UNL     1      -5.672  19.634  66.248  1.00  0.00    -0.170 OA 
HETATM   16  C   UNL     1      -8.262  20.116  66.131  1.00  0.00    -0.194 C  
ENDBRANCH  11  13
ENDBRANCH   6  11
ENDBRANCH   4   5
ENDBRANCH   3   4
ENDBRANCH   2   3
BRANCH   2  17
HETATM   17  C   UNL     1     -11.031  12.070  67.535  1.00  0.00    -0.253 C  
BRANCH  17  18
HETATM   18  C   UNL     1     -11.406  10.745  68.218  1.00  0.00    -0.309 C  
BRANCH  18  19
HETATM   19  O   UNL     1     -11.971  11.018  69.506  1.00  0.00    -0.301 OA 
BRANCH  19  20
HETATM   20  C   UNL     1     -11.651  10.129  70.500  1.00  0.00    -0.329 A  
HETATM   21  C   UNL     1     -10.360   9.693  70.812  1.00  0.00    -0.356 A  
HETATM   22  C   UNL     1     -12.732   9.642  71.239  1.00  0.00    -0.443 A  
HETATM   23  C   UNL     1     -11.245   8.254  72.538  1.00  0.00    -0.376 A  
HETATM   24  C   UNL     1     -12.533   8.709  72.262  1.00  0.00    -0.460 A  
HETATM   25  C   UNL     1     -10.159   8.758  71.829  1.00  0.00    -0.403 A  
BRANCH  23  26
HETATM   26  N   UNL     1     -11.012   7.293  73.564  1.00  0.00    -0.555 N  
HETATM   27  H   UNL     1     -11.026   7.559  74.549  1.00  0.00     0.000 HD 
BRANCH  26  28
HETATM   28  S   UNL     1     -10.713   5.699  73.093  1.00  0.00    -0.286 S  
HETATM   29  O   UNL     1     -11.235   4.782  74.079  1.00  0.00    -0.273 OA 
HETATM   30  C   UNL     1      -8.932   5.643  73.119  1.00  0.00    -0.121 C  
HETATM   31  O   UNL     1     -11.129   5.627  71.707  1.00  0.00    -0.256 OA 
ENDBRANCH  26  28
ENDBRANCH  23  26
ENDBRANCH  19  20
ENDBRANCH  18  19
ENDBRANCH  17  18
ENDBRANCH   2  17
TORSDOF 11
ENDMDL
MODEL       97
REMARK 921   NORMALIZED FREE ENERGY PREDICTED BY IDOCK:   -4.73 KCAL/MOL
REMARK 922        TOTAL FREE ENERGY PREDICTED BY IDOCK:   -9.34 KCAL/MOL
REMARK 923 INTER-LIGAND FREE ENERGY PREDICTED BY IDOCK:   -8.12 KCAL/MOL
REMARK 924 INTRA-LIGAND FREE ENERGY PREDICTED BY IDOCK:   -1.22 KCAL/MOL
REMARK 927      BINDING AFFINITY PREDICTED BY RF-SCORE:    0.00 PKD
ROOT
HETATM    1  C   UNL     1     -12.775  13.979  65.585  1.00  0.00    -0.481 C  
HETATM    2  N   UNL     1     -12.398  12.571  65.428  1.00  0.00    -0.635 NA 
ENDROOT
BRANCH   2   3
HETATM    3  C   UNL     1     -11.430  12.150  66.464  1.00  0.00    -0.369 C  
BRANCH   3   4
HETATM    4  C   UNL     1     -11.782  12.535  67.919  1.00  0.00    -0.416 C  
BRANCH   4   5
HETATM    5  C   UNL     1     -11.469  11.458  68.935  1.00  0.00    -0.363 A  
HETATM    6  C   UNL     1     -10.944   9.408  70.771  1.00  0.00    -0.304 A  
HETATM    7  C   UNL     1     -12.318  11.249  70.032  1.00  0.00    -0.330 A  
HETATM    8  C   UNL     1     -10.334  10.649  68.793  1.00  0.00    -0.210 A  
HETATM    9  C   UNL     1     -12.056  10.228  70.949  1.00  0.00    -0.468 A  
HETATM   10  C   UNL     1     -10.072   9.628  69.709  1.00  0.00    -0.258 A  
BRANCH   6  11
HETATM   11  N   UNL     1     -10.665   8.354  71.688  1.00  0.00    -0.246 N  
HETATM   12  H   UNL     1     -10.411   8.550  72.656  1.00  0.00     0.000 HD 
BRANCH  11  13
HETATM   13  S   UNL     1     -10.769   6.769  71.112  1.00  0.00    -0.235 S  
HETATM   14  O   UNL     1      -9.402   6.360  70.865  1.00  0.00    -0.160 OA 
HETATM   15  O   UNL     1     -11.775   6.674  70.079  1.00  0.00    -0.383 OA 
HETATM   16  C   UNL     1     -11.332   5.904  72.562  1.00  0.00    -0.304 C  
ENDBRANCH  11  13
ENDBRANCH   6  11
ENDBRANCH   4   5
ENDBRANCH   3   4
ENDBRANCH   2   3
BRANCH   2  17
HETATM   17  C   UNL     1     -11.874  12.362  64.058  1.00  0.00    -0.439 C  
BRANCH  17  18
HETATM   18  C   UNL     1     -10.352  12.164  63.977  1.00  0.00    -0.385 C  
BRANCH  18  19
HETATM   19  O   UNL     1     -10.063  11.045  63.130  1.00  0.00    -0.332 OA 
BRANCH  19  20
HETATM   20  C   UNL     1      -9.355  10.024  63.709  1.00  0.00    -0.257 A  
HETATM   21  C   UNL     1      -8.522   9.130  63.031  1.00  0.00    -0.206 A  
HETATM   22  C   UNL     1      -9.507   9.900  65.092  1.00  0.00    -0.338 A  
HETATM   23  C   UNL     1      -8.056   7.971  65.099  1.00  0.00    -0.143 A  
HETATM   24  C   UNL     1      -8.855   8.878  65.791  1.00  0.00    -0.223 A  
HETATM   25  C   UNL     1      -7.874   8.107  63.726  1.00  0.00    -0.147 A  
BRANCH  23  26
HETATM   26  N   UNL     1      -7.391   6.911  65.780  1.00  0.00    -0.076 N  
HETATM   27  H   UNL     1      -6.452   7.035  66.159  1.00  0.00     0.000 HD 
BRANCH  26  28
HETATM   28  S   UNL     1      -8.211   5.443  65.939  1.00  0.00    -0.123 S  
HETATM   29  O   UNL     1      -9.118   5.257  64.831  1.00  0.00    -0.104 OA 
HETATM   30  C   UNL     1      -9.148   5.712  67.430  1.00  0.00    -0.110 C  
HETATM   31  O   UNL     1      -7.185   4.464  66.241  1.00  0.00    -0.073 OA 
ENDBRANCH  26  28
ENDBRANCH  23  26
ENDBRANCH  19  20
ENDBRANCH  18  19
ENDBRANCH  17  18
ENDBRANCH   2  17
TORSDOF 11
ENDMDL
MODEL       98
REMARK 921   NORMALIZED FREE ENERGY PREDICTED BY IDOCK:   -4.73 KCAL/MOL
REMARK 922        TOTAL FREE ENERGY PREDICTED BY IDOCK:   -9.33 KCAL/MOL
REMARK 923 INTER-LIGAND FREE ENERGY PREDICTED BY IDOCK:   -7.55 KCAL/MOL
REMARK 924 INTRA-LIGAND FREE ENERGY PREDICTED BY IDOCK:   -1.78 KCAL/MOL
REMARK 927      BINDING AFFINITY PREDICTED BY RF-SCORE:    0.00 PKD
ROOT
HETATM    1  C   UNL     1     -11.905  15.040  68.162  1.00  0.00    -0.260 C  
HETATM    2  N   UNL     1     -11.283  14.801  66.855  1.00  0.00    -0.340 NA 
ENDROOT
BRANCH   2   3
HETATM    3  C   UNL     1     -11.890  13.640  66.170  1.00  0.00    -0.392 C  
BRANCH   3   4
HETATM    4  C   UNL     1     -11.456  13.414  64.703  1.00  0.00    -0.375 C  
BRANCH   4   5
HETATM    5  C   UNL     1     -10.664  12.145  64.484  1.00  0.00    -0.353 A  
HETATM    6  C   UNL     1      -9.269   9.754  64.043  1.00  0.00    -0.215 A  
HETATM    7  C   UNL     1     -10.679  11.123  65.445  1.00  0.00    -0.259 A  
HETATM    8  C   UNL     1      -9.910  11.965  63.316  1.00  0.00    -0.354 A  
HETATM    9  C   UNL     1      -9.983   9.932  65.227  1.00  0.00    -0.320 A  
HETATM   10  C   UNL     1      -9.215  10.774  63.098  1.00  0.00    -0.309 A  
BRANCH   6  11
HETATM   11  N   UNL     1      -8.563   8.543  63.796  1.00  0.00    -0.411 N  
HETATM   12  H   UNL     1      -8.888   7.874  63.097  1.00  0.00     0.000 HD 
BRANCH  11  13
HETATM   13  S   UNL     1      -7.166   8.253  64.702  1.00  0.00    -0.086 S  
HETATM   14  O   UNL     1      -7.581   7.378  65.779  1.00  0.00    -0.083 OA 
HETATM   15  O   UNL     1      -6.475   9.494  64.973  1.00  0.00    -0.077 OA 
HETATM   16  C   UNL     1      -6.203   7.281  63.564  1.00  0.00    -0.048 C  
ENDBRANCH  11  13
ENDBRANCH   6  11
ENDBRANCH   4   5
ENDBRANCH   3   4
ENDBRANCH   2   3
BRANCH   2  17
HETATM   17  C   UNL     1      -9.822  14.638  67.041  1.00  0.00    -0.244 C  
BRANCH  17  18
HETATM   18  C   UNL     1      -9.412  14.016  68.384  1.00  0.00    -0.213 C  
BRANCH  18  19
HETATM   19  O   UNL     1      -8.800  12.741  68.150  1.00  0.00    -0.186 OA 
BRANCH  19  20
HETATM   20  C   UNL     1      -9.511  11.650  68.580  1.00  0.00    -0.173 A  
HETATM   21  C   UNL     1     -10.862  11.651  68.934  1.00  0.00    -0.264 A  
HETATM   22  C   UNL     1      -8.787  10.457  68.656  1.00  0.00    -0.142 A  
HETATM   23  C   UNL     1     -10.736   9.304  69.491  1.00  0.00    -0.222 A  
HETATM   24  C   UNL     1      -9.397   9.281  69.106  1.00  0.00    -0.157 A  
HETATM   25  C   UNL     1     -11.473  10.480  69.387  1.00  0.00    -0.329 A  
BRANCH  23  26
HETATM   26  N   UNL     1     -11.382   8.127  69.966  1.00  0.00    -0.450 N  
HETATM   27  H   UNL     1     -11.628   7.367  69.332  1.00  0.00     0.000 HD 
BRANCH  26  28
HETATM   28  S   UNL     1     -11.725   8.032  71.617  1.00  0.00    -0.299 S  
HETATM   29  O   UNL     1     -10.697   8.702  72.379  1.00  0.00    -0.339 OA 
HETATM   30  C   UNL     1     -11.625   6.277  71.908  1.00  0.00    -0.317 C  
HETATM   31  O   UNL     1     -13.118   8.414  71.740  1.00  0.00    -0.331 OA 
ENDBRANCH  26  28
ENDBRANCH  23  26
ENDBRANCH  19  20
ENDBRANCH  18  19
ENDBRANCH  17  18
ENDBRANCH   2  17
TORSDOF 11
ENDMDL
MODEL       99
REMARK 921   NORMALIZED FREE ENERGY PREDICTED BY IDOCK:   -4.72 KCAL/MOL
REMARK 922        TOTAL FREE ENERGY PREDICTED BY IDOCK:   -9.32 KCAL/MOL
REMARK 923 INTER-LIGAND FREE ENERGY PREDICTED BY IDOCK:   -7.80 KCAL/MOL
REMARK 924 INTRA-LIGAND FREE ENERGY PREDICTED BY IDOCK:   -1.53 KCAL/MOL
REMARK 927      BINDING AFFINITY PREDICTED BY RF-SCORE:    0.00 PKD
ROOT
HETATM    1  C   UNL     1      -6.575  16.857  66.817  1.00  0.00    -0.225 C  
HETATM    2  N   UNL     1      -6.544  16.177  68.116  1.00  0.00    -0.119 NA 
ENDROOT
BRANCH   2   3
HETATM    3  C   UNL     1      -6.614  14.708  67.961  1.00  0.00    -0.146 C  
BRANCH   3   4
HETATM    4  C   UNL     1      -7.799  14.170  67.127  1.00  0.00    -0.063 C  
BRANCH   4   5
HETATM    5  C   UNL     1      -8.225  12.766  67.497  1.00  0.00    -0.179 A  
HETATM    6  C   UNL     1      -8.972  10.175  68.259  1.00  0.00    -0.120 A  
HETATM    7  C   UNL     1      -7.379  11.677  67.243  1.00  0.00    -0.136 A  
HETATM    8  C   UNL     1      -9.466  12.533  68.103  1.00  0.00    -0.214 A  
HETATM    9  C   UNL     1      -7.751  10.385  67.621  1.00  0.00    -0.093 A  
HETATM   10  C   UNL     1      -9.838  11.241  68.482  1.00  0.00    -0.198 A  
BRANCH   6  11
HETATM   11  N   UNL     1      -9.365   8.868  68.663  1.00  0.00    -0.140 N  
HETATM   12  H   UNL     1      -9.235   8.550  69.624  1.00  0.00     0.000 HD 
BRANCH  11  13
HETATM   13  S   UNL     1     -10.054   7.862  67.494  1.00  0.00    -0.235 S  
HETATM   14  O   UNL     1     -10.502   8.749  66.439  1.00  0.00    -0.216 OA 
HETATM   15  O   UNL     1     -10.959   6.919  68.110  1.00  0.00    -0.207 OA 
HETATM   16  C   UNL     1      -8.624   6.993  66.888  1.00  0.00    -0.120 C  
ENDBRANCH  11  13
ENDBRANCH   6  11
ENDBRANCH   4   5
ENDBRANCH   3   4
ENDBRANCH   2   3
BRANCH   2  17
HETATM   17  C   UNL     1      -7.641  16.702  68.961  1.00  0.00    -0.226 C  
BRANCH  17  18
HETATM   18  C   UNL     1      -8.581  17.690  68.251  1.00  0.00    -0.268 C  
BRANCH  18  19
HETATM   19  O   UNL     1      -9.937  17.260  68.420  1.00  0.00    -0.285 OA 
BRANCH  19  20
HETATM   20  C   UNL     1     -10.466  16.529  67.388  1.00  0.00    -0.310 A  
HETATM   21  C   UNL     1     -10.169  16.707  66.034  1.00  0.00    -0.366 A  
HETATM   22  C   UNL     1     -11.372  15.533  67.762  1.00  0.00    -0.286 A  
HETATM   23  C   UNL     1     -11.721  14.952  65.445  1.00  0.00    -0.238 A  
HETATM   24  C   UNL     1     -11.998  14.740  66.794  1.00  0.00    -0.210 A  
HETATM   25  C   UNL     1     -10.795  15.919  65.066  1.00  0.00    -0.444 A  
BRANCH  23  26
HETATM   26  N   UNL     1     -12.352  14.170  64.436  1.00  0.00    -0.636 N  
HETATM   27  H   UNL     1     -12.981  14.595  63.755  1.00  0.00     0.000 HD 
BRANCH  26  28
HETATM   28  S   UNL     1     -12.023  12.514  64.405  1.00  0.00    -0.430 S  
HETATM   29  O   UNL     1     -12.068  11.972  65.743  1.00  0.00    -0.536 OA 
HETATM   30  C   UNL     1     -10.341  12.490  63.816  1.00  0.00    -0.388 C  
HETATM   31  O   UNL     1     -12.860  11.978  63.350  1.00  0.00    -0.760 OA 
ENDBRANCH  26  28
ENDBRANCH  23  26
ENDBRANCH  19  20
ENDBRANCH  18  19
ENDBRANCH  17  18
ENDBRANCH   2  17
TORSDOF 11
ENDMDL
MODEL      100
REMARK 921   NORMALIZED FREE ENERGY PREDICTED BY IDOCK:   -4.72 KCAL/MOL
REMARK 922        TOTAL FREE ENERGY PREDICTED BY IDOCK:   -9.32 KCAL/MOL
REMARK 923 INTER-LIGAND FREE ENERGY PREDICTED BY IDOCK:   -7.75 KCAL/MOL
REMARK 924 INTRA-LIGAND FREE ENERGY PREDICTED BY IDOCK:   -1.57 KCAL/MOL
REMARK 927      BINDING AFFINITY PREDICTED BY RF-SCORE:    0.00 PKD
ROOT
HETATM    1  C   UNL     1      -6.577   7.051  69.206  1.00  0.00    -0.045 C  
HETATM    2  N   UNL     1      -6.255   6.830  67.792  1.00  0.00    -0.038 NA 
ENDROOT
BRANCH   2   3
HETATM    3  C   UNL     1      -7.051   7.712  66.911  1.00  0.00    -0.084 C  
BRANCH   3   4
HETATM    4  C   UNL     1      -6.997   9.222  67.234  1.00  0.00    -0.081 C  
BRANCH   4   5
HETATM    5  C   UNL     1      -8.230   9.988  66.807  1.00  0.00    -0.121 A  
HETATM    6  C   UNL     1     -10.549  11.392  66.098  1.00  0.00    -0.265 A  
HETATM    7  C   UNL     1      -9.352   9.307  66.310  1.00  0.00    -0.257 A  
HETATM    8  C   UNL     1      -8.275  11.385  66.908  1.00  0.00    -0.157 A  
HETATM    9  C   UNL     1     -10.507  10.007  65.955  1.00  0.00    -0.115 A  
HETATM   10  C   UNL     1      -9.431  12.084  66.553  1.00  0.00    -0.234 A  
BRANCH   6  11
HETATM   11  N   UNL     1     -11.721  12.123  65.752  1.00  0.00    -0.375 N  
HETATM   12  H   UNL     1     -12.437  12.334  66.448  1.00  0.00     0.000 HD 
BRANCH  11  13
HETATM   13  S   UNL     1     -11.884  12.628  64.148  1.00  0.00    -0.450 S  
HETATM   14  O   UNL     1     -13.143  12.071  63.696  1.00  0.00    -0.756 OA 
HETATM   15  O   UNL     1     -10.659  12.392  63.419  1.00  0.00    -0.436 OA 
HETATM   16  C   UNL     1     -12.117  14.381  64.351  1.00  0.00    -0.470 C  
ENDBRANCH  11  13
ENDBRANCH   6  11
ENDBRANCH   4   5
ENDBRANCH   3   4
ENDBRANCH   2   3
BRANCH   2  17
HETATM   17  C   UNL     1      -6.451   5.397  67.471  1.00  0.00    -0.051 C  
BRANCH  17  18
HETATM   18  C   UNL     1      -7.820   5.058  66.862  1.00  0.00    -0.096 C  
BRANCH  18  19
HETATM   19  O   UNL     1      -8.575   4.276  67.795  1.00  0.00    -0.098 OA 
BRANCH  19  20
HETATM   20  C   UNL     1      -9.464   4.970  68.575  1.00  0.00    -0.138 A  
HETATM   21  C   UNL     1      -9.612   4.828  69.957  1.00  0.00    -0.260 A  
HETATM   22  C   UNL     1     -10.272   5.884  67.893  1.00  0.00    -0.225 A  
HETATM   23  C   UNL     1     -11.398   6.454  69.950  1.00  0.00    -0.434 A  
HETATM   24  C   UNL     1     -11.236   6.631  68.578  1.00  0.00    -0.227 A  
HETATM   25  C   UNL     1     -10.576   5.570  70.642  1.00  0.00    -0.329 A  
BRANCH  23  26
HETATM   26  N   UNL     1     -12.380   7.190  70.673  1.00  0.00    -0.596 N  
HETATM   27  H   UNL     1     -13.373   6.969  70.590  1.00  0.00     0.000 HD 
BRANCH  26  28
HETATM   28  S   UNL     1     -11.845   8.442  71.672  1.00  0.00    -0.325 S  
HETATM   29  O   UNL     1     -11.421   7.915  72.948  1.00  0.00    -0.403 OA 
HETATM   30  C   UNL     1     -13.337   9.391  71.894  1.00  0.00    -0.434 C  
HETATM   31  O   UNL     1     -10.948   9.229  70.850  1.00  0.00    -0.249 OA 
ENDBRANCH  26  28
ENDBRANCH  23  26
ENDBRANCH  19  20
ENDBRANCH  18  19
ENDBRANCH  17  18
ENDBRANCH   2  17
TORSDOF 11
ENDMDL
MODEL      101
REMARK 921   NORMALIZED FREE ENERGY PREDICTED BY IDOCK:   -4.72 KCAL/MOL
REMARK 922        TOTAL FREE ENERGY PREDICTED BY IDOCK:   -9.32 KCAL/MOL
REMARK 923 INTER-LIGAND FREE ENERGY PREDICTED BY IDOCK:   -7.95 KCAL/MOL
REMARK 924 INTRA-LIGAND FREE ENERGY PREDICTED BY IDOCK:   -1.37 KCAL/MOL
REMARK 927      BINDING AFFINITY PREDICTED BY RF-SCORE:    0.00 PKD
ROOT
HETATM    1  C   UNL     1      -6.939   8.479  63.457  1.00  0.00    -0.089 C  
HETATM    2  N   UNL     1      -7.455   9.831  63.694  1.00  0.00    -0.125 NA 
ENDROOT
BRANCH   2   3
HETATM    3  C   UNL     1      -7.210  10.269  65.084  1.00  0.00    -0.125 C  
BRANCH   3   4
HETATM    4  C   UNL     1      -7.243   9.161  66.162  1.00  0.00    -0.090 C  
BRANCH   4   5
HETATM    5  C   UNL     1      -8.365   9.311  67.165  1.00  0.00    -0.124 A  
HETATM    6  C   UNL     1     -10.469   9.662  68.982  1.00  0.00    -0.213 A  
HETATM    7  C   UNL     1      -8.193  10.104  68.309  1.00  0.00    -0.110 A  
HETATM    8  C   UNL     1      -9.594   8.667  66.965  1.00  0.00    -0.240 A  
HETATM    9  C   UNL     1      -9.241  10.278  69.217  1.00  0.00    -0.215 A  
HETATM   10  C   UNL     1     -10.641   8.842  67.871  1.00  0.00    -0.244 A  
BRANCH   6  11
HETATM   11  N   UNL     1     -11.553   9.837  69.889  1.00  0.00    -0.424 N  
HETATM   12  H   UNL     1     -12.245  10.573  69.749  1.00  0.00     0.000 HD 
BRANCH  11  13
HETATM   13  S   UNL     1     -11.652   8.780  71.203  1.00  0.00    -0.301 S  
HETATM   14  O   UNL     1     -10.497   9.079  72.025  1.00  0.00    -0.346 OA 
HETATM   15  O   UNL     1     -11.915   7.433  70.748  1.00  0.00    -0.292 OA 
HETATM   16  C   UNL     1     -13.087   9.403  72.051  1.00  0.00    -0.433 C  
ENDBRANCH  11  13
ENDBRANCH   6  11
ENDBRANCH   4   5
ENDBRANCH   3   4
ENDBRANCH   2   3
BRANCH   2  17
HETATM   17  C   UNL     1      -8.894   9.865  63.344  1.00  0.00    -0.238 C  
BRANCH  17  18
HETATM   18  C   UNL     1      -9.419  11.248  62.925  1.00  0.00    -0.361 C  
BRANCH  18  19
HETATM   19  O   UNL     1     -10.699  11.473  63.529  1.00  0.00    -0.381 OA 
BRANCH  19  20
HETATM   20  C   UNL     1     -10.741  12.445  64.496  1.00  0.00    -0.321 A  
HETATM   21  C   UNL     1     -10.187  12.340  65.774  1.00  0.00    -0.281 A  
HETATM   22  C   UNL     1     -11.401  13.621  64.133  1.00  0.00    -0.330 A  
HETATM   23  C   UNL     1     -11.008  14.543  66.329  1.00  0.00    -0.323 A  
HETATM   24  C   UNL     1     -11.532  14.674  65.045  1.00  0.00    -0.386 A  
HETATM   25  C   UNL     1     -10.320  13.388  66.687  1.00  0.00    -0.269 A  
BRANCH  23  26
HETATM   26  N   UNL     1     -11.137  15.592  67.283  1.00  0.00    -0.282 N  
HETATM   27  H   UNL     1     -11.781  15.513  68.070  1.00  0.00     0.000 HD 
BRANCH  26  28
HETATM   28  S   UNL     1     -10.187  16.972  67.068  1.00  0.00    -0.302 S  
HETATM   29  O   UNL     1     -10.531  17.625  65.827  1.00  0.00    -0.550 OA 
HETATM   30  C   UNL     1      -8.555  16.269  66.931  1.00  0.00    -0.215 C  
HETATM   31  O   UNL     1     -10.251  17.680  68.331  1.00  0.00    -0.337 OA 
ENDBRANCH  26  28
ENDBRANCH  23  26
ENDBRANCH  19  20
ENDBRANCH  18  19
ENDBRANCH  17  18
ENDBRANCH   2  17
TORSDOF 11
ENDMDL
MODEL      102
REMARK 921   NORMALIZED FREE ENERGY PREDICTED BY IDOCK:   -4.71 KCAL/MOL
REMARK 922        TOTAL FREE ENERGY PREDICTED BY IDOCK:   -9.30 KCAL/MOL
REMARK 923 INTER-LIGAND FREE ENERGY PREDICTED BY IDOCK:   -8.44 KCAL/MOL
REMARK 924 INTRA-LIGAND FREE ENERGY PREDICTED BY IDOCK:   -0.86 KCAL/MOL
REMARK 927      BINDING AFFINITY PREDICTED BY RF-SCORE:    0.00 PKD
ROOT
HETATM    1  C   UNL     1      -8.071   4.915  65.378  1.00  0.00    -0.114 C  
HETATM    2  N   UNL     1      -6.929   5.768  65.725  1.00  0.00    -0.067 NA 
ENDROOT
BRANCH   2   3
HETATM    3  C   UNL     1      -6.963   6.167  67.148  1.00  0.00    -0.068 C  
BRANCH   3   4
HETATM    4  C   UNL     1      -7.703   5.206  68.106  1.00  0.00    -0.084 C  
BRANCH   4   5
HETATM    5  C   UNL     1      -8.926   5.808  68.760  1.00  0.00    -0.116 A  
HETATM    6  C   UNL     1     -11.243   6.890  69.908  1.00  0.00    -0.285 A  
HETATM    7  C   UNL     1      -9.415   7.054  68.340  1.00  0.00    -0.133 A  
HETATM    8  C   UNL     1      -9.594   5.131  69.789  1.00  0.00    -0.242 A  
HETATM    9  C   UNL     1     -10.569   7.595  68.913  1.00  0.00    -0.176 A  
HETATM   10  C   UNL     1     -10.748   5.670  70.361  1.00  0.00    -0.352 A  
BRANCH   6  11
HETATM   11  N   UNL     1     -12.427   7.417  70.496  1.00  0.00    -0.557 N  
HETATM   12  H   UNL     1     -13.327   6.949  70.386  1.00  0.00     0.000 HD 
BRANCH  11  13
HETATM   13  S   UNL     1     -12.289   8.848  71.385  1.00  0.00    -0.307 S  
HETATM   14  O   UNL     1     -13.386   8.820  72.331  1.00  0.00    -0.400 OA 
HETATM   15  O   UNL     1     -12.095   9.974  70.500  1.00  0.00    -0.274 OA 
HETATM   16  C   UNL     1     -10.789   8.553  72.297  1.00  0.00    -0.348 C  
ENDBRANCH  11  13
ENDBRANCH   6  11
ENDBRANCH   4   5
ENDBRANCH   3   4
ENDBRANCH   2   3
BRANCH   2  17
HETATM   17  C   UNL     1      -6.911   6.939  64.818  1.00  0.00    -0.051 C  
BRANCH  17  18
HETATM   18  C   UNL     1      -7.478   8.231  65.427  1.00  0.00    -0.085 C  
BRANCH  18  19
HETATM   19  O   UNL     1      -8.866   8.347  65.089  1.00  0.00    -0.143 OA 
BRANCH  19  20
HETATM   20  C   UNL     1      -9.317   9.618  64.841  1.00  0.00    -0.242 A  
HETATM   21  C   UNL     1      -9.550  10.161  63.575  1.00  0.00    -0.249 A  
HETATM   22  C   UNL     1      -9.550  10.402  65.973  1.00  0.00    -0.251 A  
HETATM   23  C   UNL     1     -10.180  12.267  64.577  1.00  0.00    -0.296 A  
HETATM   24  C   UNL     1      -9.986  11.725  65.845  1.00  0.00    -0.266 A  
HETATM   25  C   UNL     1      -9.982  11.483  63.445  1.00  0.00    -0.445 A  
BRANCH  23  26
HETATM   26  N   UNL     1     -10.610  13.615  64.414  1.00  0.00    -0.549 N  
HETATM   27  H   UNL     1      -9.961  14.345  64.118  1.00  0.00     0.000 HD 
BRANCH  26  28
HETATM   28  S   UNL     1     -12.233  13.965  64.727  1.00  0.00    -0.410 S  
HETATM   29  O   UNL     1     -12.634  15.153  64.011  1.00  0.00    -0.791 OA 
HETATM   30  C   UNL     1     -12.197  14.312  66.474  1.00  0.00    -0.391 C  
HETATM   31  O   UNL     1     -12.935  12.709  64.548  1.00  0.00    -0.744 OA 
ENDBRANCH  26  28
ENDBRANCH  23  26
ENDBRANCH  19  20
ENDBRANCH  18  19
ENDBRANCH  17  18
ENDBRANCH   2  17
TORSDOF 11
ENDMDL
MODEL      103
REMARK 921   NORMALIZED FREE ENERGY PREDICTED BY IDOCK:   -4.70 KCAL/MOL
REMARK 922        TOTAL FREE ENERGY PREDICTED BY IDOCK:   -9.29 KCAL/MOL
REMARK 923 INTER-LIGAND FREE ENERGY PREDICTED BY IDOCK:   -9.16 KCAL/MOL
REMARK 924 INTRA-LIGAND FREE ENERGY PREDICTED BY IDOCK:   -0.14 KCAL/MOL
REMARK 927      BINDING AFFINITY PREDICTED BY RF-SCORE:    0.00 PKD
ROOT
HETATM    1  C   UNL     1      -9.043  14.708  68.337  1.00  0.00    -0.192 C  
HETATM    2  N   UNL     1     -10.039  14.796  67.264  1.00  0.00    -0.235 NA 
ENDROOT
BRANCH   2   3
HETATM    3  C   UNL     1     -11.219  15.584  67.682  1.00  0.00    -0.291 C  
BRANCH   3   4
HETATM    4  C   UNL     1     -10.940  16.771  68.633  1.00  0.00    -0.298 C  
BRANCH   4   5
HETATM    5  C   UNL     1     -10.047  17.838  68.042  1.00  0.00    -0.355 A  
HETATM    6  C   UNL     1      -8.442  19.878  66.986  1.00  0.00    -0.328 A  
HETATM    7  C   UNL     1     -10.396  18.470  66.839  1.00  0.00    -0.431 A  
HETATM    8  C   UNL     1      -8.863  18.218  68.687  1.00  0.00    -0.294 A  
HETATM    9  C   UNL     1      -9.595  19.486  66.311  1.00  0.00    -0.466 A  
HETATM   10  C   UNL     1      -8.063  19.234  68.161  1.00  0.00    -0.349 A  
BRANCH   6  11
HETATM   11  N   UNL     1      -7.618  20.920  66.472  1.00  0.00    -0.539 N  
HETATM   12  H   UNL     1      -7.839  21.901  66.642  1.00  0.00     0.000 HD 
BRANCH  11  13
HETATM   13  S   UNL     1      -6.261  20.471  65.570  1.00  0.00    -0.249 S  
HETATM   14  O   UNL     1      -5.128  20.688  66.447  1.00  0.00    -0.158 OA 
HETATM   15  O   UNL     1      -6.312  21.066  64.254  1.00  0.00    -0.312 OA 
HETATM   16  C   UNL     1      -6.497  18.712  65.429  1.00  0.00    -0.264 C  
ENDBRANCH  11  13
ENDBRANCH   6  11
ENDBRANCH   4   5
ENDBRANCH   3   4
ENDBRANCH   2   3
BRANCH   2  17
HETATM   17  C   UNL     1     -10.408  13.426  66.836  1.00  0.00    -0.257 C  
BRANCH  17  18
HETATM   18  C   UNL     1     -11.869  13.039  67.113  1.00  0.00    -0.373 C  
BRANCH  18  19
HETATM   19  O   UNL     1     -11.999  11.613  67.067  1.00  0.00    -0.593 OA 
BRANCH  19  20
HETATM   20  C   UNL     1     -11.645  10.942  68.210  1.00  0.00    -0.262 A  
HETATM   21  C   UNL     1     -12.126  11.217  69.492  1.00  0.00    -0.386 A  
HETATM   22  C   UNL     1     -10.724   9.906  68.035  1.00  0.00    -0.296 A  
HETATM   23  C   UNL     1     -10.726   9.475  70.409  1.00  0.00    -0.284 A  
HETATM   24  C   UNL     1     -10.266   9.168  69.131  1.00  0.00    -0.215 A  
HETATM   25  C   UNL     1     -11.668  10.484  70.588  1.00  0.00    -0.453 A  
BRANCH  23  26
HETATM   26  N   UNL     1     -10.269   8.751  71.547  1.00  0.00    -0.271 N  
HETATM   27  H   UNL     1      -9.537   9.125  72.152  1.00  0.00     0.000 HD 
BRANCH  26  28
HETATM   28  S   UNL     1     -10.978   7.251  71.860  1.00  0.00    -0.236 S  
HETATM   29  O   UNL     1     -12.394   7.300  71.576  1.00  0.00    -0.323 OA 
HETATM   30  C   UNL     1     -10.734   7.094  73.618  1.00  0.00    -0.260 C  
HETATM   31  O   UNL     1     -10.118   6.279  71.213  1.00  0.00    -0.186 OA 
ENDBRANCH  26  28
ENDBRANCH  23  26
ENDBRANCH  19  20
ENDBRANCH  18  19
ENDBRANCH  17  18
ENDBRANCH   2  17
TORSDOF 11
ENDMDL
MODEL      104
REMARK 921   NORMALIZED FREE ENERGY PREDICTED BY IDOCK:   -4.70 KCAL/MOL
REMARK 922        TOTAL FREE ENERGY PREDICTED BY IDOCK:   -9.28 KCAL/MOL
REMARK 923 INTER-LIGAND FREE ENERGY PREDICTED BY IDOCK:   -8.15 KCAL/MOL
REMARK 924 INTRA-LIGAND FREE ENERGY PREDICTED BY IDOCK:   -1.13 KCAL/MOL
REMARK 927      BINDING AFFINITY PREDICTED BY RF-SCORE:    0.00 PKD
ROOT
HETATM    1  C   UNL     1     -12.899   9.843  70.894  1.00  0.00    -0.280 C  
HETATM    2  N   UNL     1     -11.471  10.050  71.155  1.00  0.00    -0.368 NA 
ENDROOT
BRANCH   2   3
HETATM    3  C   UNL     1     -10.799  10.699  70.009  1.00  0.00    -0.217 C  
BRANCH   3   4
HETATM    4  C   UNL     1     -11.700  11.052  68.804  1.00  0.00    -0.383 C  
BRANCH   4   5
HETATM    5  C   UNL     1     -11.218  12.240  68.001  1.00  0.00    -0.321 A  
HETATM    6  C   UNL     1     -10.285  14.385  66.457  1.00  0.00    -0.274 A  
HETATM    7  C   UNL     1      -9.944  12.782  68.229  1.00  0.00    -0.230 A  
HETATM    8  C   UNL     1     -12.031  12.813  67.014  1.00  0.00    -0.364 A  
HETATM    9  C   UNL     1      -9.479  13.852  67.461  1.00  0.00    -0.216 A  
HETATM   10  C   UNL     1     -11.565  13.882  66.245  1.00  0.00    -0.378 A  
BRANCH   6  11
HETATM   11  N   UNL     1      -9.825  15.468  65.655  1.00  0.00    -0.346 N  
HETATM   12  H   UNL     1      -9.322  15.303  64.783  1.00  0.00     0.000 HD 
BRANCH  11  13
HETATM   13  S   UNL     1     -10.144  17.035  66.200  1.00  0.00    -0.298 S  
HETATM   14  O   UNL     1     -10.780  16.871  67.492  1.00  0.00    -0.329 OA 
HETATM   15  O   UNL     1     -10.767  17.815  65.156  1.00  0.00    -0.638 OA 
HETATM   16  C   UNL     1      -8.499  17.649  66.490  1.00  0.00    -0.264 C  
ENDBRANCH  11  13
ENDBRANCH   6  11
ENDBRANCH   4   5
ENDBRANCH   3   4
ENDBRANCH   2   3
BRANCH   2  17
HETATM   17  C   UNL     1     -10.851   8.750  71.502  1.00  0.00    -0.304 C  
BRANCH  17  18
HETATM   18  C   UNL     1     -11.571   7.522  70.922  1.00  0.00    -0.286 C  
BRANCH  18  19
HETATM   19  O   UNL     1     -10.601   6.609  70.394  1.00  0.00    -0.208 OA 
BRANCH  19  20
HETATM   20  C   UNL     1     -10.108   6.914  69.151  1.00  0.00    -0.173 A  
HETATM   21  C   UNL     1      -8.832   7.420  68.888  1.00  0.00    -0.131 A  
HETATM   22  C   UNL     1     -10.984   6.685  68.087  1.00  0.00    -0.323 A  
HETATM   23  C   UNL     1      -9.342   7.522  66.528  1.00  0.00    -0.181 A  
HETATM   24  C   UNL     1     -10.603   6.983  66.774  1.00  0.00    -0.297 A  
HETATM   25  C   UNL     1      -8.451   7.722  67.579  1.00  0.00    -0.120 A  
BRANCH  23  26
HETATM   26  N   UNL     1      -8.930   7.849  65.205  1.00  0.00    -0.376 N  
HETATM   27  H   UNL     1      -8.619   7.127  64.555  1.00  0.00     0.000 HD 
BRANCH  26  28
HETATM   28  S   UNL     1      -8.975   9.474  64.748  1.00  0.00    -0.204 S  
HETATM   29  O   UNL     1      -9.083   9.585  63.312  1.00  0.00    -0.236 OA 
HETATM   30  C   UNL     1      -7.367  10.040  65.265  1.00  0.00    -0.137 C  
HETATM   31  O   UNL     1      -9.954  10.089  65.622  1.00  0.00    -0.272 OA 
ENDBRANCH  26  28
ENDBRANCH  23  26
ENDBRANCH  19  20
ENDBRANCH  18  19
ENDBRANCH  17  18
ENDBRANCH   2  17
TORSDOF 11
ENDMDL
MODEL      105
REMARK 921   NORMALIZED FREE ENERGY PREDICTED BY IDOCK:   -4.69 KCAL/MOL
REMARK 922        TOTAL FREE ENERGY PREDICTED BY IDOCK:   -9.27 KCAL/MOL
REMARK 923 INTER-LIGAND FREE ENERGY PREDICTED BY IDOCK:   -7.64 KCAL/MOL
REMARK 924 INTRA-LIGAND FREE ENERGY PREDICTED BY IDOCK:   -1.63 KCAL/MOL
REMARK 927      BINDING AFFINITY PREDICTED BY RF-SCORE:    0.00 PKD
ROOT
HETATM    1  C   UNL     1     -10.408  16.885  66.801  1.00  0.00    -0.298 C  
HETATM    2  N   UNL     1     -10.179  16.909  68.249  1.00  0.00    -0.299 NA 
ENDROOT
BRANCH   2   3
HETATM    3  C   UNL     1      -8.901  16.256  68.608  1.00  0.00    -0.226 C  
BRANCH   3   4
HETATM    4  C   UNL     1      -8.048  15.740  67.427  1.00  0.00    -0.193 C  
BRANCH   4   5
HETATM    5  C   UNL     1      -7.902  14.235  67.384  1.00  0.00    -0.207 A  
HETATM    6  C   UNL     1      -7.622  11.452  67.217  1.00  0.00    -0.138 A  
HETATM    7  C   UNL     1      -9.015  13.421  67.127  1.00  0.00    -0.227 A  
HETATM    8  C   UNL     1      -6.655  13.631  67.593  1.00  0.00    -0.176 A  
HETATM    9  C   UNL     1      -8.877  12.033  67.045  1.00  0.00    -0.197 A  
HETATM   10  C   UNL     1      -6.516  12.244  67.511  1.00  0.00    -0.137 A  
BRANCH   6  11
HETATM   11  N   UNL     1      -7.457  10.040  67.126  1.00  0.00    -0.091 N  
HETATM   12  H   UNL     1      -7.256   9.588  66.233  1.00  0.00     0.000 HD 
BRANCH  11  13
HETATM   13  S   UNL     1      -7.607   9.142  68.548  1.00  0.00    -0.086 S  
HETATM   14  O   UNL     1      -8.237   7.898  68.153  1.00  0.00    -0.121 OA 
HETATM   15  O   UNL     1      -8.163   9.958  69.603  1.00  0.00    -0.139 OA 
HETATM   16  C   UNL     1      -5.904   8.782  68.920  1.00  0.00    -0.040 C  
ENDBRANCH  11  13
ENDBRANCH   6  11
ENDBRANCH   4   5
ENDBRANCH   3   4
ENDBRANCH   2   3
BRANCH   2  17
HETATM   17  C   UNL     1     -11.336  16.282  68.930  1.00  0.00    -0.317 C  
BRANCH  17  18
HETATM   18  C   UNL     1     -10.964  15.293  70.046  1.00  0.00    -0.288 C  
BRANCH  18  19
HETATM   19  O   UNL     1     -12.161  14.789  70.651  1.00  0.00    -0.271 OA 
BRANCH  19  20
HETATM   20  C   UNL     1     -12.299  13.424  70.656  1.00  0.00    -0.348 A  
HETATM   21  C   UNL     1     -11.812  12.557  69.675  1.00  0.00    -0.382 A  
HETATM   22  C   UNL     1     -12.989  12.897  71.750  1.00  0.00    -0.416 A  
HETATM   23  C   UNL     1     -12.758  10.670  70.848  1.00  0.00    -0.404 A  
HETATM   24  C   UNL     1     -13.217  11.520  71.852  1.00  0.00    -0.479 A  
HETATM   25  C   UNL     1     -12.041  11.183  69.772  1.00  0.00    -0.414 A  
BRANCH  23  26
HETATM   26  N   UNL     1     -12.986   9.265  70.917  1.00  0.00    -0.532 N  
HETATM   27  H   UNL     1     -13.925   8.878  70.822  1.00  0.00     0.000 HD 
BRANCH  26  28
HETATM   28  S   UNL     1     -11.648   8.264  71.160  1.00  0.00    -0.279 S  
HETATM   29  O   UNL     1     -11.025   7.949  69.897  1.00  0.00    -0.243 OA 
HETATM   30  C   UNL     1     -12.410   6.797  71.825  1.00  0.00    -0.356 C  
HETATM   31  O   UNL     1     -10.896   8.886  72.233  1.00  0.00    -0.332 OA 
ENDBRANCH  26  28
ENDBRANCH  23  26
ENDBRANCH  19  20
ENDBRANCH  18  19
ENDBRANCH  17  18
ENDBRANCH   2  17
TORSDOF 11
ENDMDL
MODEL      106
REMARK 921   NORMALIZED FREE ENERGY PREDICTED BY IDOCK:   -4.69 KCAL/MOL
REMARK 922        TOTAL FREE ENERGY PREDICTED BY IDOCK:   -9.27 KCAL/MOL
REMARK 923 INTER-LIGAND FREE ENERGY PREDICTED BY IDOCK:   -8.80 KCAL/MOL
REMARK 924 INTRA-LIGAND FREE ENERGY PREDICTED BY IDOCK:   -0.47 KCAL/MOL
REMARK 927      BINDING AFFINITY PREDICTED BY RF-SCORE:    0.00 PKD
ROOT
HETATM    1  C   UNL     1     -11.873  13.399  69.887  1.00  0.00    -0.315 C  
HETATM    2  N   UNL     1     -12.000  12.450  68.777  1.00  0.00    -0.282 NA 
ENDROOT
BRANCH   2   3
HETATM    3  C   UNL     1     -12.191  11.067  69.265  1.00  0.00    -0.210 C  
BRANCH   3   4
HETATM    4  C   UNL     1     -12.342  10.901  70.794  1.00  0.00    -0.487 C  
BRANCH   4   5
HETATM    5  C   UNL     1     -11.650   9.678  71.353  1.00  0.00    -0.472 A  
HETATM    6  C   UNL     1     -10.339   7.461  72.458  1.00  0.00    -0.227 A  
HETATM    7  C   UNL     1     -10.294   9.444  71.083  1.00  0.00    -0.377 A  
HETATM    8  C   UNL     1     -12.348   8.765  72.155  1.00  0.00    -0.458 A  
HETATM    9  C   UNL     1      -9.640   8.338  71.632  1.00  0.00    -0.261 A  
HETATM   10  C   UNL     1     -11.695   7.660  72.704  1.00  0.00    -0.323 A  
BRANCH   6  11
HETATM   11  N   UNL     1      -9.689   6.334  73.037  1.00  0.00    -0.153 N  
HETATM   12  H   UNL     1      -9.115   6.428  73.875  1.00  0.00     0.000 HD 
BRANCH  11  13
HETATM   13  S   UNL     1      -9.903   4.836  72.285  1.00  0.00    -0.175 S  
HETATM   14  O   UNL     1      -8.658   4.123  72.489  1.00  0.00    -0.101 OA 
HETATM   15  O   UNL     1     -10.454   5.011  70.961  1.00  0.00    -0.213 OA 
HETATM   16  C   UNL     1     -11.127   4.085  73.337  1.00  0.00    -0.246 C  
ENDBRANCH  11  13
ENDBRANCH   6  11
ENDBRANCH   4   5
ENDBRANCH   3   4
ENDBRANCH   2   3
BRANCH   2  17
HETATM   17  C   UNL     1     -10.812  12.573  67.900  1.00  0.00    -0.222 C  
BRANCH  17  18
HETATM   18  C   UNL     1     -11.122  13.001  66.457  1.00  0.00    -0.288 C  
BRANCH  18  19
HETATM   19  O   UNL     1     -11.665  14.327  66.462  1.00  0.00    -0.363 OA 
BRANCH  19  20
HETATM   20  C   UNL     1     -10.765  15.342  66.664  1.00  0.00    -0.309 A  
HETATM   21  C   UNL     1      -9.615  15.567  65.903  1.00  0.00    -0.383 A  
HETATM   22  C   UNL     1     -11.058  16.199  67.727  1.00  0.00    -0.254 A  
HETATM   23  C   UNL     1      -9.036  17.448  67.304  1.00  0.00    -0.236 A  
HETATM   24  C   UNL     1     -10.198  17.256  68.047  1.00  0.00    -0.332 A  
HETATM   25  C   UNL     1      -8.754  16.618  66.222  1.00  0.00    -0.359 A  
BRANCH  23  26
HETATM   26  N   UNL     1      -8.134  18.506  67.614  1.00  0.00    -0.248 N  
HETATM   27  H   UNL     1      -7.508  18.448  68.417  1.00  0.00     0.000 HD 
BRANCH  26  28
HETATM   28  S   UNL     1      -8.138  19.861  66.605  1.00  0.00    -0.327 S  
HETATM   29  O   UNL     1      -7.731  21.033  67.344  1.00  0.00    -0.312 OA 
HETATM   30  C   UNL     1      -9.864  19.996  66.188  1.00  0.00    -0.443 C  
HETATM   31  O   UNL     1      -7.432  19.447  65.408  1.00  0.00    -0.426 OA 
ENDBRANCH  26  28
ENDBRANCH  23  26
ENDBRANCH  19  20
ENDBRANCH  18  19
ENDBRANCH  17  18
ENDBRANCH   2  17
TORSDOF 11
ENDMDL
MODEL      107
REMARK 921   NORMALIZED FREE ENERGY PREDICTED BY IDOCK:   -4.68 KCAL/MOL
REMARK 922        TOTAL FREE ENERGY PREDICTED BY IDOCK:   -9.25 KCAL/MOL
REMARK 923 INTER-LIGAND FREE ENERGY PREDICTED BY IDOCK:   -8.46 KCAL/MOL
REMARK 924 INTRA-LIGAND FREE ENERGY PREDICTED BY IDOCK:   -0.79 KCAL/MOL
REMARK 927      BINDING AFFINITY PREDICTED BY RF-SCORE:    0.00 PKD
ROOT
HETATM    1  C   UNL     1      -8.840  11.708  66.686  1.00  0.00    -0.187 C  
HETATM    2  N   UNL     1      -9.948  11.474  65.754  1.00  0.00    -0.224 NA 
ENDROOT
BRANCH   2   3
HETATM    3  C   UNL     1     -11.258  11.683  66.406  1.00  0.00    -0.287 C  
BRANCH   3   4
HETATM    4  C   UNL     1     -12.119  12.839  65.847  1.00  0.00    -0.485 C  
BRANCH   4   5
HETATM    5  C   UNL     1     -11.609  14.216  66.206  1.00  0.00    -0.379 A  
HETATM    6  C   UNL     1     -10.583  16.734  66.887  1.00  0.00    -0.219 A  
HETATM    7  C   UNL     1     -11.594  14.643  67.543  1.00  0.00    -0.396 A  
HETATM    8  C   UNL     1     -11.136  15.085  65.213  1.00  0.00    -0.391 A  
HETATM    9  C   UNL     1     -11.084  15.898  67.883  1.00  0.00    -0.317 A  
HETATM   10  C   UNL     1     -10.626  16.340  65.553  1.00  0.00    -0.369 A  
BRANCH   6  11
HETATM   11  N   UNL     1     -10.048  18.012  67.214  1.00  0.00    -0.326 N  
HETATM   12  H   UNL     1     -10.656  18.790  67.472  1.00  0.00     0.000 HD 
BRANCH  11  13
HETATM   13  S   UNL     1      -8.369  18.196  67.158  1.00  0.00    -0.243 S  
HETATM   14  O   UNL     1      -8.098  18.875  65.906  1.00  0.00    -0.468 OA 
HETATM   15  O   UNL     1      -7.715  16.950  67.487  1.00  0.00    -0.162 OA 
HETATM   16  C   UNL     1      -8.098  19.367  68.470  1.00  0.00    -0.361 C  
ENDBRANCH  11  13
ENDBRANCH   6  11
ENDBRANCH   4   5
ENDBRANCH   3   4
ENDBRANCH   2   3
BRANCH   2  17
HETATM   17  C   UNL     1      -9.819  10.113  65.183  1.00  0.00    -0.325 C  
BRANCH  17  18
HETATM   18  C   UNL     1      -9.190   9.078  66.129  1.00  0.00    -0.216 C  
BRANCH  18  19
HETATM   19  O   UNL     1     -10.117   8.007  66.345  1.00  0.00    -0.227 OA 
BRANCH  19  20
HETATM   20  C   UNL     1     -10.475   7.779  67.649  1.00  0.00    -0.239 A  
HETATM   21  C   UNL     1     -10.430   8.724  68.678  1.00  0.00    -0.213 A  
HETATM   22  C   UNL     1     -10.915   6.484  67.931  1.00  0.00    -0.382 A  
HETATM   23  C   UNL     1     -11.198   7.064  70.257  1.00  0.00    -0.298 A  
HETATM   24  C   UNL     1     -11.282   6.124  69.232  1.00  0.00    -0.438 A  
HETATM   25  C   UNL     1     -10.792   8.366  69.978  1.00  0.00    -0.225 A  
BRANCH  23  26
HETATM   26  N   UNL     1     -11.552   6.725  71.594  1.00  0.00    -0.278 N  
HETATM   27  H   UNL     1     -12.490   6.902  71.953  1.00  0.00     0.000 HD 
BRANCH  26  28
HETATM   28  S   UNL     1     -10.363   6.019  72.565  1.00  0.00    -0.202 S  
HETATM   29  O   UNL     1     -10.965   5.418  73.732  1.00  0.00    -0.283 OA 
HETATM   30  C   UNL     1      -9.408   7.440  73.058  1.00  0.00    -0.178 C  
HETATM   31  O   UNL     1      -9.544   5.239  71.658  1.00  0.00    -0.146 OA 
ENDBRANCH  26  28
ENDBRANCH  23  26
ENDBRANCH  19  20
ENDBRANCH  18  19
ENDBRANCH  17  18
ENDBRANCH   2  17
TORSDOF 11
ENDMDL
MODEL      108
REMARK 921   NORMALIZED FREE ENERGY PREDICTED BY IDOCK:   -4.68 KCAL/MOL
REMARK 922        TOTAL FREE ENERGY PREDICTED BY IDOCK:   -9.25 KCAL/MOL
REMARK 923 INTER-LIGAND FREE ENERGY PREDICTED BY IDOCK:   -8.35 KCAL/MOL
REMARK 924 INTRA-LIGAND FREE ENERGY PREDICTED BY IDOCK:   -0.90 KCAL/MOL
REMARK 927      BINDING AFFINITY PREDICTED BY RF-SCORE:    0.00 PKD
ROOT
HETATM    1  C   UNL     1      -7.323  10.350  65.482  1.00  0.00    -0.139 C  
HETATM    2  N   UNL     1      -8.482   9.733  64.830  1.00  0.00    -0.152 NA 
ENDROOT
BRANCH   2   3
HETATM    3  C   UNL     1      -8.374   8.258  64.816  1.00  0.00    -0.119 C  
BRANCH   3   4
HETATM    4  C   UNL     1      -7.719   7.613  66.059  1.00  0.00    -0.090 C  
BRANCH   4   5
HETATM    5  C   UNL     1      -8.702   7.211  67.135  1.00  0.00    -0.121 A  
HETATM    6  C   UNL     1     -10.532   6.551  69.152  1.00  0.00    -0.221 A  
HETATM    7  C   UNL     1      -8.267   7.003  68.452  1.00  0.00    -0.124 A  
HETATM    8  C   UNL     1     -10.061   7.046  66.837  1.00  0.00    -0.296 A  
HETATM    9  C   UNL     1      -9.179   6.673  69.458  1.00  0.00    -0.143 A  
HETATM   10  C   UNL     1     -10.973   6.717  67.842  1.00  0.00    -0.342 A  
BRANCH   6  11
HETATM   11  N   UNL     1     -11.480   6.227  70.165  1.00  0.00    -0.412 N  
HETATM   12  H   UNL     1     -11.815   5.271  70.288  1.00  0.00     0.000 HD 
BRANCH  11  13
HETATM   13  S   UNL     1     -12.028   7.482  71.154  1.00  0.00    -0.298 S  
HETATM   14  O   UNL     1     -13.421   7.182  71.418  1.00  0.00    -0.380 OA 
HETATM   15  O   UNL     1     -11.630   8.761  70.612  1.00  0.00    -0.270 OA 
HETATM   16  C   UNL     1     -11.121   7.172  72.653  1.00  0.00    -0.292 C  
ENDBRANCH  11  13
ENDBRANCH   6  11
ENDBRANCH   4   5
ENDBRANCH   3   4
ENDBRANCH   2   3
BRANCH   2  17
HETATM   17  C   UNL     1      -8.623  10.294  63.466  1.00  0.00    -0.195 C  
BRANCH  17  18
HETATM   18  C   UNL     1      -9.989  10.934  63.174  1.00  0.00    -0.321 C  
BRANCH  18  19
HETATM   19  O   UNL     1      -9.915  12.344  63.416  1.00  0.00    -0.398 OA 
BRANCH  19  20
HETATM   20  C   UNL     1     -10.549  12.791  64.547  1.00  0.00    -0.360 A  
HETATM   21  C   UNL     1     -11.180  11.982  65.495  1.00  0.00    -0.372 A  
HETATM   22  C   UNL     1     -10.542  14.176  64.729  1.00  0.00    -0.439 A  
HETATM   23  C   UNL     1     -11.839  13.937  66.751  1.00  0.00    -0.424 A  
HETATM   24  C   UNL     1     -11.182  14.753  65.832  1.00  0.00    -0.340 A  
HETATM   25  C   UNL     1     -11.822  12.555  66.595  1.00  0.00    -0.422 A  
BRANCH  23  26
HETATM   26  N   UNL     1     -12.510  14.495  67.877  1.00  0.00    -0.510 N  
HETATM   27  H   UNL     1     -13.434  14.917  67.784  1.00  0.00     0.000 HD 
BRANCH  26  28
HETATM   28  S   UNL     1     -11.723  14.434  69.370  1.00  0.00    -0.337 S  
HETATM   29  O   UNL     1     -12.685  14.270  70.434  1.00  0.00    -0.347 OA 
HETATM   30  C   UNL     1     -11.007  16.062  69.468  1.00  0.00    -0.326 C  
HETATM   31  O   UNL     1     -10.637  13.491  69.190  1.00  0.00    -0.157 OA 
ENDBRANCH  26  28
ENDBRANCH  23  26
ENDBRANCH  19  20
ENDBRANCH  18  19
ENDBRANCH  17  18
ENDBRANCH   2  17
TORSDOF 11
ENDMDL
MODEL      109
REMARK 921   NORMALIZED FREE ENERGY PREDICTED BY IDOCK:   -4.66 KCAL/MOL
REMARK 922        TOTAL FREE ENERGY PREDICTED BY IDOCK:   -9.22 KCAL/MOL
REMARK 923 INTER-LIGAND FREE ENERGY PREDICTED BY IDOCK:   -8.38 KCAL/MOL
REMARK 924 INTRA-LIGAND FREE ENERGY PREDICTED BY IDOCK:   -0.84 KCAL/MOL
REMARK 927      BINDING AFFINITY PREDICTED BY RF-SCORE:    0.00 PKD
ROOT
HETATM    1  C   UNL     1     -12.588  13.078  64.985  1.00  0.00    -0.454 C  
HETATM    2  N   UNL     1     -11.977  12.049  65.832  1.00  0.00    -0.519 NA 
ENDROOT
BRANCH   2   3
HETATM    3  C   UNL     1     -11.370  12.636  67.046  1.00  0.00    -0.323 C  
BRANCH   3   4
HETATM    4  C   UNL     1     -11.987  13.965  67.539  1.00  0.00    -0.421 C  
BRANCH   4   5
HETATM    5  C   UNL     1     -10.989  15.092  67.684  1.00  0.00    -0.305 A  
HETATM    6  C   UNL     1      -9.177  17.220  67.882  1.00  0.00    -0.247 A  
HETATM    7  C   UNL     1      -9.798  15.084  66.944  1.00  0.00    -0.244 A  
HETATM    8  C   UNL     1     -11.241  16.162  68.553  1.00  0.00    -0.365 A  
HETATM    9  C   UNL     1      -8.893  16.144  67.043  1.00  0.00    -0.231 A  
HETATM   10  C   UNL     1     -10.337  17.222  68.651  1.00  0.00    -0.357 A  
BRANCH   6  11
HETATM   11  N   UNL     1      -8.274  18.315  67.989  1.00  0.00    -0.258 N  
HETATM   12  H   UNL     1      -7.651  18.411  68.791  1.00  0.00     0.000 HD 
BRANCH  11  13
HETATM   13  S   UNL     1      -8.271  19.451  66.738  1.00  0.00    -0.308 S  
HETATM   14  O   UNL     1      -7.967  20.719  67.371  1.00  0.00    -0.327 OA 
HETATM   15  O   UNL     1      -9.445  19.293  65.911  1.00  0.00    -0.429 OA 
HETATM   16  C   UNL     1      -6.831  18.957  65.816  1.00  0.00    -0.272 C  
ENDBRANCH  11  13
ENDBRANCH   6  11
ENDBRANCH   4   5
ENDBRANCH   3   4
ENDBRANCH   2   3
BRANCH   2  17
HETATM   17  C   UNL     1     -10.992  11.286  65.030  1.00  0.00    -0.156 C  
BRANCH  17  18
HETATM   18  C   UNL     1      -9.860  10.644  65.847  1.00  0.00    -0.243 C  
BRANCH  18  19
HETATM   19  O   UNL     1     -10.001   9.218  65.815  1.00  0.00    -0.299 OA 
BRANCH  19  20
HETATM   20  C   UNL     1     -10.251   8.615  67.020  1.00  0.00    -0.290 A  
HETATM   21  C   UNL     1     -10.607   7.275  67.197  1.00  0.00    -0.416 A  
HETATM   22  C   UNL     1     -10.129   9.442  68.140  1.00  0.00    -0.215 A  
HETATM   23  C   UNL     1     -10.776   7.618  69.583  1.00  0.00    -0.228 A  
HETATM   24  C   UNL     1     -10.386   8.946  69.423  1.00  0.00    -0.217 A  
HETATM   25  C   UNL     1     -10.867   6.779  68.476  1.00  0.00    -0.280 A  
BRANCH  23  26
HETATM   26  N   UNL     1     -11.057   7.087  70.874  1.00  0.00    -0.256 N  
HETATM   27  H   UNL     1     -12.008   7.077  71.245  1.00  0.00     0.000 HD 
BRANCH  26  28
HETATM   28  S   UNL     1      -9.764   6.475  71.771  1.00  0.00    -0.157 S  
HETATM   29  O   UNL     1     -10.143   5.238  72.412  1.00  0.00    -0.171 OA 
HETATM   30  C   UNL     1      -9.550   7.740  73.007  1.00  0.00    -0.259 C  
HETATM   31  O   UNL     1      -8.620   6.539  70.882  1.00  0.00    -0.133 OA 
ENDBRANCH  26  28
ENDBRANCH  23  26
ENDBRANCH  19  20
ENDBRANCH  18  19
ENDBRANCH  17  18
ENDBRANCH   2  17
TORSDOF 11
ENDMDL
MODEL      110
REMARK 921   NORMALIZED FREE ENERGY PREDICTED BY IDOCK:   -4.66 KCAL/MOL
REMARK 922        TOTAL FREE ENERGY PREDICTED BY IDOCK:   -9.22 KCAL/MOL
REMARK 923 INTER-LIGAND FREE ENERGY PREDICTED BY IDOCK:   -7.62 KCAL/MOL
REMARK 924 INTRA-LIGAND FREE ENERGY PREDICTED BY IDOCK:   -1.60 KCAL/MOL
REMARK 927      BINDING AFFINITY PREDICTED BY RF-SCORE:    0.00 PKD
ROOT
HETATM    1  C   UNL     1      -6.038   5.269  65.157  1.00  0.00    -0.026 C  
HETATM    2  N   UNL     1      -7.073   5.797  66.051  1.00  0.00    -0.069 NA 
ENDROOT
BRANCH   2   3
HETATM    3  C   UNL     1      -7.752   4.714  66.794  1.00  0.00    -0.095 C  
BRANCH   3   4
HETATM    4  C   UNL     1      -7.797   4.869  68.331  1.00  0.00    -0.082 C  
BRANCH   4   5
HETATM    5  C   UNL     1      -8.878   5.803  68.825  1.00  0.00    -0.110 A  
HETATM    6  C   UNL     1     -10.888   7.486  69.815  1.00  0.00    -0.225 A  
HETATM    7  C   UNL     1     -10.231   5.494  68.622  1.00  0.00    -0.261 A  
HETATM    8  C   UNL     1      -8.548   6.987  69.499  1.00  0.00    -0.134 A  
HETATM    9  C   UNL     1     -11.234   6.333  69.114  1.00  0.00    -0.439 A  
HETATM   10  C   UNL     1      -9.550   7.826  69.991  1.00  0.00    -0.161 A  
BRANCH   6  11
HETATM   11  N   UNL     1     -11.894   8.349  70.335  1.00  0.00    -0.476 N  
HETATM   12  H   UNL     1     -12.170   9.198  69.840  1.00  0.00     0.000 HD 
BRANCH  11  13
HETATM   13  S   UNL     1     -12.615   7.917  71.801  1.00  0.00    -0.331 S  
HETATM   14  O   UNL     1     -11.517   7.733  72.729  1.00  0.00    -0.374 OA 
HETATM   15  O   UNL     1     -13.598   6.878  71.592  1.00  0.00    -0.317 OA 
HETATM   16  C   UNL     1     -13.443   9.428  72.247  1.00  0.00    -0.465 C  
ENDBRANCH  11  13
ENDBRANCH   6  11
ENDBRANCH   4   5
ENDBRANCH   3   4
ENDBRANCH   2   3
BRANCH   2  17
HETATM   17  C   UNL     1      -8.024   6.611  65.258  1.00  0.00    -0.123 C  
BRANCH  17  18
HETATM   18  C   UNL     1      -8.218   8.048  65.768  1.00  0.00    -0.132 C  
BRANCH  18  19
HETATM   19  O   UNL     1      -9.542   8.189  66.300  1.00  0.00    -0.217 OA 
BRANCH  19  20
HETATM   20  C   UNL     1     -10.085   9.445  66.226  1.00  0.00    -0.258 A  
HETATM   21  C   UNL     1     -10.701  10.125  67.280  1.00  0.00    -0.316 A  
HETATM   22  C   UNL     1      -9.995  10.064  64.976  1.00  0.00    -0.320 A  
HETATM   23  C   UNL     1     -11.182  11.988  65.820  1.00  0.00    -0.334 A  
HETATM   24  C   UNL     1     -10.538  11.336  64.770  1.00  0.00    -0.376 A  
HETATM   25  C   UNL     1     -11.247  11.394  67.076  1.00  0.00    -0.350 A  
BRANCH  23  26
HETATM   26  N   UNL     1     -11.757  13.279  65.638  1.00  0.00    -0.340 N  
HETATM   27  H   UNL     1     -12.706  13.388  65.281  1.00  0.00     0.000 HD 
BRANCH  26  28
HETATM   28  S   UNL     1     -10.812  14.622  66.035  1.00  0.00    -0.327 S  
HETATM   29  O   UNL     1      -9.438  14.224  66.229  1.00  0.00    -0.284 OA 
HETATM   30  C   UNL     1     -11.513  15.107  67.599  1.00  0.00    -0.309 C  
HETATM   31  O   UNL     1     -11.169  15.638  65.065  1.00  0.00    -0.368 OA 
ENDBRANCH  26  28
ENDBRANCH  23  26
ENDBRANCH  19  20
ENDBRANCH  18  19
ENDBRANCH  17  18
ENDBRANCH   2  17
TORSDOF 11
ENDMDL
MODEL      111
REMARK 921   NORMALIZED FREE ENERGY PREDICTED BY IDOCK:   -4.65 KCAL/MOL
REMARK 922        TOTAL FREE ENERGY PREDICTED BY IDOCK:   -9.20 KCAL/MOL
REMARK 923 INTER-LIGAND FREE ENERGY PREDICTED BY IDOCK:   -8.18 KCAL/MOL
REMARK 924 INTRA-LIGAND FREE ENERGY PREDICTED BY IDOCK:   -1.02 KCAL/MOL
REMARK 927      BINDING AFFINITY PREDICTED BY RF-SCORE:    0.00 PKD
ROOT
HETATM    1  C   UNL     1      -7.471   3.659  67.039  1.00  0.00    -0.075 C  
HETATM    2  N   UNL     1      -8.436   4.492  67.763  1.00  0.00    -0.102 NA 
ENDROOT
BRANCH   2   3
HETATM    3  C   UNL     1      -9.071   3.747  68.873  1.00  0.00    -0.142 C  
BRANCH   3   4
HETATM    4  C   UNL     1      -8.670   4.184  70.300  1.00  0.00    -0.117 C  
BRANCH   4   5
HETATM    5  C   UNL     1      -9.588   5.222  70.907  1.00  0.00    -0.233 A  
HETATM    6  C   UNL     1     -11.230   7.155  72.099  1.00  0.00    -0.255 A  
HETATM    7  C   UNL     1     -10.515   4.859  71.896  1.00  0.00    -0.233 A  
HETATM    8  C   UNL     1      -9.523   6.561  70.499  1.00  0.00    -0.173 A  
HETATM    9  C   UNL     1     -11.335   5.822  72.489  1.00  0.00    -0.358 A  
HETATM   10  C   UNL     1     -10.342   7.523  71.093  1.00  0.00    -0.208 A  
BRANCH   6  11
HETATM   11  N   UNL     1     -12.049   8.154  72.699  1.00  0.00    -0.581 N  
HETATM   12  H   UNL     1     -11.751   8.644  73.542  1.00  0.00     0.000 HD 
BRANCH  11  13
HETATM   13  S   UNL     1     -13.531   8.496  71.963  1.00  0.00    -0.379 S  
HETATM   14  O   UNL     1     -14.319   9.162  72.980  1.00  0.00    -0.439 OA 
HETATM   15  O   UNL     1     -14.033   7.330  71.275  1.00  0.00    -0.369 OA 
HETATM   16  C   UNL     1     -13.055   9.725  70.767  1.00  0.00    -0.135 C  
ENDBRANCH  11  13
ENDBRANCH   6  11
ENDBRANCH   4   5
ENDBRANCH   3   4
ENDBRANCH   2   3
BRANCH   2  17
HETATM   17  C   UNL     1      -9.434   5.018  66.803  1.00  0.00    -0.144 C  
BRANCH  17  18
HETATM   18  C   UNL     1      -9.159   6.448  66.312  1.00  0.00    -0.151 C  
BRANCH  18  19
HETATM   19  O   UNL     1      -9.541   7.382  67.330  1.00  0.00    -0.138 OA 
BRANCH  19  20
HETATM   20  C   UNL     1      -9.814   8.656  66.901  1.00  0.00    -0.238 A  
HETATM   21  C   UNL     1      -9.469   9.181  65.653  1.00  0.00    -0.309 A  
HETATM   22  C   UNL     1     -10.494   9.462  67.816  1.00  0.00    -0.310 A  
HETATM   23  C   UNL     1     -10.423  11.314  66.269  1.00  0.00    -0.258 A  
HETATM   24  C   UNL     1     -10.805  10.790  67.502  1.00  0.00    -0.342 A  
HETATM   25  C   UNL     1      -9.775  10.507  65.338  1.00  0.00    -0.315 A  
BRANCH  23  26
HETATM   26  N   UNL     1     -10.712  12.665  65.925  1.00  0.00    -0.262 N  
HETATM   27  H   UNL     1     -10.306  13.441  66.448  1.00  0.00     0.000 HD 
BRANCH  26  28
HETATM   28  S   UNL     1     -11.751  12.939  64.622  1.00  0.00    -0.384 S  
HETATM   29  O   UNL     1     -11.060  12.704  63.376  1.00  0.00    -0.450 OA 
HETATM   30  C   UNL     1     -12.091  14.680  64.790  1.00  0.00    -0.421 C  
HETATM   31  O   UNL     1     -12.970  12.225  64.949  1.00  0.00    -0.662 OA 
ENDBRANCH  26  28
ENDBRANCH  23  26
ENDBRANCH  19  20
ENDBRANCH  18  19
ENDBRANCH  17  18
ENDBRANCH   2  17
TORSDOF 11
ENDMDL
MODEL      112
REMARK 921   NORMALIZED FREE ENERGY PREDICTED BY IDOCK:   -4.64 KCAL/MOL
REMARK 922        TOTAL FREE ENERGY PREDICTED BY IDOCK:   -9.19 KCAL/MOL
REMARK 923 INTER-LIGAND FREE ENERGY PREDICTED BY IDOCK:   -7.65 KCAL/MOL
REMARK 924 INTRA-LIGAND FREE ENERGY PREDICTED BY IDOCK:   -1.54 KCAL/MOL
REMARK 927      BINDING AFFINITY PREDICTED BY RF-SCORE:    0.00 PKD
ROOT
HETATM    1  C   UNL     1     -12.129   8.475  72.450  1.00  0.00    -0.367 C  
HETATM    2  N   UNL     1     -11.233   9.247  71.582  1.00  0.00    -0.370 NA 
ENDROOT
BRANCH   2   3
HETATM    3  C   UNL     1     -11.887  10.476  71.083  1.00  0.00    -0.295 C  
BRANCH   3   4
HETATM    4  C   UNL     1     -12.250  10.490  69.581  1.00  0.00    -0.208 C  
BRANCH   4   5
HETATM    5  C   UNL     1     -11.970  11.806  68.891  1.00  0.00    -0.332 A  
HETATM    6  C   UNL     1     -11.539  14.261  67.610  1.00  0.00    -0.368 A  
HETATM    7  C   UNL     1     -11.995  11.894  67.491  1.00  0.00    -0.102 A  
HETATM    8  C   UNL     1     -11.689  12.959  69.637  1.00  0.00    -0.367 A  
HETATM    9  C   UNL     1     -11.779  13.117  66.852  1.00  0.00    -0.441 A  
HETATM   10  C   UNL     1     -11.473  14.181  68.998  1.00  0.00    -0.322 A  
BRANCH   6  11
HETATM   11  N   UNL     1     -11.327  15.520  66.979  1.00  0.00    -0.183 N  
HETATM   12  H   UNL     1     -11.920  16.323  67.189  1.00  0.00     0.000 HD 
BRANCH  11  13
HETATM   13  S   UNL     1     -10.059  15.634  65.869  1.00  0.00    -0.382 S  
HETATM   14  O   UNL     1      -9.950  17.045  65.554  1.00  0.00    -0.567 OA 
HETATM   15  O   UNL     1     -10.211  14.647  64.825  1.00  0.00    -0.367 OA 
HETATM   16  C   UNL     1      -8.662  15.205  66.884  1.00  0.00    -0.259 C  
ENDBRANCH  11  13
ENDBRANCH   6  11
ENDBRANCH   4   5
ENDBRANCH   3   4
ENDBRANCH   2   3
BRANCH   2  17
HETATM   17  C   UNL     1     -10.764   8.377  70.478  1.00  0.00    -0.227 C  
BRANCH  17  18
HETATM   18  C   UNL     1      -9.238   8.331  70.301  1.00  0.00    -0.155 C  
BRANCH  18  19
HETATM   19  O   UNL     1      -8.742   9.662  70.115  1.00  0.00    -0.211 OA 
BRANCH  19  20
HETATM   20  C   UNL     1      -8.438  10.012  68.825  1.00  0.00    -0.126 A  
HETATM   21  C   UNL     1      -8.373  11.319  68.334  1.00  0.00    -0.152 A  
HETATM   22  C   UNL     1      -8.179   8.946  67.961  1.00  0.00    -0.110 A  
HETATM   23  C   UNL     1      -7.857  10.482  66.127  1.00  0.00    -0.145 A  
HETATM   24  C   UNL     1      -7.883   9.177  66.613  1.00  0.00    -0.100 A  
HETATM   25  C   UNL     1      -8.082  11.552  66.988  1.00  0.00    -0.161 A  
BRANCH  23  26
HETATM   26  N   UNL     1      -7.573  10.749  64.757  1.00  0.00    -0.351 N  
HETATM   27  H   UNL     1      -6.711  11.217  64.478  1.00  0.00     0.000 HD 
BRANCH  26  28
HETATM   28  S   UNL     1      -8.714  10.263  63.610  1.00  0.00    -0.223 S  
HETATM   29  O   UNL     1      -8.579  11.052  62.408  1.00  0.00    -0.275 OA 
HETATM   30  C   UNL     1     -10.244  10.682  64.422  1.00  0.00    -0.330 C  
HETATM   31  O   UNL     1      -8.624   8.817  63.572  1.00  0.00    -0.155 OA 
ENDBRANCH  26  28
ENDBRANCH  23  26
ENDBRANCH  19  20
ENDBRANCH  18  19
ENDBRANCH  17  18
ENDBRANCH   2  17
TORSDOF 11
ENDMDL
MODEL      113
REMARK 921   NORMALIZED FREE ENERGY PREDICTED BY IDOCK:   -4.61 KCAL/MOL
REMARK 922        TOTAL FREE ENERGY PREDICTED BY IDOCK:   -9.13 KCAL/MOL
REMARK 923 INTER-LIGAND FREE ENERGY PREDICTED BY IDOCK:   -7.94 KCAL/MOL
REMARK 924 INTRA-LIGAND FREE ENERGY PREDICTED BY IDOCK:   -1.19 KCAL/MOL
REMARK 927      BINDING AFFINITY PREDICTED BY RF-SCORE:    0.00 PKD
ROOT
HETATM    1  C   UNL     1      -9.573  20.263  66.334  1.00  0.00    -0.334 C  
HETATM    2  N   UNL     1      -9.370  19.076  67.171  1.00  0.00    -0.301 NA 
ENDROOT
BRANCH   2   3
HETATM    3  C   UNL     1     -10.537  18.822  68.045  1.00  0.00    -0.296 C  
BRANCH   3   4
HETATM    4  C   UNL     1     -10.488  17.525  68.883  1.00  0.00    -0.286 C  
BRANCH   4   5
HETATM    5  C   UNL     1     -10.833  16.275  68.104  1.00  0.00    -0.342 A  
HETATM    6  C   UNL     1     -11.398  13.920  66.694  1.00  0.00    -0.331 A  
HETATM    7  C   UNL     1     -10.268  16.047  66.840  1.00  0.00    -0.280 A  
HETATM    8  C   UNL     1     -11.714  15.322  68.634  1.00  0.00    -0.367 A  
HETATM    9  C   UNL     1     -10.551  14.874  66.136  1.00  0.00    -0.322 A  
HETATM   10  C   UNL     1     -11.996  14.149  67.930  1.00  0.00    -0.378 A  
BRANCH   6  11
HETATM   11  N   UNL     1     -11.691  12.712  65.999  1.00  0.00    -0.396 N  
HETATM   12  H   UNL     1     -11.578  11.803  66.447  1.00  0.00     0.000 HD 
BRANCH  11  13
HETATM   13  S   UNL     1     -12.231  12.840  64.403  1.00  0.00    -0.437 S  
HETATM   14  O   UNL     1     -12.456  14.255  64.185  1.00  0.00    -0.675 OA 
HETATM   15  O   UNL     1     -13.271  11.871  64.144  1.00  0.00    -0.645 OA 
HETATM   16  C   UNL     1     -10.767  12.387  63.497  1.00  0.00    -0.430 C  
ENDBRANCH  11  13
ENDBRANCH   6  11
ENDBRANCH   4   5
ENDBRANCH   3   4
ENDBRANCH   2   3
BRANCH   2  17
HETATM   17  C   UNL     1      -8.119  19.242  67.947  1.00  0.00    -0.290 C  
BRANCH  17  18
HETATM   18  C   UNL     1      -6.963  18.332  67.500  1.00  0.00    -0.199 C  
BRANCH  18  19
HETATM   19  O   UNL     1      -6.386  17.699  68.649  1.00  0.00    -0.178 OA 
BRANCH  19  20
HETATM   20  C   UNL     1      -6.521  16.336  68.712  1.00  0.00    -0.128 A  
HETATM   21  C   UNL     1      -5.666  15.409  68.112  1.00  0.00    -0.138 A  
HETATM   22  C   UNL     1      -7.618  15.877  69.447  1.00  0.00    -0.210 A  
HETATM   23  C   UNL     1      -7.036  13.593  68.927  1.00  0.00    -0.110 A  
HETATM   24  C   UNL     1      -7.875  14.507  69.560  1.00  0.00     0.107 A  
HETATM   25  C   UNL     1      -5.923  14.041  68.221  1.00  0.00    -0.118 A  
BRANCH  23  26
HETATM   26  N   UNL     1      -7.280  12.193  69.012  1.00  0.00    -0.253 N  
HETATM   27  H   UNL     1      -6.885  11.633  69.768  1.00  0.00     0.000 HD 
BRANCH  26  28
HETATM   28  S   UNL     1      -8.245  11.490  67.818  1.00  0.00    -0.142 S  
HETATM   29  O   UNL     1      -8.475  12.429  66.746  1.00  0.00    -0.174 OA 
HETATM   30  C   UNL     1      -9.769  11.217  68.699  1.00  0.00    -0.195 C  
HETATM   31  O   UNL     1      -7.653  10.192  67.563  1.00  0.00    -0.090 OA 
ENDBRANCH  26  28
ENDBRANCH  23  26
ENDBRANCH  19  20
ENDBRANCH  18  19
ENDBRANCH  17  18
ENDBRANCH   2  17
TORSDOF 11
ENDMDL
MODEL      114
REMARK 921   NORMALIZED FREE ENERGY PREDICTED BY IDOCK:   -4.60 KCAL/MOL
REMARK 922        TOTAL FREE ENERGY PREDICTED BY IDOCK:   -9.12 KCAL/MOL
REMARK 923 INTER-LIGAND FREE ENERGY PREDICTED BY IDOCK:   -8.25 KCAL/MOL
REMARK 924 INTRA-LIGAND FREE ENERGY PREDICTED BY IDOCK:   -0.88 KCAL/MOL
REMARK 927      BINDING AFFINITY PREDICTED BY RF-SCORE:    0.00 PKD
ROOT
HETATM    1  C   UNL     1     -14.154   9.057  72.396  1.00  0.00    -0.404 C  
HETATM    2  N   UNL     1     -13.070   8.493  71.584  1.00  0.00    -0.338 NA 
ENDROOT
BRANCH   2   3
HETATM    3  C   UNL     1     -13.109   7.015  71.579  1.00  0.00    -0.339 C  
BRANCH   3   4
HETATM    4  C   UNL     1     -11.773   6.299  71.884  1.00  0.00    -0.370 C  
BRANCH   4   5
HETATM    5  C   UNL     1     -10.907   6.067  70.666  1.00  0.00    -0.364 A  
HETATM    6  C   UNL     1      -9.322   5.551  68.413  1.00  0.00    -0.111 A  
HETATM    7  C   UNL     1      -9.571   5.664  70.811  1.00  0.00    -0.213 A  
HETATM    8  C   UNL     1     -11.425   6.244  69.376  1.00  0.00    -0.348 A  
HETATM    9  C   UNL     1      -8.780   5.408  69.688  1.00  0.00    -0.109 A  
HETATM   10  C   UNL     1     -10.634   5.987  68.253  1.00  0.00    -0.325 A  
BRANCH   6  11
HETATM   11  N   UNL     1      -8.537   5.284  67.256  1.00  0.00    -0.106 N  
HETATM   12  H   UNL     1      -8.338   4.328  66.961  1.00  0.00     0.000 HD 
BRANCH  11  13
HETATM   13  S   UNL     1      -7.946   6.608  66.389  1.00  0.00    -0.110 S  
HETATM   14  O   UNL     1      -8.451   7.777  67.080  1.00  0.00    -0.122 OA 
HETATM   15  O   UNL     1      -8.171   6.424  64.973  1.00  0.00    -0.140 OA 
HETATM   16  C   UNL     1      -6.202   6.501  66.725  1.00  0.00    -0.040 C  
ENDBRANCH  11  13
ENDBRANCH   6  11
ENDBRANCH   4   5
ENDBRANCH   3   4
ENDBRANCH   2   3
BRANCH   2  17
HETATM   17  C   UNL     1     -11.775   9.015  72.079  1.00  0.00    -0.347 C  
BRANCH  17  18
HETATM   18  C   UNL     1     -10.990   9.855  71.059  1.00  0.00    -0.290 C  
BRANCH  18  19
HETATM   19  O   UNL     1     -11.306   9.409  69.734  1.00  0.00    -0.171 OA 
BRANCH  19  20
HETATM   20  C   UNL     1     -11.203  10.354  68.745  1.00  0.00    -0.241 A  
HETATM   21  C   UNL     1     -10.476  10.209  67.560  1.00  0.00    -0.304 A  
HETATM   22  C   UNL     1     -11.896  11.544  68.979  1.00  0.00    -0.408 A  
HETATM   23  C   UNL     1     -11.086  12.450  66.894  1.00  0.00    -0.287 A  
HETATM   24  C   UNL     1     -11.844  12.592  68.054  1.00  0.00    -0.376 A  
HETATM   25  C   UNL     1     -10.420  11.255  66.637  1.00  0.00    -0.292 A  
BRANCH  23  26
HETATM   26  N   UNL     1     -11.002  13.504  65.940  1.00  0.00    -0.278 N  
HETATM   27  H   UNL     1     -10.447  14.339  66.124  1.00  0.00     0.000 HD 
BRANCH  26  28
HETATM   28  S   UNL     1     -11.855  13.323  64.493  1.00  0.00    -0.409 S  
HETATM   29  O   UNL     1     -10.983  12.815  63.461  1.00  0.00    -0.412 OA 
HETATM   30  C   UNL     1     -12.293  15.009  64.118  1.00  0.00    -0.142 C  
HETATM   31  O   UNL     1     -13.075  12.628  64.854  1.00  0.00    -0.850 OA 
ENDBRANCH  26  28
ENDBRANCH  23  26
ENDBRANCH  19  20
ENDBRANCH  18  19
ENDBRANCH  17  18
ENDBRANCH   2  17
TORSDOF 11
ENDMDL
MODEL      115
REMARK 921   NORMALIZED FREE ENERGY PREDICTED BY IDOCK:   -4.59 KCAL/MOL
REMARK 922        TOTAL FREE ENERGY PREDICTED BY IDOCK:   -9.11 KCAL/MOL
REMARK 923 INTER-LIGAND FREE ENERGY PREDICTED BY IDOCK:   -7.29 KCAL/MOL
REMARK 924 INTRA-LIGAND FREE ENERGY PREDICTED BY IDOCK:   -1.82 KCAL/MOL
REMARK 927      BINDING AFFINITY PREDICTED BY RF-SCORE:    0.00 PKD
ROOT
HETATM    1  C   UNL     1     -10.585   6.882  73.736  1.00  0.00    -0.301 C  
HETATM    2  N   UNL     1     -10.403   7.157  72.307  1.00  0.00    -0.197 NA 
ENDROOT
BRANCH   2   3
HETATM    3  C   UNL     1     -11.088   6.148  71.470  1.00  0.00    -0.286 C  
BRANCH   3   4
HETATM    4  C   UNL     1     -11.690   6.664  70.143  1.00  0.00    -0.412 C  
BRANCH   4   5
HETATM    5  C   UNL     1     -10.930   6.226  68.910  1.00  0.00    -0.435 A  
HETATM    6  C   UNL     1      -9.593   5.367  66.602  1.00  0.00    -0.151 A  
HETATM    7  C   UNL     1     -10.223   5.015  68.905  1.00  0.00    -0.184 A  
HETATM    8  C   UNL     1     -10.926   7.018  67.754  1.00  0.00    -0.234 A  
HETATM    9  C   UNL     1      -9.555   4.586  67.755  1.00  0.00    -0.208 A  
HETATM   10  C   UNL     1     -10.259   6.590  66.604  1.00  0.00    -0.209 A  
BRANCH   6  11
HETATM   11  N   UNL     1      -8.929   4.944  65.416  1.00  0.00    -0.148 N  
HETATM   12  H   UNL     1      -7.969   5.227  65.218  1.00  0.00     0.000 HD 
BRANCH  11  13
HETATM   13  S   UNL     1      -9.788   3.955  64.348  1.00  0.00    -0.193 S  
HETATM   14  O   UNL     1      -9.304   4.304  63.028  1.00  0.00    -0.138 OA 
HETATM   15  O   UNL     1     -11.199   3.987  64.658  1.00  0.00    -0.318 OA 
HETATM   16  C   UNL     1      -9.134   2.350  64.750  1.00  0.00    -0.129 C  
ENDBRANCH  11  13
ENDBRANCH   6  11
ENDBRANCH   4   5
ENDBRANCH   3   4
ENDBRANCH   2   3
BRANCH   2  17
HETATM   17  C   UNL     1      -8.953   7.234  72.013  1.00  0.00    -0.128 C  
BRANCH  17  18
HETATM   18  C   UNL     1      -8.538   8.433  71.144  1.00  0.00    -0.154 C  
BRANCH  18  19
HETATM   19  O   UNL     1      -9.526   9.465  71.257  1.00  0.00    -0.224 OA 
BRANCH  19  20
HETATM   20  C   UNL     1      -9.951  10.017  70.076  1.00  0.00    -0.222 A  
HETATM   21  C   UNL     1      -9.170  10.177  68.929  1.00  0.00    -0.172 A  
HETATM   22  C   UNL     1     -11.282  10.442  70.059  1.00  0.00    -0.385 A  
HETATM   23  C   UNL     1     -11.022  11.233  67.794  1.00  0.00    -0.252 A  
HETATM   24  C   UNL     1     -11.823  11.046  68.919  1.00  0.00    -0.378 A  
HETATM   25  C   UNL     1      -9.705  10.783  67.791  1.00  0.00    -0.179 A  
BRANCH  23  26
HETATM   26  N   UNL     1     -11.540  11.856  66.622  1.00  0.00    -0.321 N  
HETATM   27  H   UNL     1     -11.984  11.309  65.885  1.00  0.00     0.000 HD 
BRANCH  26  28
HETATM   28  S   UNL     1     -11.392  13.534  66.496  1.00  0.00    -0.331 S  
HETATM   29  O   UNL     1     -11.399  14.135  67.809  1.00  0.00    -0.278 OA 
HETATM   30  C   UNL     1     -12.894  13.966  65.642  1.00  0.00    -0.424 C  
HETATM   31  O   UNL     1     -10.292  13.752  65.578  1.00  0.00    -0.297 OA 
ENDBRANCH  26  28
ENDBRANCH  23  26
ENDBRANCH  19  20
ENDBRANCH  18  19
ENDBRANCH  17  18
ENDBRANCH   2  17
TORSDOF 11
ENDMDL
MODEL      116
REMARK 921   NORMALIZED FREE ENERGY PREDICTED BY IDOCK:   -4.58 KCAL/MOL
REMARK 922        TOTAL FREE ENERGY PREDICTED BY IDOCK:   -9.09 KCAL/MOL
REMARK 923 INTER-LIGAND FREE ENERGY PREDICTED BY IDOCK:   -8.89 KCAL/MOL
REMARK 924 INTRA-LIGAND FREE ENERGY PREDICTED BY IDOCK:   -0.20 KCAL/MOL
REMARK 927      BINDING AFFINITY PREDICTED BY RF-SCORE:    0.00 PKD
ROOT
HETATM    1  C   UNL     1     -11.593  12.260  66.660  1.00  0.00    -0.375 C  
HETATM    2  N   UNL     1     -10.852  12.879  67.764  1.00  0.00    -0.224 NA 
ENDROOT
BRANCH   2   3
HETATM    3  C   UNL     1     -10.541  11.898  68.826  1.00  0.00    -0.206 C  
BRANCH   3   4
HETATM    4  C   UNL     1     -11.393  10.608  68.829  1.00  0.00    -0.339 C  
BRANCH   4   5
HETATM    5  C   UNL     1     -11.291   9.805  70.107  1.00  0.00    -0.305 A  
HETATM    6  C   UNL     1     -11.119   8.245  72.428  1.00  0.00    -0.377 A  
HETATM    7  C   UNL     1     -12.442   9.504  70.850  1.00  0.00    -0.277 A  
HETATM    8  C   UNL     1     -10.049   9.345  70.565  1.00  0.00    -0.335 A  
HETATM    9  C   UNL     1     -12.357   8.727  72.008  1.00  0.00    -0.444 A  
HETATM   10  C   UNL     1      -9.964   8.568  71.722  1.00  0.00    -0.345 A  
BRANCH   6  11
HETATM   11  N   UNL     1     -11.012   7.442  73.599  1.00  0.00    -0.450 N  
HETATM   12  H   UNL     1     -11.372   7.766  74.497  1.00  0.00     0.000 HD 
BRANCH  11  13
HETATM   13  S   UNL     1     -10.268   5.932  73.447  1.00  0.00    -0.229 S  
HETATM   14  O   UNL     1     -10.855   5.109  74.485  1.00  0.00    -0.311 OA 
HETATM   15  O   UNL     1      -8.836   6.086  73.337  1.00  0.00    -0.127 OA 
HETATM   16  C   UNL     1     -10.920   5.372  71.889  1.00  0.00    -0.151 C  
ENDBRANCH  11  13
ENDBRANCH   6  11
ENDBRANCH   4   5
ENDBRANCH   3   4
ENDBRANCH   2   3
BRANCH   2  17
HETATM   17  C   UNL     1     -11.628  14.031  68.279  1.00  0.00    -0.329 C  
BRANCH  17  18
HETATM   18  C   UNL     1     -10.775  15.179  68.840  1.00  0.00    -0.240 C  
BRANCH  18  19
HETATM   19  O   UNL     1     -11.430  16.427  68.584  1.00  0.00    -0.349 OA 
BRANCH  19  20
HETATM   20  C   UNL     1     -10.629  17.440  68.124  1.00  0.00    -0.376 A  
HETATM   21  C   UNL     1     -10.243  18.565  68.858  1.00  0.00    -0.269 A  
HETATM   22  C   UNL     1     -10.183  17.300  66.807  1.00  0.00    -0.318 A  
HETATM   23  C   UNL     1      -9.033  19.417  66.949  1.00  0.00    -0.310 A  
HETATM   24  C   UNL     1      -9.381  18.283  66.218  1.00  0.00    -0.223 A  
HETATM   25  C   UNL     1      -9.445  19.549  68.272  1.00  0.00    -0.442 A  
BRANCH  23  26
HETATM   26  N   UNL     1      -8.229  20.442  66.373  1.00  0.00    -0.535 N  
HETATM   27  H   UNL     1      -8.641  21.319  66.054  1.00  0.00     0.000 HD 
BRANCH  26  28
HETATM   28  S   UNL     1      -6.571  20.155  66.235  1.00  0.00    -0.225 S  
HETATM   29  O   UNL     1      -6.262  18.808  66.653  1.00  0.00    -0.177 OA 
HETATM   30  C   UNL     1      -5.905  21.308  67.420  1.00  0.00    -0.351 C  
HETATM   31  O   UNL     1      -6.209  20.632  64.915  1.00  0.00    -0.252 OA 
ENDBRANCH  26  28
ENDBRANCH  23  26
ENDBRANCH  19  20
ENDBRANCH  18  19
ENDBRANCH  17  18
ENDBRANCH   2  17
TORSDOF 11
ENDMDL
MODEL      117
REMARK 921   NORMALIZED FREE ENERGY PREDICTED BY IDOCK:   -4.58 KCAL/MOL
REMARK 922        TOTAL FREE ENERGY PREDICTED BY IDOCK:   -9.09 KCAL/MOL
REMARK 923 INTER-LIGAND FREE ENERGY PREDICTED BY IDOCK:   -7.95 KCAL/MOL
REMARK 924 INTRA-LIGAND FREE ENERGY PREDICTED BY IDOCK:   -1.13 KCAL/MOL
REMARK 927      BINDING AFFINITY PREDICTED BY RF-SCORE:    0.00 PKD
ROOT
HETATM    1  C   UNL     1     -14.105   8.910  72.196  1.00  0.00    -0.429 C  
HETATM    2  N   UNL     1     -12.669   9.176  72.332  1.00  0.00    -0.370 NA 
ENDROOT
BRANCH   2   3
HETATM    3  C   UNL     1     -12.265  10.377  71.569  1.00  0.00    -0.321 C  
BRANCH   3   4
HETATM    4  C   UNL     1     -12.033  10.173  70.055  1.00  0.00    -0.210 C  
BRANCH   4   5
HETATM    5  C   UNL     1     -11.889  11.460  69.274  1.00  0.00    -0.417 A  
HETATM    6  C   UNL     1     -11.709  13.845  67.815  1.00  0.00    -0.366 A  
HETATM    7  C   UNL     1     -11.767  11.433  67.877  1.00  0.00    -0.300 A  
HETATM    8  C   UNL     1     -11.881  12.698  69.931  1.00  0.00    -0.364 A  
HETATM    9  C   UNL     1     -11.676  12.622  67.148  1.00  0.00    -0.438 A  
HETATM   10  C   UNL     1     -11.790  13.886  69.203  1.00  0.00    -0.401 A  
BRANCH   6  11
HETATM   11  N   UNL     1     -11.629  15.069  67.090  1.00  0.00    -0.311 N  
HETATM   12  H   UNL     1     -12.385  15.753  67.124  1.00  0.00     0.000 HD 
BRANCH  11  13
HETATM   13  S   UNL     1     -10.237  15.346  66.174  1.00  0.00    -0.331 S  
HETATM   14  O   UNL     1     -10.604  15.022  64.810  1.00  0.00    -0.402 OA 
HETATM   15  O   UNL     1      -9.089  14.733  66.803  1.00  0.00    -0.239 OA 
HETATM   16  C   UNL     1     -10.090  17.116  66.281  1.00  0.00    -0.320 C  
ENDBRANCH  11  13
ENDBRANCH   6  11
ENDBRANCH   4   5
ENDBRANCH   3   4
ENDBRANCH   2   3
BRANCH   2  17
HETATM   17  C   UNL     1     -11.914   7.972  71.916  1.00  0.00    -0.314 C  
BRANCH  17  18
HETATM   18  C   UNL     1     -11.024   7.363  73.012  1.00  0.00    -0.374 C  
BRANCH  18  19
HETATM   19  O   UNL     1      -9.689   7.865  72.872  1.00  0.00    -0.221 OA 
BRANCH  19  20
HETATM   20  C   UNL     1      -9.188   7.886  71.596  1.00  0.00    -0.141 A  
HETATM   21  C   UNL     1      -8.703   9.017  70.935  1.00  0.00    -0.280 A  
HETATM   22  C   UNL     1      -9.179   6.655  70.936  1.00  0.00    -0.157 A  
HETATM   23  C   UNL     1      -8.269   7.697  68.959  1.00  0.00    -0.127 A  
HETATM   24  C   UNL     1      -8.717   6.555  69.620  1.00  0.00    -0.139 A  
HETATM   25  C   UNL     1      -8.244   8.922  69.620  1.00  0.00    -0.114 A  
BRANCH  23  26
HETATM   26  N   UNL     1      -7.805   7.631  67.614  1.00  0.00    -0.121 N  
HETATM   27  H   UNL     1      -6.808   7.601  67.400  1.00  0.00     0.000 HD 
BRANCH  26  28
HETATM   28  S   UNL     1      -8.963   7.604  66.384  1.00  0.00    -0.171 S  
HETATM   29  O   UNL     1     -10.274   7.867  66.929  1.00  0.00    -0.263 OA 
HETATM   30  C   UNL     1      -8.878   5.908  65.845  1.00  0.00    -0.149 C  
HETATM   31  O   UNL     1      -8.412   8.425  65.324  1.00  0.00    -0.165 OA 
ENDBRANCH  26  28
ENDBRANCH  23  26
ENDBRANCH  19  20
ENDBRANCH  18  19
ENDBRANCH  17  18
ENDBRANCH   2  17
TORSDOF 11
ENDMDL
MODEL      118
REMARK 921   NORMALIZED FREE ENERGY PREDICTED BY IDOCK:   -4.58 KCAL/MOL
REMARK 922        TOTAL FREE ENERGY PREDICTED BY IDOCK:   -9.08 KCAL/MOL
REMARK 923 INTER-LIGAND FREE ENERGY PREDICTED BY IDOCK:   -7.71 KCAL/MOL
REMARK 924 INTRA-LIGAND FREE ENERGY PREDICTED BY IDOCK:   -1.37 KCAL/MOL
REMARK 927      BINDING AFFINITY PREDICTED BY RF-SCORE:    0.00 PKD
ROOT
HETATM    1  C   UNL     1      -9.423  14.287  67.942  1.00  0.00    -0.212 C  
HETATM    2  N   UNL     1     -10.617  13.482  67.664  1.00  0.00    -0.239 NA 
ENDROOT
BRANCH   2   3
HETATM    3  C   UNL     1     -10.634  12.242  68.470  1.00  0.00    -0.234 C  
BRANCH   3   4
HETATM    4  C   UNL     1     -11.878  12.030  69.363  1.00  0.00    -0.384 C  
BRANCH   4   5
HETATM    5  C   UNL     1     -11.800  10.805  70.247  1.00  0.00    -0.438 A  
HETATM    6  C   UNL     1     -11.625   8.586  71.950  1.00  0.00    -0.341 A  
HETATM    7  C   UNL     1     -10.601  10.086  70.360  1.00  0.00    -0.343 A  
HETATM    8  C   UNL     1     -12.920  10.372  70.970  1.00  0.00    -0.490 A  
HETATM    9  C   UNL     1     -10.513   8.979  71.208  1.00  0.00    -0.381 A  
HETATM   10  C   UNL     1     -12.832   9.266  71.818  1.00  0.00    -0.461 A  
BRANCH   6  11
HETATM   11  N   UNL     1     -11.553   7.467  72.828  1.00  0.00    -0.557 N  
HETATM   12  H   UNL     1     -11.878   7.532  73.793  1.00  0.00     0.000 HD 
BRANCH  11  13
HETATM   13  S   UNL     1     -10.912   6.030  72.214  1.00  0.00    -0.279 S  
HETATM   14  O   UNL     1      -9.493   6.088  72.505  1.00  0.00    -0.148 OA 
HETATM   15  O   UNL     1     -11.389   5.799  70.870  1.00  0.00    -0.213 OA 
HETATM   16  C   UNL     1     -11.633   4.826  73.308  1.00  0.00    -0.194 C  
ENDBRANCH  11  13
ENDBRANCH   6  11
ENDBRANCH   4   5
ENDBRANCH   3   4
ENDBRANCH   2   3
BRANCH   2  17
HETATM   17  C   UNL     1     -10.682  13.203  66.211  1.00  0.00    -0.284 C  
BRANCH  17  18
HETATM   18  C   UNL     1     -11.322  11.854  65.845  1.00  0.00    -0.308 C  
BRANCH  18  19
HETATM   19  O   UNL     1     -10.423  11.113  65.010  1.00  0.00    -0.286 OA 
BRANCH  19  20
HETATM   20  C   UNL     1      -9.934   9.948  65.544  1.00  0.00    -0.292 A  
HETATM   21  C   UNL     1     -10.429   9.310  66.684  1.00  0.00    -0.237 A  
HETATM   22  C   UNL     1      -8.852   9.385  64.863  1.00  0.00    -0.240 A  
HETATM   23  C   UNL     1      -8.731   7.604  66.487  1.00  0.00    -0.149 A  
HETATM   24  C   UNL     1      -8.251   8.211  65.328  1.00  0.00    -0.150 A  
HETATM   25  C   UNL     1      -9.829   8.140  67.153  1.00  0.00    -0.281 A  
BRANCH  23  26
HETATM   26  N   UNL     1      -8.131   6.415  66.993  1.00  0.00    -0.112 N  
HETATM   27  H   UNL     1      -7.299   6.454  67.582  1.00  0.00     0.000 HD 
BRANCH  26  28
HETATM   28  S   UNL     1      -8.845   4.940  66.585  1.00  0.00    -0.111 S  
HETATM   29  O   UNL     1      -9.919   5.151  65.643  1.00  0.00    -0.110 OA 
HETATM   30  C   UNL     1      -9.524   4.422  68.148  1.00  0.00    -0.152 C  
HETATM   31  O   UNL     1      -7.740   4.054  66.276  1.00  0.00    -0.088 OA 
ENDBRANCH  26  28
ENDBRANCH  23  26
ENDBRANCH  19  20
ENDBRANCH  18  19
ENDBRANCH  17  18
ENDBRANCH   2  17
TORSDOF 11
ENDMDL
MODEL      119
REMARK 921   NORMALIZED FREE ENERGY PREDICTED BY IDOCK:   -4.57 KCAL/MOL
REMARK 922        TOTAL FREE ENERGY PREDICTED BY IDOCK:   -9.08 KCAL/MOL
REMARK 923 INTER-LIGAND FREE ENERGY PREDICTED BY IDOCK:   -7.67 KCAL/MOL
REMARK 924 INTRA-LIGAND FREE ENERGY PREDICTED BY IDOCK:   -1.40 KCAL/MOL
REMARK 927      BINDING AFFINITY PREDICTED BY RF-SCORE:    0.00 PKD
ROOT
HETATM    1  C   UNL     1     -12.208  10.076  70.476  1.00  0.00    -0.222 C  
HETATM    2  N   UNL     1     -10.802  10.015  70.888  1.00  0.00    -0.289 NA 
ENDROOT
BRANCH   2   3
HETATM    3  C   UNL     1      -9.893  10.037  69.721  1.00  0.00    -0.235 C  
BRANCH   3   4
HETATM    4  C   UNL     1     -10.564   9.901  68.335  1.00  0.00    -0.258 C  
BRANCH   4   5
HETATM    5  C   UNL     1     -10.368  11.100  67.436  1.00  0.00    -0.231 A  
HETATM    6  C   UNL     1     -10.070  13.365  65.812  1.00  0.00    -0.288 A  
HETATM    7  C   UNL     1     -11.158  11.264  66.288  1.00  0.00    -0.229 A  
HETATM    8  C   UNL     1      -9.402  12.069  67.736  1.00  0.00    -0.190 A  
HETATM    9  C   UNL     1     -11.009  12.392  65.477  1.00  0.00    -0.328 A  
HETATM   10  C   UNL     1      -9.253  13.197  66.926  1.00  0.00    -0.236 A  
BRANCH   6  11
HETATM   11  N   UNL     1      -9.910  14.528  65.006  1.00  0.00    -0.487 N  
HETATM   12  H   UNL     1      -9.295  14.526  64.191  1.00  0.00     0.000 HD 
BRANCH  11  13
HETATM   13  S   UNL     1     -10.776  15.910  65.446  1.00  0.00    -0.376 S  
HETATM   14  O   UNL     1     -11.621  15.499  66.549  1.00  0.00    -0.041 OA 
HETATM   15  O   UNL     1     -11.335  16.548  64.276  1.00  0.00    -1.020 OA 
HETATM   16  C   UNL     1      -9.486  16.937  66.115  1.00  0.00    -0.245 C  
ENDBRANCH  11  13
ENDBRANCH   6  11
ENDBRANCH   4   5
ENDBRANCH   3   4
ENDBRANCH   2   3
BRANCH   2  17
HETATM   17  C   UNL     1     -10.599   8.813  71.730  1.00  0.00    -0.347 C  
BRANCH  17  18
HETATM   18  C   UNL     1     -11.293   7.543  71.213  1.00  0.00    -0.261 C  
BRANCH  18  19
HETATM   19  O   UNL     1     -10.304   6.549  70.916  1.00  0.00    -0.202 OA 
BRANCH  19  20
HETATM   20  C   UNL     1      -9.953   6.430  69.596  1.00  0.00    -0.164 A  
HETATM   21  C   UNL     1      -8.652   6.517  69.094  1.00  0.00    -0.129 A  
HETATM   22  C   UNL     1     -11.011   6.205  68.713  1.00  0.00    -0.421 A  
HETATM   23  C   UNL     1      -9.483   6.219  66.845  1.00  0.00    -0.138 A  
HETATM   24  C   UNL     1     -10.780   6.094  67.337  1.00  0.00    -0.403 A  
HETATM   25  C   UNL     1      -8.419   6.410  67.721  1.00  0.00    -0.117 A  
BRANCH  23  26
HETATM   26  N   UNL     1      -9.217   6.124  65.449  1.00  0.00    -0.366 N  
HETATM   27  H   UNL     1      -9.464   6.881  64.812  1.00  0.00     0.000 HD 
BRANCH  26  28
HETATM   28  S   UNL     1      -8.478   4.714  64.884  1.00  0.00    -0.141 S  
HETATM   29  O   UNL     1      -7.048   4.899  64.803  1.00  0.00    -0.059 OA 
HETATM   30  C   UNL     1      -9.152   4.586  63.240  1.00  0.00    -0.117 C  
HETATM   31  O   UNL     1      -9.052   3.641  65.673  1.00  0.00    -0.137 OA 
ENDBRANCH  26  28
ENDBRANCH  23  26
ENDBRANCH  19  20
ENDBRANCH  18  19
ENDBRANCH  17  18
ENDBRANCH   2  17
TORSDOF 11
ENDMDL
MODEL      120
REMARK 921   NORMALIZED FREE ENERGY PREDICTED BY IDOCK:   -4.57 KCAL/MOL
REMARK 922        TOTAL FREE ENERGY PREDICTED BY IDOCK:   -9.07 KCAL/MOL
REMARK 923 INTER-LIGAND FREE ENERGY PREDICTED BY IDOCK:   -8.81 KCAL/MOL
REMARK 924 INTRA-LIGAND FREE ENERGY PREDICTED BY IDOCK:   -0.26 KCAL/MOL
REMARK 927      BINDING AFFINITY PREDICTED BY RF-SCORE:    0.00 PKD
ROOT
HETATM    1  C   UNL     1     -12.396  16.191  73.101  1.00  0.00    -0.538 C  
HETATM    2  N   UNL     1     -13.314  15.337  72.340  1.00  0.00    -0.393 NA 
ENDROOT
BRANCH   2   3
HETATM    3  C   UNL     1     -13.127  13.908  72.674  1.00  0.00    -0.429 C  
BRANCH   3   4
HETATM    4  C   UNL     1     -13.781  12.894  71.709  1.00  0.00    -0.117 C  
BRANCH   4   5
HETATM    5  C   UNL     1     -12.957  11.648  71.472  1.00  0.00    -0.463 A  
HETATM    6  C   UNL     1     -11.364   9.375  71.084  1.00  0.00    -0.351 A  
HETATM    7  C   UNL     1     -12.026  11.601  70.424  1.00  0.00    -0.448 A  
HETATM    8  C   UNL     1     -13.104  10.526  72.299  1.00  0.00    -0.242 A  
HETATM    9  C   UNL     1     -11.233  10.467  70.229  1.00  0.00    -0.391 A  
HETATM   10  C   UNL     1     -12.310   9.394  72.105  1.00  0.00    -0.368 A  
BRANCH   6  11
HETATM   11  N   UNL     1     -10.557   8.215  70.909  1.00  0.00    -0.207 N  
HETATM   12  H   UNL     1      -9.561   8.290  70.701  1.00  0.00     0.000 HD 
BRANCH  11  13
HETATM   13  S   UNL     1     -11.309   6.710  71.060  1.00  0.00    -0.333 S  
HETATM   14  O   UNL     1     -10.490   5.792  70.294  1.00  0.00    -0.234 OA 
HETATM   15  O   UNL     1     -12.728   6.828  70.811  1.00  0.00    -0.261 OA 
HETATM   16  C   UNL     1     -11.042   6.353  72.783  1.00  0.00    -0.248 C  
ENDBRANCH  11  13
ENDBRANCH   6  11
ENDBRANCH   4   5
ENDBRANCH   3   4
ENDBRANCH   2   3
BRANCH   2  17
HETATM   17  C   UNL     1     -13.130  15.600  70.894  1.00  0.00    -0.367 C  
BRANCH  17  18
HETATM   18  C   UNL     1     -11.699  15.375  70.378  1.00  0.00    -0.319 C  
BRANCH  18  19
HETATM   19  O   UNL     1     -11.664  15.596  68.963  1.00  0.00    -0.364 OA 
BRANCH  19  20
HETATM   20  C   UNL     1     -10.459  16.006  68.452  1.00  0.00    -0.263 A  
HETATM   21  C   UNL     1      -9.418  16.576  69.189  1.00  0.00    -0.212 A  
HETATM   22  C   UNL     1     -10.299  15.820  67.076  1.00  0.00    -0.292 A  
HETATM   23  C   UNL     1      -8.106  16.825  67.176  1.00  0.00    -0.183 A  
HETATM   24  C   UNL     1      -9.123  16.224  66.436  1.00  0.00    -0.336 A  
HETATM   25  C   UNL     1      -8.245  16.983  68.551  1.00  0.00    -0.259 A  
BRANCH  23  26
HETATM   26  N   UNL     1      -6.903  17.259  66.550  1.00  0.00    -0.232 N  
HETATM   27  H   UNL     1      -6.211  16.589  66.214  1.00  0.00     0.000 HD 
BRANCH  26  28
HETATM   28  S   UNL     1      -6.661  18.922  66.383  1.00  0.00    -0.205 S  
HETATM   29  O   UNL     1      -7.930  19.601  66.268  1.00  0.00    -0.300 OA 
HETATM   30  C   UNL     1      -5.803  19.007  64.824  1.00  0.00    -0.282 C  
HETATM   31  O   UNL     1      -5.712  19.275  67.420  1.00  0.00    -0.171 OA 
ENDBRANCH  26  28
ENDBRANCH  23  26
ENDBRANCH  19  20
ENDBRANCH  18  19
ENDBRANCH  17  18
ENDBRANCH   2  17
TORSDOF 11
ENDMDL
MODEL      121
REMARK 921   NORMALIZED FREE ENERGY PREDICTED BY IDOCK:   -4.56 KCAL/MOL
REMARK 922        TOTAL FREE ENERGY PREDICTED BY IDOCK:   -9.06 KCAL/MOL
REMARK 923 INTER-LIGAND FREE ENERGY PREDICTED BY IDOCK:   -7.62 KCAL/MOL
REMARK 924 INTRA-LIGAND FREE ENERGY PREDICTED BY IDOCK:   -1.44 KCAL/MOL
REMARK 927      BINDING AFFINITY PREDICTED BY RF-SCORE:    0.00 PKD
ROOT
HETATM    1  C   UNL     1     -10.501  19.891  65.791  1.00  0.00    -0.414 C  
HETATM    2  N   UNL     1      -9.840  20.210  67.061  1.00  0.00    -0.428 NA 
ENDROOT
BRANCH   2   3
HETATM    3  C   UNL     1      -8.367  20.187  66.927  1.00  0.00    -0.315 C  
BRANCH   3   4
HETATM    4  C   UNL     1      -7.577  19.765  68.187  1.00  0.00    -0.339 C  
BRANCH   4   5
HETATM    5  C   UNL     1      -7.002  18.369  68.114  1.00  0.00    -0.241 A  
HETATM    6  C   UNL     1      -5.855  15.814  68.000  1.00  0.00    -0.136 A  
HETATM    7  C   UNL     1      -6.420  17.901  66.926  1.00  0.00    -0.207 A  
HETATM    8  C   UNL     1      -7.033  17.524  69.232  1.00  0.00    -0.172 A  
HETATM    9  C   UNL     1      -5.850  16.627  66.868  1.00  0.00    -0.132 A  
HETATM   10  C   UNL     1      -6.462  16.250  69.174  1.00  0.00    -0.175 A  
BRANCH   6  11
HETATM   11  N   UNL     1      -5.269  14.517  67.965  1.00  0.00    -0.117 N  
HETATM   12  H   UNL     1      -4.268  14.385  68.111  1.00  0.00     0.000 HD 
BRANCH  11  13
HETATM   13  S   UNL     1      -6.292  13.204  67.674  1.00  0.00    -0.139 S  
HETATM   14  O   UNL     1      -5.569  12.351  66.751  1.00  0.00    -0.319 OA 
HETATM   15  O   UNL     1      -7.628  13.663  67.374  1.00  0.00    -0.167 OA 
HETATM   16  C   UNL     1      -6.290  12.397  69.260  1.00  0.00    -0.106 C  
ENDBRANCH  11  13
ENDBRANCH   6  11
ENDBRANCH   4   5
ENDBRANCH   3   4
ENDBRANCH   2   3
BRANCH   2  17
HETATM   17  C   UNL     1     -10.320  19.273  68.103  1.00  0.00    -0.397 C  
BRANCH  17  18
HETATM   18  C   UNL     1     -10.639  17.858  67.595  1.00  0.00    -0.387 C  
BRANCH  18  19
HETATM   19  O   UNL     1     -11.157  17.071  68.674  1.00  0.00    -0.272 OA 
BRANCH  19  20
HETATM   20  C   UNL     1     -11.296  15.730  68.424  1.00  0.00    -0.372 A  
HETATM   21  C   UNL     1     -11.758  14.779  69.337  1.00  0.00    -0.358 A  
HETATM   22  C   UNL     1     -10.935  15.321  67.137  1.00  0.00    -0.331 A  
HETATM   23  C   UNL     1     -11.436  13.028  67.704  1.00  0.00    -0.324 A  
HETATM   24  C   UNL     1     -11.008  13.972  66.772  1.00  0.00    -0.298 A  
HETATM   25  C   UNL     1     -11.828  13.432  68.976  1.00  0.00    -0.378 A  
BRANCH  23  26
HETATM   26  N   UNL     1     -11.508  11.647  67.366  1.00  0.00    -0.300 N  
HETATM   27  H   UNL     1     -12.406  11.183  67.230  1.00  0.00     0.000 HD 
BRANCH  26  28
HETATM   28  S   UNL     1     -10.055  10.802  67.199  1.00  0.00    -0.213 S  
HETATM   29  O   UNL     1      -9.447  11.103  65.925  1.00  0.00    -0.199 OA 
HETATM   30  C   UNL     1     -10.616   9.112  67.202  1.00  0.00    -0.216 C  
HETATM   31  O   UNL     1      -9.340  11.024  68.441  1.00  0.00    -0.164 OA 
ENDBRANCH  26  28
ENDBRANCH  23  26
ENDBRANCH  19  20
ENDBRANCH  18  19
ENDBRANCH  17  18
ENDBRANCH   2  17
TORSDOF 11
ENDMDL
MODEL      122
REMARK 921   NORMALIZED FREE ENERGY PREDICTED BY IDOCK:   -4.56 KCAL/MOL
REMARK 922        TOTAL FREE ENERGY PREDICTED BY IDOCK:   -9.05 KCAL/MOL
REMARK 923 INTER-LIGAND FREE ENERGY PREDICTED BY IDOCK:   -8.45 KCAL/MOL
REMARK 924 INTRA-LIGAND FREE ENERGY PREDICTED BY IDOCK:   -0.60 KCAL/MOL
REMARK 927      BINDING AFFINITY PREDICTED BY RF-SCORE:    0.00 PKD
ROOT
HETATM    1  C   UNL     1      -8.572  10.193  64.233  1.00  0.00    -0.193 C  
HETATM    2  N   UNL     1      -9.308  10.974  65.232  1.00  0.00    -0.211 NA 
ENDROOT
BRANCH   2   3
HETATM    3  C   UNL     1      -9.494  10.214  66.486  1.00  0.00    -0.169 C  
BRANCH   3   4
HETATM    4  C   UNL     1     -10.188   8.839  66.350  1.00  0.00    -0.256 C  
BRANCH   4   5
HETATM    5  C   UNL     1     -10.195   8.023  67.624  1.00  0.00    -0.291 A  
HETATM    6  C   UNL     1     -10.284   6.550  70.006  1.00  0.00    -0.184 A  
HETATM    7  C   UNL     1      -9.674   8.557  68.812  1.00  0.00    -0.168 A  
HETATM    8  C   UNL     1     -10.725   6.726  67.640  1.00  0.00    -0.357 A  
HETATM    9  C   UNL     1      -9.717   7.823  70.000  1.00  0.00    -0.176 A  
HETATM   10  C   UNL     1     -10.769   5.993  68.827  1.00  0.00    -0.375 A  
BRANCH   6  11
HETATM   11  N   UNL     1     -10.348   5.790  71.209  1.00  0.00    -0.215 N  
HETATM   12  H   UNL     1      -9.710   5.011  71.376  1.00  0.00     0.000 HD 
BRANCH  11  13
HETATM   13  S   UNL     1     -11.517   6.224  72.347  1.00  0.00    -0.275 S  
HETATM   14  O   UNL     1     -11.660   5.070  73.212  1.00  0.00    -0.322 OA 
HETATM   15  O   UNL     1     -12.664   6.812  71.693  1.00  0.00    -0.366 OA 
HETATM   16  C   UNL     1     -10.661   7.481  73.272  1.00  0.00    -0.384 C  
ENDBRANCH  11  13
ENDBRANCH   6  11
ENDBRANCH   4   5
ENDBRANCH   3   4
ENDBRANCH   2   3
BRANCH   2  17
HETATM   17  C   UNL     1     -10.598  11.411  64.648  1.00  0.00    -0.318 C  
BRANCH  17  18
HETATM   18  C   UNL     1     -11.586  12.016  65.657  1.00  0.00    -0.296 C  
BRANCH  18  19
HETATM   19  O   UNL     1     -11.883  13.366  65.280  1.00  0.00    -0.321 OA 
BRANCH  19  20
HETATM   20  C   UNL     1     -11.300  14.343  66.047  1.00  0.00    -0.335 A  
HETATM   21  C   UNL     1     -11.567  14.579  67.398  1.00  0.00    -0.406 A  
HETATM   22  C   UNL     1     -10.369  15.147  65.385  1.00  0.00    -0.415 A  
HETATM   23  C   UNL     1     -10.030  16.443  67.393  1.00  0.00    -0.251 A  
HETATM   24  C   UNL     1      -9.728  16.194  66.056  1.00  0.00    -0.376 A  
HETATM   25  C   UNL     1     -10.932  15.626  68.069  1.00  0.00    -0.318 A  
BRANCH  23  26
HETATM   26  N   UNL     1      -9.405  17.510  68.100  1.00  0.00    -0.268 N  
HETATM   27  H   UNL     1      -8.751  17.327  68.861  1.00  0.00     0.000 HD 
BRANCH  26  28
HETATM   28  S   UNL     1      -9.784  19.088  67.633  1.00  0.00    -0.328 S  
HETATM   29  O   UNL     1      -8.727  19.634  66.815  1.00  0.00    -0.303 OA 
HETATM   30  C   UNL     1      -9.812  19.932  69.202  1.00  0.00    -0.215 C  
HETATM   31  O   UNL     1     -11.150  19.025  67.149  1.00  0.00    -0.358 OA 
ENDBRANCH  26  28
ENDBRANCH  23  26
ENDBRANCH  19  20
ENDBRANCH  18  19
ENDBRANCH  17  18
ENDBRANCH   2  17
TORSDOF 11
ENDMDL
MODEL      123
REMARK 921   NORMALIZED FREE ENERGY PREDICTED BY IDOCK:   -4.55 KCAL/MOL
REMARK 922        TOTAL FREE ENERGY PREDICTED BY IDOCK:   -9.03 KCAL/MOL
REMARK 923 INTER-LIGAND FREE ENERGY PREDICTED BY IDOCK:   -8.38 KCAL/MOL
REMARK 924 INTRA-LIGAND FREE ENERGY PREDICTED BY IDOCK:   -0.65 KCAL/MOL
REMARK 927      BINDING AFFINITY PREDICTED BY RF-SCORE:    0.00 PKD
ROOT
HETATM    1  C   UNL     1     -12.538   8.340  72.223  1.00  0.00    -0.311 C  
HETATM    2  N   UNL     1     -11.776   8.280  70.971  1.00  0.00    -0.280 NA 
ENDROOT
BRANCH   2   3
HETATM    3  C   UNL     1     -11.764   6.913  70.408  1.00  0.00    -0.325 C  
BRANCH   3   4
HETATM    4  C   UNL     1     -10.374   6.257  70.246  1.00  0.00    -0.258 C  
BRANCH   4   5
HETATM    5  C   UNL     1     -10.202   5.490  68.953  1.00  0.00    -0.284 A  
HETATM    6  C   UNL     1      -9.957   4.025  66.577  1.00  0.00    -0.073 A  
HETATM    7  C   UNL     1      -9.570   4.238  68.950  1.00  0.00    -0.227 A  
HETATM    8  C   UNL     1     -10.676   6.013  67.743  1.00  0.00    -0.369 A  
HETATM    9  C   UNL     1      -9.446   3.508  67.765  1.00  0.00    -0.230 A  
HETATM   10  C   UNL     1     -10.553   5.283  66.559  1.00  0.00    -0.348 A  
BRANCH   6  11
HETATM   11  N   UNL     1      -9.852   3.292  65.361  1.00  0.00    -0.384 N  
HETATM   12  H   UNL     1     -10.465   2.501  65.166  1.00  0.00     0.000 HD 
BRANCH  11  13
HETATM   13  S   UNL     1      -8.674   3.781  64.252  1.00  0.00    -0.110 S  
HETATM   14  O   UNL     1      -7.590   4.314  65.053  1.00  0.00    -0.076 OA 
HETATM   15  O   UNL     1      -9.272   4.561  63.193  1.00  0.00    -0.141 OA 
HETATM   16  C   UNL     1      -8.135   2.217  63.597  1.00  0.00    -0.076 C  
ENDBRANCH  11  13
ENDBRANCH   6  11
ENDBRANCH   4   5
ENDBRANCH   3   4
ENDBRANCH   2   3
BRANCH   2  17
HETATM   17  C   UNL     1     -10.408   8.794  71.215  1.00  0.00    -0.261 C  
BRANCH  17  18
HETATM   18  C   UNL     1      -9.913   9.818  70.181  1.00  0.00    -0.263 C  
BRANCH  18  19
HETATM   19  O   UNL     1     -10.722   9.729  69.002  1.00  0.00    -0.212 OA 
BRANCH  19  20
HETATM   20  C   UNL     1     -10.771  10.858  68.225  1.00  0.00    -0.204 A  
HETATM   21  C   UNL     1     -11.125  12.134  68.672  1.00  0.00    -0.297 A  
HETATM   22  C   UNL     1     -10.434  10.676  66.882  1.00  0.00    -0.304 A  
HETATM   23  C   UNL     1     -10.864  13.009  66.436  1.00  0.00    -0.278 A  
HETATM   24  C   UNL     1     -10.474  11.750  65.985  1.00  0.00    -0.286 A  
HETATM   25  C   UNL     1     -11.169  13.206  67.779  1.00  0.00    -0.308 A  
BRANCH  23  26
HETATM   26  N   UNL     1     -10.928  14.119  65.545  1.00  0.00    -0.300 N  
HETATM   27  H   UNL     1     -10.167  14.796  65.490  1.00  0.00     0.000 HD 
BRANCH  26  28
HETATM   28  S   UNL     1     -12.307  14.274  64.583  1.00  0.00    -0.369 S  
HETATM   29  O   UNL     1     -13.488  13.949  65.348  1.00  0.00    -0.672 OA 
HETATM   30  C   UNL     1     -12.035  13.012  63.354  1.00  0.00    -0.520 C  
HETATM   31  O   UNL     1     -12.170  15.558  63.924  1.00  0.00    -0.614 OA 
ENDBRANCH  26  28
ENDBRANCH  23  26
ENDBRANCH  19  20
ENDBRANCH  18  19
ENDBRANCH  17  18
ENDBRANCH   2  17
TORSDOF 11
ENDMDL
MODEL      124
REMARK 921   NORMALIZED FREE ENERGY PREDICTED BY IDOCK:   -4.55 KCAL/MOL
REMARK 922        TOTAL FREE ENERGY PREDICTED BY IDOCK:   -9.03 KCAL/MOL
REMARK 923 INTER-LIGAND FREE ENERGY PREDICTED BY IDOCK:   -8.82 KCAL/MOL
REMARK 924 INTRA-LIGAND FREE ENERGY PREDICTED BY IDOCK:   -0.22 KCAL/MOL
REMARK 927      BINDING AFFINITY PREDICTED BY RF-SCORE:    0.00 PKD
ROOT
HETATM    1  C   UNL     1     -11.398  11.890  63.515  1.00  0.00    -0.428 C  
HETATM    2  N   UNL     1     -11.395  11.990  64.979  1.00  0.00    -0.324 NA 
ENDROOT
BRANCH   2   3
HETATM    3  C   UNL     1     -12.334  13.029  65.453  1.00  0.00    -0.486 C  
BRANCH   3   4
HETATM    4  C   UNL     1     -11.693  14.318  66.016  1.00  0.00    -0.384 C  
BRANCH   4   5
HETATM    5  C   UNL     1     -11.721  14.412  67.525  1.00  0.00    -0.416 A  
HETATM    6  C   UNL     1     -11.685  14.566  70.323  1.00  0.00    -0.293 A  
HETATM    7  C   UNL     1     -11.894  13.258  68.305  1.00  0.00    -0.389 A  
HETATM    8  C   UNL     1     -11.568  15.647  68.168  1.00  0.00    -0.290 A  
HETATM    9  C   UNL     1     -11.878  13.334  69.700  1.00  0.00    -0.391 A  
HETATM   10  C   UNL     1     -11.551  15.723  69.563  1.00  0.00    -0.368 A  
BRANCH   6  11
HETATM   11  N   UNL     1     -11.654  14.663  71.744  1.00  0.00    -0.439 N  
HETATM   12  H   UNL     1     -10.770  14.674  72.253  1.00  0.00     0.000 HD 
BRANCH  11  13
HETATM   13  S   UNL     1     -13.133  14.762  72.554  1.00  0.00    -0.440 S  
HETATM   14  O   UNL     1     -13.492  13.393  72.866  1.00  0.00    -0.576 OA 
HETATM   15  O   UNL     1     -14.043  15.627  71.838  1.00  0.00    -0.470 OA 
HETATM   16  C   UNL     1     -12.651  15.548  74.076  1.00  0.00    -0.625 C  
ENDBRANCH  11  13
ENDBRANCH   6  11
ENDBRANCH   4   5
ENDBRANCH   3   4
ENDBRANCH   2   3
BRANCH   2  17
HETATM   17  C   UNL     1     -10.010  12.238  65.442  1.00  0.00    -0.244 C  
BRANCH  17  18
HETATM   18  C   UNL     1      -9.424  11.129  66.330  1.00  0.00    -0.193 C  
BRANCH  18  19
HETATM   19  O   UNL     1     -10.291   9.989  66.301  1.00  0.00    -0.223 OA 
BRANCH  19  20
HETATM   20  C   UNL     1      -9.679   8.769  66.433  1.00  0.00    -0.265 A  
HETATM   21  C   UNL     1      -8.349   8.490  66.108  1.00  0.00    -0.121 A  
HETATM   22  C   UNL     1     -10.485   7.746  66.938  1.00  0.00    -0.388 A  
HETATM   23  C   UNL     1      -8.663   6.177  66.729  1.00  0.00    -0.116 A  
HETATM   24  C   UNL     1      -9.980   6.450  67.092  1.00  0.00    -0.197 A  
HETATM   25  C   UNL     1      -7.843   7.198  66.257  1.00  0.00    -0.107 A  
BRANCH  23  26
HETATM   26  N   UNL     1      -8.123   4.866  66.861  1.00  0.00    -0.107 N  
HETATM   27  H   UNL     1      -7.117   4.713  66.923  1.00  0.00     0.000 HD 
BRANCH  26  28
HETATM   28  S   UNL     1      -9.208   3.572  66.912  1.00  0.00    -0.188 S  
HETATM   29  O   UNL     1      -9.510   3.229  68.282  1.00  0.00    -0.188 OA 
HETATM   30  C   UNL     1      -8.248   2.266  66.174  1.00  0.00    -0.089 C  
HETATM   31  O   UNL     1     -10.260   3.920  65.978  1.00  0.00    -0.073 OA 
ENDBRANCH  26  28
ENDBRANCH  23  26
ENDBRANCH  19  20
ENDBRANCH  18  19
ENDBRANCH  17  18
ENDBRANCH   2  17
TORSDOF 11
ENDMDL
MODEL      125
REMARK 921   NORMALIZED FREE ENERGY PREDICTED BY IDOCK:   -4.54 KCAL/MOL
REMARK 922        TOTAL FREE ENERGY PREDICTED BY IDOCK:   -9.02 KCAL/MOL
REMARK 923 INTER-LIGAND FREE ENERGY PREDICTED BY IDOCK:   -7.89 KCAL/MOL
REMARK 924 INTRA-LIGAND FREE ENERGY PREDICTED BY IDOCK:   -1.13 KCAL/MOL
REMARK 927      BINDING AFFINITY PREDICTED BY RF-SCORE:    0.00 PKD
ROOT
HETATM    1  C   UNL     1     -12.585  10.016  71.134  1.00  0.00    -0.381 C  
HETATM    2  N   UNL     1     -11.167   9.762  71.409  1.00  0.00    -0.352 NA 
ENDROOT
BRANCH   2   3
HETATM    3  C   UNL     1     -10.366   9.757  70.166  1.00  0.00    -0.282 C  
BRANCH   3   4
HETATM    4  C   UNL     1     -11.145  10.014  68.855  1.00  0.00    -0.219 C  
BRANCH   4   5
HETATM    5  C   UNL     1     -10.617  11.176  68.043  1.00  0.00    -0.233 A  
HETATM    6  C   UNL     1      -9.695  13.383  66.583  1.00  0.00    -0.275 A  
HETATM    7  C   UNL     1     -11.285  11.592  66.882  1.00  0.00    -0.363 A  
HETATM    8  C   UNL     1      -9.460  11.859  68.441  1.00  0.00    -0.189 A  
HETATM    9  C   UNL     1     -10.825  12.691  66.152  1.00  0.00    -0.301 A  
HETATM   10  C   UNL     1      -9.001  12.959  67.712  1.00  0.00    -0.191 A  
BRANCH   6  11
HETATM   11  N   UNL     1      -9.216  14.513  65.861  1.00  0.00    -0.517 N  
HETATM   12  H   UNL     1      -8.423  14.436  65.225  1.00  0.00     0.000 HD 
BRANCH  11  13
HETATM   13  S   UNL     1     -10.011  15.985  66.096  1.00  0.00    -0.349 S  
HETATM   14  O   UNL     1      -9.007  17.005  65.867  1.00  0.00    -0.517 OA 
HETATM   15  O   UNL     1     -10.777  15.955  67.320  1.00  0.00    -0.313 OA 
HETATM   16  C   UNL     1     -11.124  16.011  64.707  1.00  0.00    -0.365 C  
ENDBRANCH  11  13
ENDBRANCH   6  11
ENDBRANCH   4   5
ENDBRANCH   3   4
ENDBRANCH   2   3
BRANCH   2  17
HETATM   17  C   UNL     1     -11.042   8.490  72.158  1.00  0.00    -0.366 C  
BRANCH  17  18
HETATM   18  C   UNL     1     -12.081   7.421  71.784  1.00  0.00    -0.312 C  
BRANCH  18  19
HETATM   19  O   UNL     1     -11.426   6.157  71.622  1.00  0.00    -0.286 OA 
BRANCH  19  20
HETATM   20  C   UNL     1     -10.776   5.968  70.429  1.00  0.00    -0.292 A  
HETATM   21  C   UNL     1     -11.293   6.278  69.169  1.00  0.00    -0.358 A  
HETATM   22  C   UNL     1      -9.495   5.419  70.526  1.00  0.00    -0.215 A  
HETATM   23  C   UNL     1      -9.286   5.434  68.121  1.00  0.00    -0.111 A  
HETATM   24  C   UNL     1      -8.745   5.155  69.374  1.00  0.00    -0.112 A  
HETATM   25  C   UNL     1     -10.548   6.012  68.018  1.00  0.00    -0.330 A  
BRANCH  23  26
HETATM   26  N   UNL     1      -8.553   5.164  66.930  1.00  0.00    -0.106 N  
HETATM   27  H   UNL     1      -7.931   5.863  66.524  1.00  0.00     0.000 HD 
BRANCH  26  28
HETATM   28  S   UNL     1      -8.749   3.647  66.215  1.00  0.00    -0.127 S  
HETATM   29  O   UNL     1      -7.492   3.184  65.676  1.00  0.00    -0.071 OA 
HETATM   30  C   UNL     1      -9.863   4.020  64.875  1.00  0.00    -0.200 C  
HETATM   31  O   UNL     1      -9.485   2.860  67.185  1.00  0.00    -0.161 OA 
ENDBRANCH  26  28
ENDBRANCH  23  26
ENDBRANCH  19  20
ENDBRANCH  18  19
ENDBRANCH  17  18
ENDBRANCH   2  17
TORSDOF 11
ENDMDL
MODEL      126
REMARK 921   NORMALIZED FREE ENERGY PREDICTED BY IDOCK:   -4.54 KCAL/MOL
REMARK 922        TOTAL FREE ENERGY PREDICTED BY IDOCK:   -9.02 KCAL/MOL
REMARK 923 INTER-LIGAND FREE ENERGY PREDICTED BY IDOCK:   -8.34 KCAL/MOL
REMARK 924 INTRA-LIGAND FREE ENERGY PREDICTED BY IDOCK:   -0.68 KCAL/MOL
REMARK 927      BINDING AFFINITY PREDICTED BY RF-SCORE:    0.00 PKD
ROOT
HETATM    1  C   UNL     1     -10.546   8.114  72.680  1.00  0.00    -0.344 C  
HETATM    2  N   UNL     1     -11.849   7.674  72.172  1.00  0.00    -0.299 NA 
ENDROOT
BRANCH   2   3
HETATM    3  C   UNL     1     -11.779   7.315  70.739  1.00  0.00    -0.299 C  
BRANCH   3   4
HETATM    4  C   UNL     1     -10.360   7.201  70.136  1.00  0.00    -0.218 C  
BRANCH   4   5
HETATM    5  C   UNL     1     -10.261   6.242  68.971  1.00  0.00    -0.224 A  
HETATM    6  C   UNL     1     -10.000   4.503  66.789  1.00  0.00    -0.215 A  
HETATM    7  C   UNL     1     -10.708   6.624  67.697  1.00  0.00    -0.373 A  
HETATM    8  C   UNL     1      -9.716   4.963  69.142  1.00  0.00    -0.252 A  
HETATM    9  C   UNL     1     -10.580   5.756  66.609  1.00  0.00    -0.347 A  
HETATM   10  C   UNL     1      -9.586   4.096  68.055  1.00  0.00    -0.200 A  
BRANCH   6  11
HETATM   11  N   UNL     1      -9.849   3.608  65.692  1.00  0.00    -0.377 N  
HETATM   12  H   UNL     1     -10.429   2.773  65.607  1.00  0.00     0.000 HD 
BRANCH  11  13
HETATM   13  S   UNL     1      -8.675   3.980  64.535  1.00  0.00    -0.129 S  
HETATM   14  O   UNL     1      -7.900   2.767  64.370  1.00  0.00    -0.076 OA 
HETATM   15  O   UNL     1      -8.034   5.236  64.853  1.00  0.00    -0.094 OA 
HETATM   16  C   UNL     1      -9.670   4.181  63.074  1.00  0.00    -0.127 C  
ENDBRANCH  11  13
ENDBRANCH   6  11
ENDBRANCH   4   5
ENDBRANCH   3   4
ENDBRANCH   2   3
BRANCH   2  17
HETATM   17  C   UNL     1     -12.851   8.734  72.433  1.00  0.00    -0.371 C  
BRANCH  17  18
HETATM   18  C   UNL     1     -13.122   9.667  71.242  1.00  0.00    -0.357 C  
BRANCH  18  19
HETATM   19  O   UNL     1     -12.590  10.967  71.526  1.00  0.00    -0.384 OA 
BRANCH  19  20
HETATM   20  C   UNL     1     -12.350  11.766  70.438  1.00  0.00    -0.277 A  
HETATM   21  C   UNL     1     -11.998  11.314  69.163  1.00  0.00    -0.405 A  
HETATM   22  C   UNL     1     -12.478  13.139  70.664  1.00  0.00    -0.363 A  
HETATM   23  C   UNL     1     -11.846  13.594  68.379  1.00  0.00    -0.372 A  
HETATM   24  C   UNL     1     -12.232  14.055  69.636  1.00  0.00    -0.383 A  
HETATM   25  C   UNL     1     -11.748  12.227  68.137  1.00  0.00    -0.408 A  
BRANCH  23  26
HETATM   26  N   UNL     1     -11.575  14.503  67.317  1.00  0.00    -0.371 N  
HETATM   27  H   UNL     1     -12.238  14.636  66.554  1.00  0.00     0.000 HD 
BRANCH  26  28
HETATM   28  S   UNL     1     -10.116  15.353  67.364  1.00  0.00    -0.236 S  
HETATM   29  O   UNL     1      -9.201  14.722  68.286  1.00  0.00    -0.176 OA 
HETATM   30  C   UNL     1     -10.633  16.923  68.028  1.00  0.00    -0.367 C  
HETATM   31  O   UNL     1      -9.754  15.566  65.976  1.00  0.00    -0.292 OA 
ENDBRANCH  26  28
ENDBRANCH  23  26
ENDBRANCH  19  20
ENDBRANCH  18  19
ENDBRANCH  17  18
ENDBRANCH   2  17
TORSDOF 11
ENDMDL
MODEL      127
REMARK 921   NORMALIZED FREE ENERGY PREDICTED BY IDOCK:   -4.54 KCAL/MOL
REMARK 922        TOTAL FREE ENERGY PREDICTED BY IDOCK:   -9.01 KCAL/MOL
REMARK 923 INTER-LIGAND FREE ENERGY PREDICTED BY IDOCK:   -7.58 KCAL/MOL
REMARK 924 INTRA-LIGAND FREE ENERGY PREDICTED BY IDOCK:   -1.44 KCAL/MOL
REMARK 927      BINDING AFFINITY PREDICTED BY RF-SCORE:    0.00 PKD
ROOT
HETATM    1  C   UNL     1      -9.885   4.176  65.948  1.00  0.00    -0.199 C  
HETATM    2  N   UNL     1      -9.890   4.837  67.257  1.00  0.00    -0.181 NA 
ENDROOT
BRANCH   2   3
HETATM    3  C   UNL     1     -10.430   6.211  67.169  1.00  0.00    -0.264 C  
BRANCH   3   4
HETATM    4  C   UNL     1      -9.402   7.355  67.324  1.00  0.00    -0.159 C  
BRANCH   4   5
HETATM    5  C   UNL     1      -9.989   8.738  67.147  1.00  0.00    -0.295 A  
HETATM    6  C   UNL     1     -11.001  11.335  66.852  1.00  0.00    -0.290 A  
HETATM    7  C   UNL     1     -10.642   9.374  68.213  1.00  0.00    -0.256 A  
HETATM    8  C   UNL     1      -9.884   9.408  65.921  1.00  0.00    -0.362 A  
HETATM    9  C   UNL     1     -11.148  10.668  68.066  1.00  0.00    -0.361 A  
HETATM   10  C   UNL     1     -10.389  10.702  65.774  1.00  0.00    -0.287 A  
BRANCH   6  11
HETATM   11  N   UNL     1     -11.499  12.658  66.685  1.00  0.00    -0.330 N  
HETATM   12  H   UNL     1     -12.075  12.909  65.881  1.00  0.00     0.000 HD 
BRANCH  11  13
HETATM   13  S   UNL     1     -11.103  13.798  67.867  1.00  0.00    -0.275 S  
HETATM   14  O   UNL     1      -9.706  13.566  68.172  1.00  0.00    -0.221 OA 
HETATM   15  O   UNL     1     -12.103  13.809  68.911  1.00  0.00    -0.349 OA 
HETATM   16  C   UNL     1     -11.203  15.315  66.943  1.00  0.00    -0.256 C  
ENDBRANCH  11  13
ENDBRANCH   6  11
ENDBRANCH   4   5
ENDBRANCH   3   4
ENDBRANCH   2   3
BRANCH   2  17
HETATM   17  C   UNL     1      -8.518   4.812  67.815  1.00  0.00    -0.103 C  
BRANCH  17  18
HETATM   18  C   UNL     1      -8.424   4.312  69.265  1.00  0.00    -0.073 C  
BRANCH  18  19
HETATM   19  O   UNL     1      -7.961   5.376  70.106  1.00  0.00    -0.082 OA 
BRANCH  19  20
HETATM   20  C   UNL     1      -8.934   6.079  70.770  1.00  0.00    -0.149 A  
HETATM   21  C   UNL     1      -8.804   7.385  71.250  1.00  0.00    -0.138 A  
HETATM   22  C   UNL     1     -10.139   5.399  70.962  1.00  0.00    -0.281 A  
HETATM   23  C   UNL     1     -11.041   7.292  72.156  1.00  0.00    -0.246 A  
HETATM   24  C   UNL     1     -11.196   6.003  71.650  1.00  0.00    -0.328 A  
HETATM   25  C   UNL     1      -9.856   7.989  71.940  1.00  0.00    -0.251 A  
BRANCH  23  26
HETATM   26  N   UNL     1     -12.094   7.929  72.873  1.00  0.00    -0.613 N  
HETATM   27  H   UNL     1     -12.100   7.953  73.893  1.00  0.00     0.000 HD 
BRANCH  26  28
HETATM   28  S   UNL     1     -13.333   8.645  71.976  1.00  0.00    -0.405 S  
HETATM   29  O   UNL     1     -13.613   7.860  70.797  1.00  0.00     0.159 OA 
HETATM   30  C   UNL     1     -12.585  10.188  71.493  1.00  0.00    -0.434 C  
HETATM   31  O   UNL     1     -14.374   8.949  72.939  1.00  0.00    -0.548 OA 
ENDBRANCH  26  28
ENDBRANCH  23  26
ENDBRANCH  19  20
ENDBRANCH  18  19
ENDBRANCH  17  18
ENDBRANCH   2  17
TORSDOF 11
ENDMDL
MODEL      128
REMARK 921   NORMALIZED FREE ENERGY PREDICTED BY IDOCK:   -4.53 KCAL/MOL
REMARK 922        TOTAL FREE ENERGY PREDICTED BY IDOCK:   -9.01 KCAL/MOL
REMARK 923 INTER-LIGAND FREE ENERGY PREDICTED BY IDOCK:   -8.43 KCAL/MOL
REMARK 924 INTRA-LIGAND FREE ENERGY PREDICTED BY IDOCK:   -0.58 KCAL/MOL
REMARK 927      BINDING AFFINITY PREDICTED BY RF-SCORE:    0.00 PKD
ROOT
HETATM    1  C   UNL     1     -11.587  11.907  63.430  1.00  0.00    -0.382 C  
HETATM    2  N   UNL     1     -11.453  12.070  64.882  1.00  0.00    -0.316 NA 
ENDROOT
BRANCH   2   3
HETATM    3  C   UNL     1     -12.378  13.101  65.399  1.00  0.00    -0.481 C  
BRANCH   3   4
HETATM    4  C   UNL     1     -11.721  14.383  65.959  1.00  0.00    -0.378 C  
BRANCH   4   5
HETATM    5  C   UNL     1     -11.745  14.479  67.468  1.00  0.00    -0.413 A  
HETATM    6  C   UNL     1     -11.705  14.628  70.266  1.00  0.00    -0.297 A  
HETATM    7  C   UNL     1     -12.054  13.354  68.246  1.00  0.00    -0.271 A  
HETATM    8  C   UNL     1     -11.453  15.689  68.112  1.00  0.00    -0.325 A  
HETATM    9  C   UNL     1     -12.035  13.428  69.641  1.00  0.00    -0.386 A  
HETATM   10  C   UNL     1     -11.434  15.763  69.507  1.00  0.00    -0.356 A  
BRANCH   6  11
HETATM   11  N   UNL     1     -11.669  14.722  71.687  1.00  0.00    -0.445 N  
HETATM   12  H   UNL     1     -10.788  14.664  72.198  1.00  0.00     0.000 HD 
BRANCH  11  13
HETATM   13  S   UNL     1     -13.138  14.934  72.494  1.00  0.00    -0.430 S  
HETATM   14  O   UNL     1     -13.522  13.612  72.946  1.00  0.00    -0.639 OA 
HETATM   15  O   UNL     1     -14.037  15.741  71.701  1.00  0.00    -0.453 OA 
HETATM   16  C   UNL     1     -12.625  15.859  73.925  1.00  0.00    -0.623 C  
ENDBRANCH  11  13
ENDBRANCH   6  11
ENDBRANCH   4   5
ENDBRANCH   3   4
ENDBRANCH   2   3
BRANCH   2  17
HETATM   17  C   UNL     1     -10.040  12.376  65.204  1.00  0.00    -0.256 C  
BRANCH  17  18
HETATM   18  C   UNL     1      -9.442  11.526  66.336  1.00  0.00    -0.213 C  
BRANCH  18  19
HETATM   19  O   UNL     1     -10.416  10.575  66.782  1.00  0.00    -0.239 OA 
BRANCH  19  20
HETATM   20  C   UNL     1      -9.921   9.381  67.239  1.00  0.00    -0.196 A  
HETATM   21  C   UNL     1     -10.596   8.158  67.205  1.00  0.00    -0.344 A  
HETATM   22  C   UNL     1      -8.632   9.433  67.774  1.00  0.00    -0.116 A  
HETATM   23  C   UNL     1      -8.728   7.077  68.291  1.00  0.00    -0.127 A  
HETATM   24  C   UNL     1      -8.030   8.283  68.297  1.00  0.00    -0.119 A  
HETATM   25  C   UNL     1     -10.000   7.009  67.730  1.00  0.00    -0.186 A  
BRANCH  23  26
HETATM   26  N   UNL     1      -8.148   5.893  68.828  1.00  0.00    -0.102 N  
HETATM   27  H   UNL     1      -8.083   5.039  68.274  1.00  0.00     0.000 HD 
BRANCH  26  28
HETATM   28  S   UNL     1      -7.572   5.950  70.415  1.00  0.00    -0.093 S  
HETATM   29  O   UNL     1      -7.548   4.624  70.985  1.00  0.00    -0.068 OA 
HETATM   30  C   UNL     1      -8.831   6.918  71.222  1.00  0.00    -0.135 C  
HETATM   31  O   UNL     1      -6.372   6.762  70.355  1.00  0.00    -0.040 OA 
ENDBRANCH  26  28
ENDBRANCH  23  26
ENDBRANCH  19  20
ENDBRANCH  18  19
ENDBRANCH  17  18
ENDBRANCH   2  17
TORSDOF 11
ENDMDL
MODEL      129
REMARK 921   NORMALIZED FREE ENERGY PREDICTED BY IDOCK:   -4.53 KCAL/MOL
REMARK 922        TOTAL FREE ENERGY PREDICTED BY IDOCK:   -9.00 KCAL/MOL
REMARK 923 INTER-LIGAND FREE ENERGY PREDICTED BY IDOCK:   -7.53 KCAL/MOL
REMARK 924 INTRA-LIGAND FREE ENERGY PREDICTED BY IDOCK:   -1.47 KCAL/MOL
REMARK 927      BINDING AFFINITY PREDICTED BY RF-SCORE:    0.00 PKD
ROOT
HETATM    1  C   UNL     1      -7.056  17.582  66.474  1.00  0.00    -0.254 C  
HETATM    2  N   UNL     1      -6.786  17.067  67.820  1.00  0.00    -0.144 NA 
ENDROOT
BRANCH   2   3
HETATM    3  C   UNL     1      -6.618  15.598  67.815  1.00  0.00    -0.161 C  
BRANCH   3   4
HETATM    4  C   UNL     1      -7.736  14.789  67.118  1.00  0.00    -0.149 C  
BRANCH   4   5
HETATM    5  C   UNL     1      -7.863  13.365  67.609  1.00  0.00    -0.174 A  
HETATM    6  C   UNL     1      -8.044  10.699  68.456  1.00  0.00    -0.125 A  
HETATM    7  C   UNL     1      -8.782  12.488  67.013  1.00  0.00    -0.205 A  
HETATM    8  C   UNL     1      -7.064  12.896  68.660  1.00  0.00    -0.103 A  
HETATM    9  C   UNL     1      -8.874  11.159  67.436  1.00  0.00    -0.139 A  
HETATM   10  C   UNL     1      -7.154  11.568  69.082  1.00  0.00    -0.105 A  
BRANCH   6  11
HETATM   11  N   UNL     1      -8.113   9.346  68.894  1.00  0.00    -0.101 N  
HETATM   12  H   UNL     1      -7.705   8.591  68.343  1.00  0.00     0.000 HD 
BRANCH  11  13
HETATM   13  S   UNL     1      -8.895   9.037  70.360  1.00  0.00    -0.221 S  
HETATM   14  O   UNL     1     -10.103   9.836  70.326  1.00  0.00    -0.248 OA 
HETATM   15  O   UNL     1      -7.963   9.140  71.459  1.00  0.00    -0.335 OA 
HETATM   16  C   UNL     1      -9.374   7.336  70.153  1.00  0.00    -0.155 C  
ENDBRANCH  11  13
ENDBRANCH   6  11
ENDBRANCH   4   5
ENDBRANCH   3   4
ENDBRANCH   2   3
BRANCH   2  17
HETATM   17  C   UNL     1      -7.872  17.501  68.729  1.00  0.00    -0.242 C  
BRANCH  17  18
HETATM   18  C   UNL     1      -8.948  18.378  68.069  1.00  0.00    -0.290 C  
BRANCH  18  19
HETATM   19  O   UNL     1     -10.246  17.874  68.407  1.00  0.00    -0.357 OA 
BRANCH  19  20
HETATM   20  C   UNL     1     -10.678  16.797  67.676  1.00  0.00    -0.305 A  
HETATM   21  C   UNL     1     -10.586  16.672  66.287  1.00  0.00    -0.205 A  
HETATM   22  C   UNL     1     -11.251  15.761  68.418  1.00  0.00    -0.362 A  
HETATM   23  C   UNL     1     -11.689  14.525  66.391  1.00  0.00    -0.363 A  
HETATM   24  C   UNL     1     -11.753  14.621  67.780  1.00  0.00    -0.386 A  
HETATM   25  C   UNL     1     -11.090  15.538  65.648  1.00  0.00    -0.235 A  
BRANCH  23  26
HETATM   26  N   UNL     1     -12.204  13.384  65.712  1.00  0.00    -0.437 N  
HETATM   27  H   UNL     1     -12.757  12.682  66.203  1.00  0.00     0.000 HD 
BRANCH  26  28
HETATM   28  S   UNL     1     -11.866  13.233  64.064  1.00  0.00    -0.463 S  
HETATM   29  O   UNL     1     -12.486  14.310  63.327  1.00  0.00    -0.705 OA 
HETATM   30  C   UNL     1     -12.681  11.700  63.666  1.00  0.00    -0.140 C  
HETATM   31  O   UNL     1     -10.437  12.998  63.987  1.00  0.00    -0.418 OA 
ENDBRANCH  26  28
ENDBRANCH  23  26
ENDBRANCH  19  20
ENDBRANCH  18  19
ENDBRANCH  17  18
ENDBRANCH   2  17
TORSDOF 11
ENDMDL
MODEL      130
REMARK 921   NORMALIZED FREE ENERGY PREDICTED BY IDOCK:   -4.52 KCAL/MOL
REMARK 922        TOTAL FREE ENERGY PREDICTED BY IDOCK:   -9.00 KCAL/MOL
REMARK 923 INTER-LIGAND FREE ENERGY PREDICTED BY IDOCK:   -7.49 KCAL/MOL
REMARK 924 INTRA-LIGAND FREE ENERGY PREDICTED BY IDOCK:   -1.50 KCAL/MOL
REMARK 927      BINDING AFFINITY PREDICTED BY RF-SCORE:    0.00 PKD
ROOT
HETATM    1  C   UNL     1      -6.388   4.787  66.793  1.00  0.00    -0.037 C  
HETATM    2  N   UNL     1      -7.714   5.169  67.291  1.00  0.00    -0.092 NA 
ENDROOT
BRANCH   2   3
HETATM    3  C   UNL     1      -8.250   4.164  68.234  1.00  0.00    -0.088 C  
BRANCH   3   4
HETATM    4  C   UNL     1      -8.338   4.600  69.714  1.00  0.00    -0.081 C  
BRANCH   4   5
HETATM    5  C   UNL     1      -9.317   5.725  69.967  1.00  0.00    -0.175 A  
HETATM    6  C   UNL     1     -11.116   7.839  70.355  1.00  0.00    -0.251 A  
HETATM    7  C   UNL     1      -8.861   6.979  70.403  1.00  0.00    -0.155 A  
HETATM    8  C   UNL     1     -10.691   5.537  69.766  1.00  0.00    -0.355 A  
HETATM    9  C   UNL     1      -9.758   8.032  70.597  1.00  0.00    -0.180 A  
HETATM   10  C   UNL     1     -11.587   6.590  69.960  1.00  0.00    -0.455 A  
BRANCH   6  11
HETATM   11  N   UNL     1     -12.045   8.903  70.536  1.00  0.00    -0.474 N  
HETATM   12  H   UNL     1     -12.164   9.627  69.827  1.00  0.00     0.000 HD 
BRANCH  11  13
HETATM   13  S   UNL     1     -12.942   8.923  71.967  1.00  0.00    -0.431 S  
HETATM   14  O   UNL     1     -13.379  10.295  72.128  1.00  0.00    -0.443 OA 
HETATM   15  O   UNL     1     -12.226   8.239  73.020  1.00  0.00    -0.228 OA 
HETATM   16  C   UNL     1     -14.366   7.960  71.505  1.00  0.00    -0.445 C  
ENDBRANCH  11  13
ENDBRANCH   6  11
ENDBRANCH   4   5
ENDBRANCH   3   4
ENDBRANCH   2   3
BRANCH   2  17
HETATM   17  C   UNL     1      -8.616   5.389  66.137  1.00  0.00    -0.126 C  
BRANCH  17  18
HETATM   18  C   UNL     1      -9.534   6.615  66.265  1.00  0.00    -0.074 C  
BRANCH  18  19
HETATM   19  O   UNL     1      -8.873   7.762  65.716  1.00  0.00    -0.160 OA 
BRANCH  19  20
HETATM   20  C   UNL     1      -9.543   8.953  65.837  1.00  0.00    -0.223 A  
HETATM   21  C   UNL     1      -9.673   9.914  64.832  1.00  0.00    -0.332 A  
HETATM   22  C   UNL     1     -10.130   9.186  67.083  1.00  0.00    -0.301 A  
HETATM   23  C   UNL     1     -10.909  11.345  66.336  1.00  0.00    -0.271 A  
HETATM   24  C   UNL     1     -10.818  10.378  67.335  1.00  0.00    -0.344 A  
HETATM   25  C   UNL     1     -10.356  11.107  65.081  1.00  0.00    -0.354 A  
BRANCH  23  26
HETATM   26  N   UNL     1     -11.590  12.574  66.566  1.00  0.00    -0.369 N  
HETATM   27  H   UNL     1     -12.592  12.662  66.397  1.00  0.00     0.000 HD 
BRANCH  26  28
HETATM   28  S   UNL     1     -10.681  13.881  67.130  1.00  0.00    -0.284 S  
HETATM   29  O   UNL     1      -9.336  13.813  66.611  1.00  0.00    -0.269 OA 
HETATM   30  C   UNL     1     -10.654  13.573  68.884  1.00  0.00    -0.165 C  
HETATM   31  O   UNL     1     -11.513  15.048  66.907  1.00  0.00    -0.334 OA 
ENDBRANCH  26  28
ENDBRANCH  23  26
ENDBRANCH  19  20
ENDBRANCH  18  19
ENDBRANCH  17  18
ENDBRANCH   2  17
TORSDOF 11
ENDMDL
MODEL      131
REMARK 921   NORMALIZED FREE ENERGY PREDICTED BY IDOCK:   -4.52 KCAL/MOL
REMARK 922        TOTAL FREE ENERGY PREDICTED BY IDOCK:   -8.99 KCAL/MOL
REMARK 923 INTER-LIGAND FREE ENERGY PREDICTED BY IDOCK:   -7.18 KCAL/MOL
REMARK 924 INTRA-LIGAND FREE ENERGY PREDICTED BY IDOCK:   -1.81 KCAL/MOL
REMARK 927      BINDING AFFINITY PREDICTED BY RF-SCORE:    0.00 PKD
ROOT
HETATM    1  C   UNL     1      -9.228   8.117  73.186  1.00  0.00    -0.266 C  
HETATM    2  N   UNL     1      -9.120   8.820  71.904  1.00  0.00    -0.331 NA 
ENDROOT
BRANCH   2   3
HETATM    3  C   UNL     1     -10.451   9.118  71.334  1.00  0.00    -0.344 C  
BRANCH   3   4
HETATM    4  C   UNL     1     -10.635   8.797  69.833  1.00  0.00    -0.230 C  
BRANCH   4   5
HETATM    5  C   UNL     1     -10.871  10.015  68.968  1.00  0.00    -0.253 A  
HETATM    6  C   UNL     1     -11.389  12.240  67.345  1.00  0.00    -0.325 A  
HETATM    7  C   UNL     1     -10.621   9.965  67.588  1.00  0.00    -0.325 A  
HETATM    8  C   UNL     1     -11.349  11.208  69.527  1.00  0.00    -0.359 A  
HETATM    9  C   UNL     1     -10.878  11.074  66.779  1.00  0.00    -0.307 A  
HETATM   10  C   UNL     1     -11.606  12.317  68.717  1.00  0.00    -0.380 A  
BRANCH   6  11
HETATM   11  N   UNL     1     -11.669  13.378  66.536  1.00  0.00    -0.354 N  
HETATM   12  H   UNL     1     -11.744  14.311  66.943  1.00  0.00     0.000 HD 
BRANCH  11  13
HETATM   13  S   UNL     1     -11.870  13.128  64.877  1.00  0.00    -0.383 S  
HETATM   14  O   UNL     1     -13.155  12.473  64.740  1.00  0.00    -0.853 OA 
HETATM   15  O   UNL     1     -10.674  12.553  64.305  1.00  0.00    -0.318 OA 
HETATM   16  C   UNL     1     -12.057  14.798  64.289  1.00  0.00    -0.394 C  
ENDBRANCH  11  13
ENDBRANCH   6  11
ENDBRANCH   4   5
ENDBRANCH   3   4
ENDBRANCH   2   3
BRANCH   2  17
HETATM   17  C   UNL     1      -8.287   8.013  70.981  1.00  0.00    -0.116 C  
BRANCH  17  18
HETATM   18  C   UNL     1      -7.013   8.717  70.487  1.00  0.00    -0.043 C  
BRANCH  18  19
HETATM   19  O   UNL     1      -7.089   8.896  69.068  1.00  0.00    -0.062 OA 
BRANCH  19  20
HETATM   20  C   UNL     1      -7.022  10.192  68.624  1.00  0.00    -0.062 A  
HETATM   21  C   UNL     1      -7.169  10.602  67.296  1.00  0.00    -0.091 A  
HETATM   22  C   UNL     1      -6.784  11.151  69.612  1.00  0.00    -0.134 A  
HETATM   23  C   UNL     1      -6.781  12.897  67.945  1.00  0.00    -0.123 A  
HETATM   24  C   UNL     1      -6.668  12.504  69.277  1.00  0.00    -0.060 A  
HETATM   25  C   UNL     1      -7.050  11.952  66.959  1.00  0.00    -0.116 A  
BRANCH  23  26
HETATM   26  N   UNL     1      -6.654  14.265  67.570  1.00  0.00    -0.147 N  
HETATM   27  H   UNL     1      -5.754  14.654  67.290  1.00  0.00     0.000 HD 
BRANCH  26  28
HETATM   28  S   UNL     1      -8.046  15.221  67.607  1.00  0.00    -0.172 S  
HETATM   29  O   UNL     1      -8.983  14.776  66.602  1.00  0.00    -0.256 OA 
HETATM   30  C   UNL     1      -7.400  16.817  67.147  1.00  0.00    -0.187 C  
HETATM   31  O   UNL     1      -8.423  15.292  69.005  1.00  0.00    -0.188 OA 
ENDBRANCH  26  28
ENDBRANCH  23  26
ENDBRANCH  19  20
ENDBRANCH  18  19
ENDBRANCH  17  18
ENDBRANCH   2  17
TORSDOF 11
ENDMDL
MODEL      132
REMARK 921   NORMALIZED FREE ENERGY PREDICTED BY IDOCK:   -4.52 KCAL/MOL
REMARK 922        TOTAL FREE ENERGY PREDICTED BY IDOCK:   -8.99 KCAL/MOL
REMARK 923 INTER-LIGAND FREE ENERGY PREDICTED BY IDOCK:   -7.42 KCAL/MOL
REMARK 924 INTRA-LIGAND FREE ENERGY PREDICTED BY IDOCK:   -1.57 KCAL/MOL
REMARK 927      BINDING AFFINITY PREDICTED BY RF-SCORE:    0.00 PKD
ROOT
HETATM    1  C   UNL     1      -5.535   4.528  68.048  1.00  0.00    -0.016 C  
HETATM    2  N   UNL     1      -6.956   4.820  67.834  1.00  0.00    -0.060 NA 
ENDROOT
BRANCH   2   3
HETATM    3  C   UNL     1      -7.721   3.593  67.524  1.00  0.00    -0.078 C  
BRANCH   3   4
HETATM    4  C   UNL     1      -8.779   3.170  68.568  1.00  0.00    -0.143 C  
BRANCH   4   5
HETATM    5  C   UNL     1      -9.656   4.304  69.051  1.00  0.00    -0.240 A  
HETATM    6  C   UNL     1     -11.209   6.455  69.954  1.00  0.00    -0.420 A  
HETATM    7  C   UNL     1      -9.850   4.516  70.424  1.00  0.00    -0.302 A  
HETATM    8  C   UNL     1     -10.282   5.162  68.138  1.00  0.00    -0.177 A  
HETATM    9  C   UNL     1     -10.625   5.588  70.875  1.00  0.00    -0.309 A  
HETATM   10  C   UNL     1     -11.056   6.234  68.588  1.00  0.00    -0.409 A  
BRANCH   6  11
HETATM   11  N   UNL     1     -11.993   7.560  70.392  1.00  0.00    -0.509 N  
HETATM   12  H   UNL     1     -12.990   7.457  70.584  1.00  0.00     0.000 HD 
BRANCH  11  13
HETATM   13  S   UNL     1     -11.213   9.046  70.584  1.00  0.00    -0.274 S  
HETATM   14  O   UNL     1     -11.310   9.701  69.295  1.00  0.00    -0.111 OA 
HETATM   15  O   UNL     1      -9.934   8.863  71.233  1.00  0.00    -0.234 OA 
HETATM   16  C   UNL     1     -12.320   9.885  71.695  1.00  0.00    -0.406 C  
ENDBRANCH  11  13
ENDBRANCH   6  11
ENDBRANCH   4   5
ENDBRANCH   3   4
ENDBRANCH   2   3
BRANCH   2  17
HETATM   17  C   UNL     1      -7.083   5.841  66.768  1.00  0.00    -0.070 C  
BRANCH  17  18
HETATM   18  C   UNL     1      -6.836   7.286  67.231  1.00  0.00    -0.077 C  
BRANCH  18  19
HETATM   19  O   UNL     1      -8.023   7.795  67.852  1.00  0.00    -0.121 OA 
BRANCH  19  20
HETATM   20  C   UNL     1      -8.510   8.969  67.337  1.00  0.00    -0.115 A  
HETATM   21  C   UNL     1      -8.159  10.250  67.769  1.00  0.00    -0.103 A  
HETATM   22  C   UNL     1      -9.431   8.829  66.295  1.00  0.00    -0.300 A  
HETATM   23  C   UNL     1      -9.687  11.226  66.172  1.00  0.00    -0.220 A  
HETATM   24  C   UNL     1     -10.017   9.955  65.707  1.00  0.00    -0.347 A  
HETATM   25  C   UNL     1      -8.746  11.375  67.187  1.00  0.00    -0.155 A  
BRANCH  23  26
HETATM   26  N   UNL     1     -10.278  12.391  65.604  1.00  0.00    -0.258 N  
HETATM   27  H   UNL     1      -9.746  13.004  64.985  1.00  0.00     0.000 HD 
BRANCH  26  28
HETATM   28  S   UNL     1     -11.888  12.721  65.989  1.00  0.00    -0.441 S  
HETATM   29  O   UNL     1     -12.750  12.351  64.890  1.00  0.00    -0.620 OA 
HETATM   30  C   UNL     1     -11.865  14.496  66.148  1.00  0.00    -0.336 C  
HETATM   31  O   UNL     1     -12.085  12.169  67.314  1.00  0.00    -0.565 OA 
ENDBRANCH  26  28
ENDBRANCH  23  26
ENDBRANCH  19  20
ENDBRANCH  18  19
ENDBRANCH  17  18
ENDBRANCH   2  17
TORSDOF 11
ENDMDL
MODEL      133
REMARK 921   NORMALIZED FREE ENERGY PREDICTED BY IDOCK:   -4.48 KCAL/MOL
REMARK 922        TOTAL FREE ENERGY PREDICTED BY IDOCK:   -8.93 KCAL/MOL
REMARK 923 INTER-LIGAND FREE ENERGY PREDICTED BY IDOCK:   -7.97 KCAL/MOL
REMARK 924 INTRA-LIGAND FREE ENERGY PREDICTED BY IDOCK:   -0.95 KCAL/MOL
REMARK 927      BINDING AFFINITY PREDICTED BY RF-SCORE:    0.00 PKD
ROOT
HETATM    1  C   UNL     1      -9.456  10.347  64.400  1.00  0.00    -0.287 C  
HETATM    2  N   UNL     1      -9.604  10.421  65.858  1.00  0.00    -0.193 NA 
ENDROOT
BRANCH   2   3
HETATM    3  C   UNL     1     -11.009  10.663  66.249  1.00  0.00     0.053 C  
BRANCH   3   4
HETATM    4  C   UNL     1     -11.456  12.142  66.298  1.00  0.00    -0.433 C  
BRANCH   4   5
HETATM    5  C   UNL     1     -11.635  12.685  67.699  1.00  0.00    -0.414 A  
HETATM    6  C   UNL     1     -11.880  13.679  70.307  1.00  0.00    -0.266 A  
HETATM    7  C   UNL     1     -11.851  11.813  68.776  1.00  0.00    -0.380 A  
HETATM    8  C   UNL     1     -11.582  14.064  67.943  1.00  0.00    -0.377 A  
HETATM    9  C   UNL     1     -11.974  12.308  70.077  1.00  0.00    -0.379 A  
HETATM   10  C   UNL     1     -11.705  14.559  69.243  1.00  0.00    -0.350 A  
BRANCH   6  11
HETATM   11  N   UNL     1     -11.992  14.203  71.626  1.00  0.00    -0.329 N  
HETATM   12  H   UNL     1     -11.176  14.283  72.234  1.00  0.00     0.000 HD 
BRANCH  11  13
HETATM   13  S   UNL     1     -13.524  14.688  72.148  1.00  0.00    -0.441 S  
HETATM   14  O   UNL     1     -14.139  13.495  72.695  1.00  0.00    -0.762 OA 
HETATM   15  O   UNL     1     -14.183  15.464  71.123  1.00  0.00    -0.493 OA 
HETATM   16  C   UNL     1     -13.112  15.750  73.515  1.00  0.00    -0.548 C  
ENDBRANCH  11  13
ENDBRANCH   6  11
ENDBRANCH   4   5
ENDBRANCH   3   4
ENDBRANCH   2   3
BRANCH   2  17
HETATM   17  C   UNL     1      -8.692  11.465  66.382  1.00  0.00    -0.185 C  
BRANCH  17  18
HETATM   18  C   UNL     1      -8.433  11.389  67.895  1.00  0.00    -0.139 C  
BRANCH  18  19
HETATM   19  O   UNL     1      -7.908  10.096  68.223  1.00  0.00    -0.091 OA 
BRANCH  19  20
HETATM   20  C   UNL     1      -8.595   9.398  69.183  1.00  0.00    -0.140 A  
HETATM   21  C   UNL     1      -8.500   9.609  70.561  1.00  0.00    -0.128 A  
HETATM   22  C   UNL     1      -9.449   8.403  68.703  1.00  0.00    -0.147 A  
HETATM   23  C   UNL     1     -10.051   7.802  70.962  1.00  0.00    -0.185 A  
HETATM   24  C   UNL     1     -10.182   7.605  69.588  1.00  0.00    -0.204 A  
HETATM   25  C   UNL     1      -9.228   8.813  71.447  1.00  0.00    -0.325 A  
BRANCH  23  26
HETATM   26  N   UNL     1     -10.774   6.997  71.889  1.00  0.00    -0.215 N  
HETATM   27  H   UNL     1     -11.695   7.278  72.225  1.00  0.00     0.000 HD 
BRANCH  26  28
HETATM   28  S   UNL     1     -10.052   5.563  72.413  1.00  0.00    -0.185 S  
HETATM   29  O   UNL     1     -10.743   4.425  71.854  1.00  0.00    -0.022 OA 
HETATM   30  C   UNL     1     -10.348   5.630  74.168  1.00  0.00    -0.281 C  
HETATM   31  O   UNL     1      -8.630   5.753  72.204  1.00  0.00    -0.128 OA 
ENDBRANCH  26  28
ENDBRANCH  23  26
ENDBRANCH  19  20
ENDBRANCH  18  19
ENDBRANCH  17  18
ENDBRANCH   2  17
TORSDOF 11
ENDMDL
MODEL      134
REMARK 921   NORMALIZED FREE ENERGY PREDICTED BY IDOCK:   -4.48 KCAL/MOL
REMARK 922        TOTAL FREE ENERGY PREDICTED BY IDOCK:   -8.92 KCAL/MOL
REMARK 923 INTER-LIGAND FREE ENERGY PREDICTED BY IDOCK:   -8.99 KCAL/MOL
REMARK 924 INTRA-LIGAND FREE ENERGY PREDICTED BY IDOCK:    0.07 KCAL/MOL
REMARK 927      BINDING AFFINITY PREDICTED BY RF-SCORE:    0.00 PKD
ROOT
HETATM    1  C   UNL     1     -12.450  12.540  64.759  1.00  0.00    -0.457 C  
HETATM    2  N   UNL     1     -12.115  12.704  66.177  1.00  0.00    -0.579 NA 
ENDROOT
BRANCH   2   3
HETATM    3  C   UNL     1     -11.814  14.115  66.504  1.00  0.00    -0.419 C  
BRANCH   3   4
HETATM    4  C   UNL     1     -10.524  14.364  67.317  1.00  0.00    -0.269 C  
BRANCH   4   5
HETATM    5  C   UNL     1      -9.901  15.722  67.083  1.00  0.00    -0.227 A  
HETATM    6  C   UNL     1      -8.780  18.239  66.569  1.00  0.00    -0.274 A  
HETATM    7  C   UNL     1      -8.643  15.831  66.471  1.00  0.00    -0.343 A  
HETATM    8  C   UNL     1     -10.570  16.892  67.467  1.00  0.00    -0.307 A  
HETATM    9  C   UNL     1      -8.083  17.085  66.216  1.00  0.00    -0.332 A  
HETATM   10  C   UNL     1     -10.011  18.146  67.211  1.00  0.00    -0.336 A  
BRANCH   6  11
HETATM   11  N   UNL     1      -8.232  19.527  66.306  1.00  0.00    -0.334 N  
HETATM   12  H   UNL     1      -8.695  20.179  65.674  1.00  0.00     0.000 HD 
BRANCH  11  13
HETATM   13  S   UNL     1      -6.788  19.935  67.082  1.00  0.00    -0.219 S  
HETATM   14  O   UNL     1      -6.639  18.968  68.151  1.00  0.00    -0.222 OA 
HETATM   15  O   UNL     1      -6.743  21.355  67.348  1.00  0.00    -0.563 OA 
HETATM   16  C   UNL     1      -5.589  19.534  65.829  1.00  0.00    -0.156 C  
ENDBRANCH  11  13
ENDBRANCH   6  11
ENDBRANCH   4   5
ENDBRANCH   3   4
ENDBRANCH   2   3
BRANCH   2  17
HETATM   17  C   UNL     1     -10.989  11.802  66.514  1.00  0.00    -0.295 C  
BRANCH  17  18
HETATM   18  C   UNL     1     -11.294  10.782  67.622  1.00  0.00    -0.252 C  
BRANCH  18  19
HETATM   19  O   UNL     1     -10.374  10.969  68.705  1.00  0.00    -0.178 OA 
BRANCH  19  20
HETATM   20  C   UNL     1     -10.587  10.188  69.812  1.00  0.00    -0.260 A  
HETATM   21  C   UNL     1     -11.837   9.869  70.349  1.00  0.00    -0.310 A  
HETATM   22  C   UNL     1      -9.435   9.689  70.424  1.00  0.00    -0.280 A  
HETATM   23  C   UNL     1     -10.775   8.622  72.124  1.00  0.00    -0.347 A  
HETATM   24  C   UNL     1      -9.525   8.902  71.577  1.00  0.00    -0.347 A  
HETATM   25  C   UNL     1     -11.930   9.087  71.502  1.00  0.00    -0.414 A  
BRANCH  23  26
HETATM   26  N   UNL     1     -10.898   7.836  73.305  1.00  0.00    -0.344 N  
HETATM   27  H   UNL     1     -11.102   8.266  74.207  1.00  0.00     0.000 HD 
BRANCH  26  28
HETATM   28  S   UNL     1     -10.696   6.165  73.161  1.00  0.00    -0.260 S  
HETATM   29  O   UNL     1     -10.740   5.543  74.463  1.00  0.00    -0.259 OA 
HETATM   30  C   UNL     1      -9.040   6.057  72.511  1.00  0.00    -0.135 C  
HETATM   31  O   UNL     1     -11.604   5.761  72.105  1.00  0.00    -0.276 OA 
ENDBRANCH  26  28
ENDBRANCH  23  26
ENDBRANCH  19  20
ENDBRANCH  18  19
ENDBRANCH  17  18
ENDBRANCH   2  17
TORSDOF 11
ENDMDL
MODEL      135
REMARK 921   NORMALIZED FREE ENERGY PREDICTED BY IDOCK:   -4.48 KCAL/MOL
REMARK 922        TOTAL FREE ENERGY PREDICTED BY IDOCK:   -8.92 KCAL/MOL
REMARK 923 INTER-LIGAND FREE ENERGY PREDICTED BY IDOCK:   -7.00 KCAL/MOL
REMARK 924 INTRA-LIGAND FREE ENERGY PREDICTED BY IDOCK:   -1.93 KCAL/MOL
REMARK 927      BINDING AFFINITY PREDICTED BY RF-SCORE:    0.00 PKD
ROOT
HETATM    1  C   UNL     1      -9.782   7.313  73.877  1.00  0.00    -0.277 C  
HETATM    2  N   UNL     1      -9.801   7.422  72.415  1.00  0.00    -0.162 NA 
ENDROOT
BRANCH   2   3
HETATM    3  C   UNL     1     -10.372   6.210  71.788  1.00  0.00    -0.210 C  
BRANCH   3   4
HETATM    4  C   UNL     1     -11.393   6.450  70.653  1.00  0.00    -0.419 C  
BRANCH   4   5
HETATM    5  C   UNL     1     -10.804   6.356  69.263  1.00  0.00    -0.387 A  
HETATM    6  C   UNL     1      -9.647   6.239  66.713  1.00  0.00    -0.153 A  
HETATM    7  C   UNL     1     -11.143   7.300  68.282  1.00  0.00     0.057 A  
HETATM    8  C   UNL     1      -9.906   5.332  68.935  1.00  0.00    -0.230 A  
HETATM    9  C   UNL     1     -10.568   7.242  67.010  1.00  0.00    -0.415 A  
HETATM   10  C   UNL     1      -9.330   5.273  67.664  1.00  0.00    -0.128 A  
BRANCH   6  11
HETATM   11  N   UNL     1      -9.041   6.168  65.426  1.00  0.00    -0.372 N  
HETATM   12  H   UNL     1      -9.403   5.544  64.705  1.00  0.00     0.000 HD 
BRANCH  11  13
HETATM   13  S   UNL     1      -7.701   7.156  65.138  1.00  0.00    -0.124 S  
HETATM   14  O   UNL     1      -6.761   6.326  64.413  1.00  0.00    -0.037 OA 
HETATM   15  O   UNL     1      -7.311   7.842  66.348  1.00  0.00    -0.083 OA 
HETATM   16  C   UNL     1      -8.373   8.334  63.985  1.00  0.00    -0.031 C  
ENDBRANCH  11  13
ENDBRANCH   6  11
ENDBRANCH   4   5
ENDBRANCH   3   4
ENDBRANCH   2   3
BRANCH   2  17
HETATM   17  C   UNL     1      -8.429   7.705  71.935  1.00  0.00    -0.109 C  
BRANCH  17  18
HETATM   18  C   UNL     1      -8.325   8.870  70.937  1.00  0.00    -0.182 C  
BRANCH  18  19
HETATM   19  O   UNL     1      -9.494   9.691  71.044  1.00  0.00    -0.149 OA 
BRANCH  19  20
HETATM   20  C   UNL     1      -9.979  10.196  69.865  1.00  0.00    -0.203 A  
HETATM   21  C   UNL     1      -9.230  10.403  68.704  1.00  0.00    -0.164 A  
HETATM   22  C   UNL     1     -11.339  10.518  69.866  1.00  0.00    -0.380 A  
HETATM   23  C   UNL     1     -11.176  11.302  67.589  1.00  0.00    -0.292 A  
HETATM   24  C   UNL     1     -11.942  11.067  68.729  1.00  0.00    -0.295 A  
HETATM   25  C   UNL     1      -9.829  10.954  67.569  1.00  0.00    -0.192 A  
BRANCH  23  26
HETATM   26  N   UNL     1     -11.757  11.872  66.420  1.00  0.00    -0.258 N  
HETATM   27  H   UNL     1     -12.114  11.284  65.667  1.00  0.00     0.000 HD 
BRANCH  26  28
HETATM   28  S   UNL     1     -11.836  13.557  66.325  1.00  0.00    -0.415 S  
HETATM   29  O   UNL     1     -12.918  13.956  65.455  1.00  0.00    -0.722 OA 
HETATM   30  C   UNL     1     -10.281  13.949  65.550  1.00  0.00    -0.331 C  
HETATM   31  O   UNL     1     -11.768  14.020  67.697  1.00  0.00    -0.335 OA 
ENDBRANCH  26  28
ENDBRANCH  23  26
ENDBRANCH  19  20
ENDBRANCH  18  19
ENDBRANCH  17  18
ENDBRANCH   2  17
TORSDOF 11
ENDMDL
MODEL      136
REMARK 921   NORMALIZED FREE ENERGY PREDICTED BY IDOCK:   -4.47 KCAL/MOL
REMARK 922        TOTAL FREE ENERGY PREDICTED BY IDOCK:   -8.91 KCAL/MOL
REMARK 923 INTER-LIGAND FREE ENERGY PREDICTED BY IDOCK:   -8.14 KCAL/MOL
REMARK 924 INTRA-LIGAND FREE ENERGY PREDICTED BY IDOCK:   -0.77 KCAL/MOL
REMARK 927      BINDING AFFINITY PREDICTED BY RF-SCORE:    0.00 PKD
ROOT
HETATM    1  C   UNL     1     -12.943   8.045  71.670  1.00  0.00    -0.328 C  
HETATM    2  N   UNL     1     -11.533   8.181  71.290  1.00  0.00    -0.261 NA 
ENDROOT
BRANCH   2   3
HETATM    3  C   UNL     1     -11.169   9.594  71.051  1.00  0.00    -0.375 C  
BRANCH   3   4
HETATM    4  C   UNL     1     -12.340  10.553  70.734  1.00  0.00    -0.474 C  
BRANCH   4   5
HETATM    5  C   UNL     1     -12.022  11.584  69.675  1.00  0.00    -0.407 A  
HETATM    6  C   UNL     1     -11.517  13.489  67.682  1.00  0.00    -0.318 A  
HETATM    7  C   UNL     1     -11.631  11.184  68.388  1.00  0.00    -0.376 A  
HETATM    8  C   UNL     1     -12.119  12.953  69.958  1.00  0.00    -0.357 A  
HETATM    9  C   UNL     1     -11.378  12.133  67.395  1.00  0.00    -0.393 A  
HETATM   10  C   UNL     1     -11.867  13.902  68.965  1.00  0.00    -0.397 A  
BRANCH   6  11
HETATM   11  N   UNL     1     -11.275  14.472  66.681  1.00  0.00    -0.337 N  
HETATM   12  H   UNL     1     -10.772  15.333  66.896  1.00  0.00     0.000 HD 
BRANCH  11  13
HETATM   13  S   UNL     1     -11.850  14.160  65.123  1.00  0.00    -0.391 S  
HETATM   14  O   UNL     1     -13.277  13.956  65.274  1.00  0.00    -0.774 OA 
HETATM   15  O   UNL     1     -11.020  13.175  64.468  1.00  0.00    -0.333 OA 
HETATM   16  C   UNL     1     -11.617  15.740  64.338  1.00  0.00    -0.240 C  
ENDBRANCH  11  13
ENDBRANCH   6  11
ENDBRANCH   4   5
ENDBRANCH   3   4
ENDBRANCH   2   3
BRANCH   2  17
HETATM   17  C   UNL     1     -11.269   7.330  70.106  1.00  0.00    -0.239 C  
BRANCH  17  18
HETATM   18  C   UNL     1     -10.051   7.753  69.270  1.00  0.00    -0.199 C  
BRANCH  18  19
HETATM   19  O   UNL     1     -10.435   7.863  67.894  1.00  0.00    -0.217 OA 
BRANCH  19  20
HETATM   20  C   UNL     1      -9.923   6.908  67.053  1.00  0.00    -0.197 A  
HETATM   21  C   UNL     1      -8.658   6.944  66.460  1.00  0.00    -0.129 A  
HETATM   22  C   UNL     1     -10.768   5.825  66.793  1.00  0.00    -0.369 A  
HETATM   23  C   UNL     1      -9.117   4.867  65.315  1.00  0.00    -0.153 A  
HETATM   24  C   UNL     1     -10.367   4.801  65.928  1.00  0.00    -0.303 A  
HETATM   25  C   UNL     1      -8.257   5.925  65.595  1.00  0.00    -0.134 A  
BRANCH  23  26
HETATM   26  N   UNL     1      -8.686   3.847  64.419  1.00  0.00    -0.117 N  
HETATM   27  H   UNL     1      -8.577   4.031  63.422  1.00  0.00     0.000 HD 
BRANCH  26  28
HETATM   28  S   UNL     1      -8.362   2.321  65.066  1.00  0.00    -0.094 S  
HETATM   29  O   UNL     1      -7.891   2.445  66.425  1.00  0.00    -0.074 OA 
HETATM   30  C   UNL     1      -7.026   1.764  64.027  1.00  0.00    -0.032 C  
HETATM   31  O   UNL     1      -9.525   1.516  64.746  1.00  0.00    -0.126 OA 
ENDBRANCH  26  28
ENDBRANCH  23  26
ENDBRANCH  19  20
ENDBRANCH  18  19
ENDBRANCH  17  18
ENDBRANCH   2  17
TORSDOF 11
ENDMDL
MODEL      137
REMARK 921   NORMALIZED FREE ENERGY PREDICTED BY IDOCK:   -4.46 KCAL/MOL
REMARK 922        TOTAL FREE ENERGY PREDICTED BY IDOCK:   -8.89 KCAL/MOL
REMARK 923 INTER-LIGAND FREE ENERGY PREDICTED BY IDOCK:   -8.74 KCAL/MOL
REMARK 924 INTRA-LIGAND FREE ENERGY PREDICTED BY IDOCK:   -0.15 KCAL/MOL
REMARK 927      BINDING AFFINITY PREDICTED BY RF-SCORE:    0.00 PKD
ROOT
HETATM    1  C   UNL     1     -14.197  14.830  72.013  1.00  0.00    -0.536 C  
HETATM    2  N   UNL     1     -12.833  14.654  71.505  1.00  0.00    -0.314 NA 
ENDROOT
BRANCH   2   3
HETATM    3  C   UNL     1     -12.536  15.602  70.409  1.00  0.00    -0.371 C  
BRANCH   3   4
HETATM    4  C   UNL     1     -11.593  15.084  69.299  1.00  0.00    -0.338 C  
BRANCH   4   5
HETATM    5  C   UNL     1     -10.946  16.178  68.480  1.00  0.00    -0.338 A  
HETATM    6  C   UNL     1      -9.666  18.178  66.992  1.00  0.00    -0.307 A  
HETATM    7  C   UNL     1     -10.648  17.419  69.062  1.00  0.00    -0.207 A  
HETATM    8  C   UNL     1     -10.627  15.968  67.131  1.00  0.00    -0.305 A  
HETATM    9  C   UNL     1     -10.011  18.417  68.320  1.00  0.00    -0.394 A  
HETATM   10  C   UNL     1      -9.990  16.965  66.390  1.00  0.00    -0.321 A  
BRANCH   6  11
HETATM   11  N   UNL     1      -9.006  19.178  66.222  1.00  0.00    -0.336 N  
HETATM   12  H   UNL     1      -9.534  19.845  65.658  1.00  0.00     0.000 HD 
BRANCH  11  13
HETATM   13  S   UNL     1      -7.318  19.219  66.274  1.00  0.00    -0.276 S  
HETATM   14  O   UNL     1      -6.890  19.227  64.890  1.00  0.00    -0.430 OA 
HETATM   15  O   UNL     1      -6.819  18.231  67.204  1.00  0.00    -0.189 OA 
HETATM   16  C   UNL     1      -7.025  20.846  66.933  1.00  0.00    -0.287 C  
ENDBRANCH  11  13
ENDBRANCH   6  11
ENDBRANCH   4   5
ENDBRANCH   3   4
ENDBRANCH   2   3
BRANCH   2  17
HETATM   17  C   UNL     1     -12.652  13.245  71.086  1.00  0.00    -0.325 C  
BRANCH  17  18
HETATM   18  C   UNL     1     -13.167  12.205  72.095  1.00  0.00    -0.333 C  
BRANCH  18  19
HETATM   19  O   UNL     1     -13.300  10.936  71.443  1.00  0.00    -0.295 OA 
BRANCH  19  20
HETATM   20  C   UNL     1     -12.314  10.620  70.544  1.00  0.00    -0.359 A  
HETATM   21  C   UNL     1     -12.251  11.065  69.221  1.00  0.00    -0.280 A  
HETATM   22  C   UNL     1     -11.309   9.780  71.029  1.00  0.00    -0.460 A  
HETATM   23  C   UNL     1     -10.232   9.787  68.870  1.00  0.00    -0.200 A  
HETATM   24  C   UNL     1     -10.264   9.365  70.197  1.00  0.00    -0.271 A  
HETATM   25  C   UNL     1     -11.211  10.650  68.387  1.00  0.00    -0.347 A  
BRANCH  23  26
HETATM   26  N   UNL     1      -9.188   9.371  67.994  1.00  0.00    -0.130 N  
HETATM   27  H   UNL     1      -8.227   9.682  68.133  1.00  0.00     0.000 HD 
BRANCH  26  28
HETATM   28  S   UNL     1      -9.598   8.346  66.716  1.00  0.00    -0.241 S  
HETATM   29  O   UNL     1     -10.938   7.839  66.894  1.00  0.00    -0.217 OA 
HETATM   30  C   UNL     1      -8.431   7.018  66.929  1.00  0.00    -0.119 C  
HETATM   31  O   UNL     1      -9.223   9.066  65.514  1.00  0.00    -0.215 OA 
ENDBRANCH  26  28
ENDBRANCH  23  26
ENDBRANCH  19  20
ENDBRANCH  18  19
ENDBRANCH  17  18
ENDBRANCH   2  17
TORSDOF 11
ENDMDL
MODEL      138
REMARK 921   NORMALIZED FREE ENERGY PREDICTED BY IDOCK:   -4.46 KCAL/MOL
REMARK 922        TOTAL FREE ENERGY PREDICTED BY IDOCK:   -8.88 KCAL/MOL
REMARK 923 INTER-LIGAND FREE ENERGY PREDICTED BY IDOCK:   -7.10 KCAL/MOL
REMARK 924 INTRA-LIGAND FREE ENERGY PREDICTED BY IDOCK:   -1.78 KCAL/MOL
REMARK 927      BINDING AFFINITY PREDICTED BY RF-SCORE:    0.00 PKD
ROOT
HETATM    1  C   UNL     1      -6.481   6.043  66.969  1.00  0.00    -0.050 C  
HETATM    2  N   UNL     1      -7.533   6.718  66.201  1.00  0.00    -0.079 NA 
ENDROOT
BRANCH   2   3
HETATM    3  C   UNL     1      -8.877   6.405  66.732  1.00  0.00    -0.124 C  
BRANCH   3   4
HETATM    4  C   UNL     1      -9.130   6.784  68.209  1.00  0.00    -0.124 C  
BRANCH   4   5
HETATM    5  C   UNL     1      -9.358   8.262  68.435  1.00  0.00    -0.136 A  
HETATM    6  C   UNL     1      -9.751  11.016  68.772  1.00  0.00    -0.191 A  
HETATM    7  C   UNL     1      -8.310   9.082  68.879  1.00  0.00    -0.125 A  
HETATM    8  C   UNL     1     -10.614   8.835  68.200  1.00  0.00    -0.203 A  
HETATM    9  C   UNL     1      -8.506  10.455  69.048  1.00  0.00    -0.155 A  
HETATM   10  C   UNL     1     -10.810  10.208  68.368  1.00  0.00    -0.284 A  
BRANCH   6  11
HETATM   11  N   UNL     1      -9.968  12.414  68.928  1.00  0.00    -0.429 N  
HETATM   12  H   UNL     1     -10.633  12.773  69.614  1.00  0.00     0.000 HD 
BRANCH  11  13
HETATM   13  S   UNL     1      -9.086  13.458  67.934  1.00  0.00    -0.217 S  
HETATM   14  O   UNL     1      -8.841  12.714  66.716  1.00  0.00    -0.211 OA 
HETATM   15  O   UNL     1      -7.999  14.058  68.673  1.00  0.00    -0.138 OA 
HETATM   16  C   UNL     1     -10.302  14.704  67.564  1.00  0.00    -0.234 C  
ENDBRANCH  11  13
ENDBRANCH   6  11
ENDBRANCH   4   5
ENDBRANCH   3   4
ENDBRANCH   2   3
BRANCH   2  17
HETATM   17  C   UNL     1      -7.397   6.349  64.772  1.00  0.00    -0.076 C  
BRANCH  17  18
HETATM   18  C   UNL     1      -6.694   7.403  63.903  1.00  0.00    -0.052 C  
BRANCH  18  19
HETATM   19  O   UNL     1      -6.870   8.698  64.490  1.00  0.00    -0.069 OA 
BRANCH  19  20
HETATM   20  C   UNL     1      -7.972   9.399  64.074  1.00  0.00    -0.142 A  
HETATM   21  C   UNL     1      -8.189   9.872  62.777  1.00  0.00    -0.148 A  
HETATM   22  C   UNL     1      -8.935   9.639  65.057  1.00  0.00    -0.255 A  
HETATM   23  C   UNL     1     -10.279  10.866  63.471  1.00  0.00    -0.317 A  
HETATM   24  C   UNL     1     -10.092  10.367  64.759  1.00  0.00    -0.387 A  
HETATM   25  C   UNL     1      -9.341  10.603  62.478  1.00  0.00    -0.316 A  
BRANCH  23  26
HETATM   26  N   UNL     1     -11.439  11.623  63.140  1.00  0.00    -0.841 N  
HETATM   27  H   UNL     1     -12.142  11.258  62.497  1.00  0.00     0.000 HD 
BRANCH  26  28
HETATM   28  S   UNL     1     -11.612  13.146  63.850  1.00  0.00    -0.420 S  
HETATM   29  O   UNL     1     -10.319  13.769  64.011  1.00  0.00    -0.151 OA 
HETATM   30  C   UNL     1     -12.268  12.726  65.452  1.00  0.00    -0.478 C  
HETATM   31  O   UNL     1     -12.670  13.796  63.103  1.00  0.00    -0.743 OA 
ENDBRANCH  26  28
ENDBRANCH  23  26
ENDBRANCH  19  20
ENDBRANCH  18  19
ENDBRANCH  17  18
ENDBRANCH   2  17
TORSDOF 11
ENDMDL
MODEL      139
REMARK 921   NORMALIZED FREE ENERGY PREDICTED BY IDOCK:   -4.45 KCAL/MOL
REMARK 922        TOTAL FREE ENERGY PREDICTED BY IDOCK:   -8.87 KCAL/MOL
REMARK 923 INTER-LIGAND FREE ENERGY PREDICTED BY IDOCK:   -7.81 KCAL/MOL
REMARK 924 INTRA-LIGAND FREE ENERGY PREDICTED BY IDOCK:   -1.05 KCAL/MOL
REMARK 927      BINDING AFFINITY PREDICTED BY RF-SCORE:    0.00 PKD
ROOT
HETATM    1  C   UNL     1     -13.742  15.456  72.129  1.00  0.00    -0.515 C  
HETATM    2  N   UNL     1     -12.920  14.797  71.109  1.00  0.00    -0.337 NA 
ENDROOT
BRANCH   2   3
HETATM    3  C   UNL     1     -12.383  13.508  71.595  1.00  0.00    -0.008 C  
BRANCH   3   4
HETATM    4  C   UNL     1     -13.189  12.247  71.208  1.00  0.00    -0.071 C  
BRANCH   4   5
HETATM    5  C   UNL     1     -12.371  10.976  71.185  1.00  0.00    -0.465 A  
HETATM    6  C   UNL     1     -10.915   8.583  71.088  1.00  0.00    -0.253 A  
HETATM    7  C   UNL     1     -12.664   9.927  72.069  1.00  0.00    -0.456 A  
HETATM    8  C   UNL     1     -11.314  10.822  70.278  1.00  0.00    -0.374 A  
HETATM    9  C   UNL     1     -11.938   8.734  72.022  1.00  0.00    -0.446 A  
HETATM   10  C   UNL     1     -10.588   9.630  70.231  1.00  0.00    -0.333 A  
BRANCH   6  11
HETATM   11  N   UNL     1     -10.171   7.371  71.016  1.00  0.00    -0.192 N  
HETATM   12  H   UNL     1      -9.727   6.973  71.844  1.00  0.00     0.000 HD 
BRANCH  11  13
HETATM   13  S   UNL     1     -10.048   6.617  69.509  1.00  0.00    -0.183 S  
HETATM   14  O   UNL     1      -9.163   7.458  68.729  1.00  0.00    -0.145 OA 
HETATM   15  O   UNL     1     -11.359   6.256  69.018  1.00  0.00    -0.390 OA 
HETATM   16  C   UNL     1      -9.150   5.139  69.926  1.00  0.00    -0.123 C  
ENDBRANCH  11  13
ENDBRANCH   6  11
ENDBRANCH   4   5
ENDBRANCH   3   4
ENDBRANCH   2   3
BRANCH   2  17
HETATM   17  C   UNL     1     -11.845  15.725  70.684  1.00  0.00    -0.385 C  
BRANCH  17  18
HETATM   18  C   UNL     1     -11.480  15.642  69.194  1.00  0.00    -0.359 C  
BRANCH  18  19
HETATM   19  O   UNL     1     -10.219  14.976  69.050  1.00  0.00    -0.227 OA 
BRANCH  19  20
HETATM   20  C   UNL     1     -10.174  13.979  68.109  1.00  0.00    -0.243 A  
HETATM   21  C   UNL     1      -9.039  13.237  67.770  1.00  0.00    -0.202 A  
HETATM   22  C   UNL     1     -11.381  13.714  67.459  1.00  0.00    -0.335 A  
HETATM   23  C   UNL     1     -10.307  12.029  66.105  1.00  0.00    -0.224 A  
HETATM   24  C   UNL     1     -11.453  12.737  66.460  1.00  0.00    -0.409 A  
HETATM   25  C   UNL     1      -9.107  12.264  66.771  1.00  0.00    -0.211 A  
BRANCH  23  26
HETATM   26  N   UNL     1     -10.344  11.038  65.083  1.00  0.00    -0.281 N  
HETATM   27  H   UNL     1     -10.409  10.046  65.312  1.00  0.00     0.000 HD 
BRANCH  26  28
HETATM   28  S   UNL     1     -10.279  11.562  63.479  1.00  0.00    -0.450 S  
HETATM   29  O   UNL     1      -9.372  12.680  63.357  1.00  0.00     0.249 OA 
HETATM   30  C   UNL     1     -11.948  12.125  63.214  1.00  0.00    -0.390 C  
HETATM   31  O   UNL     1     -10.096  10.359  62.692  1.00  0.00    -0.058 OA 
ENDBRANCH  26  28
ENDBRANCH  23  26
ENDBRANCH  19  20
ENDBRANCH  18  19
ENDBRANCH  17  18
ENDBRANCH   2  17
TORSDOF 11
ENDMDL
MODEL      140
REMARK 921   NORMALIZED FREE ENERGY PREDICTED BY IDOCK:   -4.44 KCAL/MOL
REMARK 922        TOTAL FREE ENERGY PREDICTED BY IDOCK:   -8.86 KCAL/MOL
REMARK 923 INTER-LIGAND FREE ENERGY PREDICTED BY IDOCK:   -8.30 KCAL/MOL
REMARK 924 INTRA-LIGAND FREE ENERGY PREDICTED BY IDOCK:   -0.56 KCAL/MOL
REMARK 927      BINDING AFFINITY PREDICTED BY RF-SCORE:    0.00 PKD
ROOT
HETATM    1  C   UNL     1     -11.781  12.616  68.637  1.00  0.00    -0.325 C  
HETATM    2  N   UNL     1     -11.681  11.815  67.412  1.00  0.00    -0.588 NA 
ENDROOT
BRANCH   2   3
HETATM    3  C   UNL     1     -10.425  11.036  67.375  1.00  0.00    -0.218 C  
BRANCH   3   4
HETATM    4  C   UNL     1     -10.570   9.527  67.072  1.00  0.00    -0.271 C  
BRANCH   4   5
HETATM    5  C   UNL     1     -10.341   8.633  68.270  1.00  0.00    -0.252 A  
HETATM    6  C   UNL     1      -9.833   6.959  70.460  1.00  0.00    -0.179 A  
HETATM    7  C   UNL     1     -10.560   7.250  68.176  1.00  0.00    -0.228 A  
HETATM    8  C   UNL     1      -9.900   9.168  69.487  1.00  0.00    -0.182 A  
HETATM    9  C   UNL     1     -10.308   6.416  69.268  1.00  0.00    -0.248 A  
HETATM   10  C   UNL     1      -9.647   8.334  70.579  1.00  0.00    -0.180 A  
BRANCH   6  11
HETATM   11  N   UNL     1      -9.559   6.125  71.581  1.00  0.00    -0.152 N  
HETATM   12  H   UNL     1      -8.611   5.809  71.785  1.00  0.00     0.000 HD 
BRANCH  11  13
HETATM   13  S   UNL     1     -10.862   5.677  72.559  1.00  0.00    -0.266 S  
HETATM   14  O   UNL     1     -10.802   4.232  72.641  1.00  0.00    -0.148 OA 
HETATM   15  O   UNL     1     -12.067   6.351  72.132  1.00  0.00    -0.326 OA 
HETATM   16  C   UNL     1     -10.355   6.323  74.138  1.00  0.00    -0.304 C  
ENDBRANCH  11  13
ENDBRANCH   6  11
ENDBRANCH   4   5
ENDBRANCH   3   4
ENDBRANCH   2   3
BRANCH   2  17
HETATM   17  C   UNL     1     -11.816  12.710  66.239  1.00  0.00    -0.410 C  
BRANCH  17  18
HETATM   18  C   UNL     1     -12.185  14.163  66.580  1.00  0.00    -0.418 C  
BRANCH  18  19
HETATM   19  O   UNL     1     -11.290  15.052  65.901  1.00  0.00    -0.338 OA 
BRANCH  19  20
HETATM   20  C   UNL     1     -10.735  16.043  66.670  1.00  0.00    -0.247 A  
HETATM   21  C   UNL     1     -10.900  16.186  68.050  1.00  0.00    -0.333 A  
HETATM   22  C   UNL     1      -9.946  16.965  65.978  1.00  0.00    -0.313 A  
HETATM   23  C   UNL     1      -9.551  18.190  68.020  1.00  0.00    -0.300 A  
HETATM   24  C   UNL     1      -9.348  18.037  66.650  1.00  0.00    -0.297 A  
HETATM   25  C   UNL     1     -10.308  17.257  68.723  1.00  0.00    -0.358 A  
BRANCH  23  26
HETATM   26  N   UNL     1      -8.967  19.278  68.730  1.00  0.00    -0.370 N  
HETATM   27  H   UNL     1      -9.547  19.988  69.178  1.00  0.00     0.000 HD 
BRANCH  26  28
HETATM   28  S   UNL     1      -7.282  19.353  68.805  1.00  0.00    -0.364 S  
HETATM   29  O   UNL     1      -6.746  19.798  67.540  1.00  0.00    -0.210 OA 
HETATM   30  C   UNL     1      -6.855  17.642  69.058  1.00  0.00    -0.240 C  
HETATM   31  O   UNL     1      -6.986  20.060  70.035  1.00  0.00    -0.240 OA 
ENDBRANCH  26  28
ENDBRANCH  23  26
ENDBRANCH  19  20
ENDBRANCH  18  19
ENDBRANCH  17  18
ENDBRANCH   2  17
TORSDOF 11
ENDMDL
MODEL      141
REMARK 921   NORMALIZED FREE ENERGY PREDICTED BY IDOCK:   -4.42 KCAL/MOL
REMARK 922        TOTAL FREE ENERGY PREDICTED BY IDOCK:   -8.82 KCAL/MOL
REMARK 923 INTER-LIGAND FREE ENERGY PREDICTED BY IDOCK:   -8.10 KCAL/MOL
REMARK 924 INTRA-LIGAND FREE ENERGY PREDICTED BY IDOCK:   -0.72 KCAL/MOL
REMARK 927      BINDING AFFINITY PREDICTED BY RF-SCORE:    0.00 PKD
ROOT
HETATM    1  C   UNL     1      -9.375  10.405  64.394  1.00  0.00    -0.272 C  
HETATM    2  N   UNL     1      -9.295  10.624  65.842  1.00  0.00    -0.181 NA 
ENDROOT
BRANCH   2   3
HETATM    3  C   UNL     1     -10.633  10.587  66.471  1.00  0.00    -0.174 C  
BRANCH   3   4
HETATM    4  C   UNL     1     -11.445  11.901  66.417  1.00  0.00    -0.371 C  
BRANCH   4   5
HETATM    5  C   UNL     1     -11.667  12.544  67.768  1.00  0.00    -0.419 A  
HETATM    6  C   UNL     1     -11.991  13.743  70.279  1.00  0.00    -0.326 A  
HETATM    7  C   UNL     1     -11.626  11.771  68.937  1.00  0.00    -0.370 A  
HETATM    8  C   UNL     1     -11.910  13.920  67.873  1.00  0.00    -0.413 A  
HETATM    9  C   UNL     1     -11.789  12.368  70.190  1.00  0.00    -0.341 A  
HETATM   10  C   UNL     1     -12.073  14.517  69.125  1.00  0.00    -0.299 A  
BRANCH   6  11
HETATM   11  N   UNL     1     -12.148  14.373  71.547  1.00  0.00    -0.353 N  
HETATM   12  H   UNL     1     -11.342  14.582  72.137  1.00  0.00     0.000 HD 
BRANCH  11  13
HETATM   13  S   UNL     1     -13.717  14.763  72.038  1.00  0.00    -0.481 S  
HETATM   14  O   UNL     1     -14.303  13.514  72.481  1.00  0.00    -0.713 OA 
HETATM   15  O   UNL     1     -14.369  15.580  71.040  1.00  0.00    -0.462 OA 
HETATM   16  C   UNL     1     -13.399  15.747  73.487  1.00  0.00    -0.385 C  
ENDBRANCH  11  13
ENDBRANCH   6  11
ENDBRANCH   4   5
ENDBRANCH   3   4
ENDBRANCH   2   3
BRANCH   2  17
HETATM   17  C   UNL     1      -8.594  11.904  66.097  1.00  0.00     0.052 C  
BRANCH  17  18
HETATM   18  C   UNL     1      -7.640  11.883  67.302  1.00  0.00    -0.154 C  
BRANCH  18  19
HETATM   19  O   UNL     1      -8.071  12.851  68.266  1.00  0.00    -0.143 OA 
BRANCH  19  20
HETATM   20  C   UNL     1      -7.510  14.098  68.154  1.00  0.00    -0.129 A  
HETATM   21  C   UNL     1      -6.501  14.609  68.974  1.00  0.00    -0.097 A  
HETATM   22  C   UNL     1      -8.018  14.891  67.122  1.00  0.00    -0.227 A  
HETATM   23  C   UNL     1      -6.563  16.704  67.773  1.00  0.00    -0.141 A  
HETATM   24  C   UNL     1      -7.543  16.192  66.925  1.00  0.00    -0.275 A  
HETATM   25  C   UNL     1      -6.028  15.908  68.782  1.00  0.00    -0.101 A  
BRANCH  23  26
HETATM   26  N   UNL     1      -6.069  18.029  67.607  1.00  0.00    -0.156 N  
HETATM   27  H   UNL     1      -5.201  18.210  67.103  1.00  0.00     0.000 HD 
BRANCH  26  28
HETATM   28  S   UNL     1      -6.971  19.292  68.273  1.00  0.00    -0.282 S  
HETATM   29  O   UNL     1      -6.946  20.439  67.397  1.00  0.00    -0.255 OA 
HETATM   30  C   UNL     1      -6.046  19.657  69.751  1.00  0.00    -0.305 C  
HETATM   31  O   UNL     1      -8.225  18.690  68.683  1.00  0.00    -0.328 OA 
ENDBRANCH  26  28
ENDBRANCH  23  26
ENDBRANCH  19  20
ENDBRANCH  18  19
ENDBRANCH  17  18
ENDBRANCH   2  17
TORSDOF 11
ENDMDL
MODEL      142
REMARK 921   NORMALIZED FREE ENERGY PREDICTED BY IDOCK:   -4.39 KCAL/MOL
REMARK 922        TOTAL FREE ENERGY PREDICTED BY IDOCK:   -8.78 KCAL/MOL
REMARK 923 INTER-LIGAND FREE ENERGY PREDICTED BY IDOCK:   -8.39 KCAL/MOL
REMARK 924 INTRA-LIGAND FREE ENERGY PREDICTED BY IDOCK:   -0.39 KCAL/MOL
REMARK 927      BINDING AFFINITY PREDICTED BY RF-SCORE:    0.00 PKD
ROOT
HETATM    1  C   UNL     1     -12.243  13.744  66.915  1.00  0.00    -0.366 C  
HETATM    2  N   UNL     1     -11.930  13.798  68.347  1.00  0.00    -0.368 NA 
ENDROOT
BRANCH   2   3
HETATM    3  C   UNL     1     -11.661  15.183  68.791  1.00  0.00    -0.349 C  
BRANCH   3   4
HETATM    4  C   UNL     1     -11.522  16.240  67.672  1.00  0.00     0.095 C  
BRANCH   4   5
HETATM    5  C   UNL     1     -10.389  17.219  67.886  1.00  0.00    -0.360 A  
HETATM    6  C   UNL     1      -8.268  19.024  68.198  1.00  0.00    -0.314 A  
HETATM    7  C   UNL     1      -9.094  16.757  68.165  1.00  0.00    -0.227 A  
HETATM    8  C   UNL     1     -10.612  18.600  67.804  1.00  0.00    -0.433 A  
HETATM    9  C   UNL     1      -8.037  17.656  68.322  1.00  0.00    -0.278 A  
HETATM   10  C   UNL     1      -9.555  19.499  67.960  1.00  0.00    -0.450 A  
BRANCH   6  11
HETATM   11  N   UNL     1      -7.202  19.957  68.343  1.00  0.00    -0.306 N  
HETATM   12  H   UNL     1      -7.003  20.397  69.242  1.00  0.00     0.000 HD 
BRANCH  11  13
HETATM   13  S   UNL     1      -6.279  20.309  66.972  1.00  0.00    -0.199 S  
HETATM   14  O   UNL     1      -5.335  21.323  67.395  1.00  0.00    -0.247 OA 
HETATM   15  O   UNL     1      -7.136  20.518  65.828  1.00  0.00    -0.225 OA 
HETATM   16  C   UNL     1      -5.373  18.792  66.759  1.00  0.00    -0.136 C  
ENDBRANCH  11  13
ENDBRANCH   6  11
ENDBRANCH   4   5
ENDBRANCH   3   4
ENDBRANCH   2   3
BRANCH   2  17
HETATM   17  C   UNL     1     -10.792  12.892  68.626  1.00  0.00    -0.258 C  
BRANCH  17  18
HETATM   18  C   UNL     1     -11.188  11.436  68.919  1.00  0.00    -0.248 C  
BRANCH  18  19
HETATM   19  O   UNL     1     -11.890  11.378  70.168  1.00  0.00    -0.312 OA 
BRANCH  19  20
HETATM   20  C   UNL     1     -12.008  10.132  70.729  1.00  0.00    -0.348 A  
HETATM   21  C   UNL     1     -12.894   9.786  71.752  1.00  0.00    -0.530 A  
HETATM   22  C   UNL     1     -11.154   9.157  70.207  1.00  0.00    -0.272 A  
HETATM   23  C   UNL     1     -12.027   7.531  71.763  1.00  0.00    -0.301 A  
HETATM   24  C   UNL     1     -11.164   7.854  70.718  1.00  0.00    -0.274 A  
HETATM   25  C   UNL     1     -12.903   8.488  72.266  1.00  0.00    -0.404 A  
BRANCH  23  26
HETATM   26  N   UNL     1     -12.050   6.218  72.313  1.00  0.00    -0.501 N  
HETATM   27  H   UNL     1     -12.923   5.695  72.396  1.00  0.00     0.000 HD 
BRANCH  26  28
HETATM   28  S   UNL     1     -10.584   5.555  72.825  1.00  0.00    -0.242 S  
HETATM   29  O   UNL     1      -9.885   4.967  71.707  1.00  0.00    -0.166 OA 
HETATM   30  C   UNL     1     -11.134   4.263  73.922  1.00  0.00    -0.182 C  
HETATM   31  O   UNL     1      -9.965   6.582  73.640  1.00  0.00    -0.186 OA 
ENDBRANCH  26  28
ENDBRANCH  23  26
ENDBRANCH  19  20
ENDBRANCH  18  19
ENDBRANCH  17  18
ENDBRANCH   2  17
TORSDOF 11
ENDMDL
MODEL      143
REMARK 921   NORMALIZED FREE ENERGY PREDICTED BY IDOCK:   -4.39 KCAL/MOL
REMARK 922        TOTAL FREE ENERGY PREDICTED BY IDOCK:   -8.77 KCAL/MOL
REMARK 923 INTER-LIGAND FREE ENERGY PREDICTED BY IDOCK:   -7.92 KCAL/MOL
REMARK 924 INTRA-LIGAND FREE ENERGY PREDICTED BY IDOCK:   -0.85 KCAL/MOL
REMARK 927      BINDING AFFINITY PREDICTED BY RF-SCORE:    0.00 PKD
ROOT
HETATM    1  C   UNL     1      -6.213   4.707  65.914  1.00  0.00    -0.035 C  
HETATM    2  N   UNL     1      -7.426   5.355  66.423  1.00  0.00    -0.086 NA 
ENDROOT
BRANCH   2   3
HETATM    3  C   UNL     1      -8.438   4.361  66.840  1.00  0.00    -0.104 C  
BRANCH   3   4
HETATM    4  C   UNL     1      -8.576   4.129  68.362  1.00  0.00    -0.111 C  
BRANCH   4   5
HETATM    5  C   UNL     1      -9.625   4.994  69.024  1.00  0.00    -0.214 A  
HETATM    6  C   UNL     1     -11.630   6.534  70.233  1.00  0.00    -0.409 A  
HETATM    7  C   UNL     1     -10.408   5.872  68.260  1.00  0.00    -0.263 A  
HETATM    8  C   UNL     1      -9.837   4.927  70.408  1.00  0.00    -0.302 A  
HETATM    9  C   UNL     1     -11.406   6.641  68.862  1.00  0.00    -0.209 A  
HETATM   10  C   UNL     1     -10.836   5.695  71.010  1.00  0.00    -0.289 A  
BRANCH   6  11
HETATM   11  N   UNL     1     -12.651   7.300  70.865  1.00  0.00    -0.576 N  
HETATM   12  H   UNL     1     -13.638   7.093  70.712  1.00  0.00     0.000 HD 
BRANCH  11  13
HETATM   13  S   UNL     1     -12.167   8.564  71.876  1.00  0.00    -0.379 S  
HETATM   14  O   UNL     1     -11.307   7.954  72.870  1.00  0.00    -0.406 OA 
HETATM   15  O   UNL     1     -13.307   9.363  72.265  1.00  0.00    -0.430 OA 
HETATM   16  C   UNL     1     -11.131   9.513  70.784  1.00  0.00    -0.323 C  
ENDBRANCH  11  13
ENDBRANCH   6  11
ENDBRANCH   4   5
ENDBRANCH   3   4
ENDBRANCH   2   3
BRANCH   2  17
HETATM   17  C   UNL     1      -7.947   6.282  65.391  1.00  0.00    -0.118 C  
BRANCH  17  18
HETATM   18  C   UNL     1      -8.028   7.752  65.831  1.00  0.00    -0.107 C  
BRANCH  18  19
HETATM   19  O   UNL     1      -8.871   8.474  64.925  1.00  0.00    -0.118 OA 
BRANCH  19  20
HETATM   20  C   UNL     1      -9.626   9.475  65.479  1.00  0.00    -0.279 A  
HETATM   21  C   UNL     1     -10.181   9.456  66.761  1.00  0.00    -0.320 A  
HETATM   22  C   UNL     1      -9.834  10.590  64.662  1.00  0.00    -0.404 A  
HETATM   23  C   UNL     1     -11.189  11.617  66.374  1.00  0.00    -0.287 A  
HETATM   24  C   UNL     1     -10.611  11.664  65.108  1.00  0.00    -0.343 A  
HETATM   25  C   UNL     1     -10.960  10.526  67.207  1.00  0.00    -0.325 A  
BRANCH  23  26
HETATM   26  N   UNL     1     -11.997  12.689  66.851  1.00  0.00    -0.346 N  
HETATM   27  H   UNL     1     -13.011  12.674  66.745  1.00  0.00     0.000 HD 
BRANCH  26  28
HETATM   28  S   UNL     1     -11.216  13.987  67.599  1.00  0.00    -0.311 S  
HETATM   29  O   UNL     1     -12.047  14.531  68.648  1.00  0.00    -0.296 OA 
HETATM   30  C   UNL     1     -11.107  15.162  66.264  1.00  0.00    -0.309 C  
HETATM   31  O   UNL     1      -9.873  13.517  67.874  1.00  0.00    -0.221 OA 
ENDBRANCH  26  28
ENDBRANCH  23  26
ENDBRANCH  19  20
ENDBRANCH  18  19
ENDBRANCH  17  18
ENDBRANCH   2  17
TORSDOF 11
ENDMDL
MODEL      144
REMARK 921   NORMALIZED FREE ENERGY PREDICTED BY IDOCK:   -4.39 KCAL/MOL
REMARK 922        TOTAL FREE ENERGY PREDICTED BY IDOCK:   -8.77 KCAL/MOL
REMARK 923 INTER-LIGAND FREE ENERGY PREDICTED BY IDOCK:   -7.58 KCAL/MOL
REMARK 924 INTRA-LIGAND FREE ENERGY PREDICTED BY IDOCK:   -1.20 KCAL/MOL
REMARK 927      BINDING AFFINITY PREDICTED BY RF-SCORE:    0.00 PKD
ROOT
HETATM    1  C   UNL     1     -12.960   9.152  72.108  1.00  0.00    -0.425 C  
HETATM    2  N   UNL     1     -11.521   8.918  71.946  1.00  0.00    -0.355 NA 
ENDROOT
BRANCH   2   3
HETATM    3  C   UNL     1     -11.038   9.397  70.633  1.00  0.00    -0.289 C  
BRANCH   3   4
HETATM    4  C   UNL     1     -11.903  10.477  69.944  1.00  0.00    -0.358 C  
BRANCH   4   5
HETATM    5  C   UNL     1     -11.124  11.404  69.037  1.00  0.00    -0.300 A  
HETATM    6  C   UNL     1      -9.654  13.166  67.430  1.00  0.00    -0.219 A  
HETATM    7  C   UNL     1     -11.688  12.613  68.604  1.00  0.00    -0.364 A  
HETATM    8  C   UNL     1      -9.827  11.075  68.622  1.00  0.00    -0.197 A  
HETATM    9  C   UNL     1     -10.957  13.492  67.801  1.00  0.00    -0.284 A  
HETATM   10  C   UNL     1      -9.095  11.953  67.820  1.00  0.00    -0.180 A  
BRANCH   6  11
HETATM   11  N   UNL     1      -8.887  14.053  66.622  1.00  0.00    -0.435 N  
HETATM   12  H   UNL     1      -9.055  14.134  65.619  1.00  0.00     0.000 HD 
BRANCH  11  13
HETATM   13  S   UNL     1      -7.687  14.966  67.384  1.00  0.00    -0.201 S  
HETATM   14  O   UNL     1      -7.688  16.246  66.706  1.00  0.00    -0.215 OA 
HETATM   15  O   UNL     1      -6.473  14.193  67.515  1.00  0.00    -0.264 OA 
HETATM   16  C   UNL     1      -8.402  15.214  68.995  1.00  0.00    -0.209 C  
ENDBRANCH  11  13
ENDBRANCH   6  11
ENDBRANCH   4   5
ENDBRANCH   3   4
ENDBRANCH   2   3
BRANCH   2  17
HETATM   17  C   UNL     1     -11.241   7.479  72.153  1.00  0.00    -0.270 C  
BRANCH  17  18
HETATM   18  C   UNL     1     -11.894   6.544  71.123  1.00  0.00    -0.325 C  
BRANCH  18  19
HETATM   19  O   UNL     1     -10.914   5.625  70.625  1.00  0.00    -0.262 OA 
BRANCH  19  20
HETATM   20  C   UNL     1     -10.366   5.938  69.408  1.00  0.00    -0.247 A  
HETATM   21  C   UNL     1      -9.015   5.817  69.072  1.00  0.00    -0.117 A  
HETATM   22  C   UNL     1     -11.266   6.412  68.450  1.00  0.00    -0.297 A  
HETATM   23  C   UNL     1      -9.466   6.698  66.869  1.00  0.00    -0.154 A  
HETATM   24  C   UNL     1     -10.821   6.788  67.178  1.00  0.00    -0.462 A  
HETATM   25  C   UNL     1      -8.567   6.196  67.805  1.00  0.00    -0.114 A  
BRANCH  23  26
HETATM   26  N   UNL     1      -8.980   7.087  65.587  1.00  0.00    -0.364 N  
HETATM   27  H   UNL     1      -8.927   6.419  64.818  1.00  0.00     0.000 HD 
BRANCH  26  28
HETATM   28  S   UNL     1      -8.494   8.692  65.386  1.00  0.00    -0.178 S  
HETATM   29  O   UNL     1      -9.642   9.534  65.147  1.00  0.00    -0.280 OA 
HETATM   30  C   UNL     1      -7.517   8.590  63.900  1.00  0.00    -0.118 C  
HETATM   31  O   UNL     1      -7.586   8.956  66.485  1.00  0.00    -0.090 OA 
ENDBRANCH  26  28
ENDBRANCH  23  26
ENDBRANCH  19  20
ENDBRANCH  18  19
ENDBRANCH  17  18
ENDBRANCH   2  17
TORSDOF 11
ENDMDL
MODEL      145
REMARK 921   NORMALIZED FREE ENERGY PREDICTED BY IDOCK:   -4.37 KCAL/MOL
REMARK 922        TOTAL FREE ENERGY PREDICTED BY IDOCK:   -8.75 KCAL/MOL
REMARK 923 INTER-LIGAND FREE ENERGY PREDICTED BY IDOCK:   -6.81 KCAL/MOL
REMARK 924 INTRA-LIGAND FREE ENERGY PREDICTED BY IDOCK:   -1.94 KCAL/MOL
REMARK 927      BINDING AFFINITY PREDICTED BY RF-SCORE:    0.00 PKD
ROOT
HETATM    1  C   UNL     1      -5.823   4.529  66.463  1.00  0.00    -0.022 C  
HETATM    2  N   UNL     1      -7.199   4.971  66.213  1.00  0.00    -0.075 NA 
ENDROOT
BRANCH   2   3
HETATM    3  C   UNL     1      -8.166   3.869  66.407  1.00  0.00    -0.104 C  
BRANCH   3   4
HETATM    4  C   UNL     1      -8.736   3.709  67.835  1.00  0.00    -0.127 C  
BRANCH   4   5
HETATM    5  C   UNL     1      -9.375   4.964  68.388  1.00  0.00    -0.172 A  
HETATM    6  C   UNL     1     -10.617   7.237  69.456  1.00  0.00    -0.234 A  
HETATM    7  C   UNL     1     -10.506   5.517  67.767  1.00  0.00    -0.245 A  
HETATM    8  C   UNL     1      -8.855   5.589  69.529  1.00  0.00    -0.115 A  
HETATM    9  C   UNL     1     -11.124   6.651  68.299  1.00  0.00    -0.283 A  
HETATM   10  C   UNL     1      -9.474   6.722  70.060  1.00  0.00    -0.158 A  
BRANCH   6  11
HETATM   11  N   UNL     1     -11.239   8.387  70.021  1.00  0.00    -0.435 N  
HETATM   12  H   UNL     1     -11.193   9.295  69.557  1.00  0.00     0.000 HD 
BRANCH  11  13
HETATM   13  S   UNL     1     -12.058   8.193  71.486  1.00  0.00    -0.307 S  
HETATM   14  O   UNL     1     -11.101   8.556  72.512  1.00  0.00    -0.355 OA 
HETATM   15  O   UNL     1     -12.739   6.919  71.518  1.00  0.00    -0.370 OA 
HETATM   16  C   UNL     1     -13.262   9.500  71.393  1.00  0.00    -0.372 C  
ENDBRANCH  11  13
ENDBRANCH   6  11
ENDBRANCH   4   5
ENDBRANCH   3   4
ENDBRANCH   2   3
BRANCH   2  17
HETATM   17  C   UNL     1      -7.280   5.549  64.851  1.00  0.00    -0.062 C  
BRANCH  17  18
HETATM   18  C   UNL     1      -8.016   6.896  64.770  1.00  0.00    -0.119 C  
BRANCH  18  19
HETATM   19  O   UNL     1      -8.192   7.422  66.091  1.00  0.00    -0.116 OA 
BRANCH  19  20
HETATM   20  C   UNL     1      -8.683   8.700  66.165  1.00  0.00    -0.156 A  
HETATM   21  C   UNL     1      -9.314   9.387  65.124  1.00  0.00    -0.288 A  
HETATM   22  C   UNL     1      -8.520   9.334  67.399  1.00  0.00    -0.122 A  
HETATM   23  C   UNL     1      -9.551  11.336  66.531  1.00  0.00    -0.191 A  
HETATM   24  C   UNL     1      -8.957  10.649  67.588  1.00  0.00    -0.139 A  
HETATM   25  C   UNL     1      -9.748  10.701  65.308  1.00  0.00    -0.315 A  
BRANCH  23  26
HETATM   26  N   UNL     1      -9.994  12.681  66.688  1.00  0.00    -0.237 N  
HETATM   27  H   UNL     1      -9.361  13.466  66.533  1.00  0.00     0.000 HD 
BRANCH  26  28
HETATM   28  S   UNL     1     -11.602  12.930  67.139  1.00  0.00    -0.378 S  
HETATM   29  O   UNL     1     -12.188  11.693  67.599  1.00  0.00    -0.544 OA 
HETATM   30  C   UNL     1     -12.345  13.394  65.587  1.00  0.00    -0.470 C  
HETATM   31  O   UNL     1     -11.583  14.110  67.981  1.00  0.00    -0.296 OA 
ENDBRANCH  26  28
ENDBRANCH  23  26
ENDBRANCH  19  20
ENDBRANCH  18  19
ENDBRANCH  17  18
ENDBRANCH   2  17
TORSDOF 11
ENDMDL
MODEL      146
REMARK 921   NORMALIZED FREE ENERGY PREDICTED BY IDOCK:   -4.37 KCAL/MOL
REMARK 922        TOTAL FREE ENERGY PREDICTED BY IDOCK:   -8.75 KCAL/MOL
REMARK 923 INTER-LIGAND FREE ENERGY PREDICTED BY IDOCK:   -8.20 KCAL/MOL
REMARK 924 INTRA-LIGAND FREE ENERGY PREDICTED BY IDOCK:   -0.54 KCAL/MOL
REMARK 927      BINDING AFFINITY PREDICTED BY RF-SCORE:    0.00 PKD
ROOT
HETATM    1  C   UNL     1      -9.959  10.030  68.413  1.00  0.00    -0.160 C  
HETATM    2  N   UNL     1     -10.329   9.538  67.082  1.00  0.00    -0.246 NA 
ENDROOT
BRANCH   2   3
HETATM    3  C   UNL     1      -9.786   8.185  66.834  1.00  0.00    -0.226 C  
BRANCH   3   4
HETATM    4  C   UNL     1     -10.782   7.014  66.990  1.00  0.00    -0.423 C  
BRANCH   4   5
HETATM    5  C   UNL     1     -10.627   6.240  68.280  1.00  0.00    -0.318 A  
HETATM    6  C   UNL     1     -10.265   4.851  70.687  1.00  0.00    -0.211 A  
HETATM    7  C   UNL     1      -9.851   5.072  68.319  1.00  0.00    -0.211 A  
HETATM    8  C   UNL     1     -11.249   6.680  69.457  1.00  0.00    -0.383 A  
HETATM    9  C   UNL     1      -9.671   4.378  69.518  1.00  0.00    -0.280 A  
HETATM   10  C   UNL     1     -11.068   5.987  70.655  1.00  0.00    -0.371 A  
BRANCH   6  11
HETATM   11  N   UNL     1     -10.084   4.165  71.922  1.00  0.00    -0.176 N  
HETATM   12  H   UNL     1     -10.722   3.424  72.213  1.00  0.00     0.000 HD 
BRANCH  11  13
HETATM   13  S   UNL     1      -8.776   4.623  72.887  1.00  0.00    -0.116 S  
HETATM   14  O   UNL     1      -8.197   5.776  72.228  1.00  0.00    -0.107 OA 
HETATM   15  O   UNL     1      -7.969   3.471  73.221  1.00  0.00    -0.069 OA 
HETATM   16  C   UNL     1      -9.603   5.204  74.351  1.00  0.00    -0.144 C  
ENDBRANCH  11  13
ENDBRANCH   6  11
ENDBRANCH   4   5
ENDBRANCH   3   4
ENDBRANCH   2   3
BRANCH   2  17
HETATM   17  C   UNL     1      -9.878  10.515  66.064  1.00  0.00    -0.222 C  
BRANCH  17  18
HETATM   18  C   UNL     1     -11.004  11.350  65.435  1.00  0.00    -0.184 C  
BRANCH  18  19
HETATM   19  O   UNL     1     -11.581  12.200  66.434  1.00  0.00    -0.386 OA 
BRANCH  19  20
HETATM   20  C   UNL     1     -11.023  13.447  66.553  1.00  0.00    -0.290 A  
HETATM   21  C   UNL     1      -9.892  13.897  65.868  1.00  0.00    -0.287 A  
HETATM   22  C   UNL     1     -11.669  14.308  67.444  1.00  0.00    -0.422 A  
HETATM   23  C   UNL     1     -10.027  16.023  67.008  1.00  0.00    -0.257 A  
HETATM   24  C   UNL     1     -11.176  15.598  67.670  1.00  0.00    -0.274 A  
HETATM   25  C   UNL     1      -9.397  15.183  66.094  1.00  0.00    -0.346 A  
BRANCH  23  26
HETATM   26  N   UNL     1      -9.493  17.325  67.227  1.00  0.00    -0.246 N  
HETATM   27  H   UNL     1      -8.679  17.468  67.826  1.00  0.00     0.000 HD 
BRANCH  26  28
HETATM   28  S   UNL     1     -10.254  18.624  66.463  1.00  0.00    -0.431 S  
HETATM   29  O   UNL     1     -10.801  18.205  65.194  1.00  0.00    -0.658 OA 
HETATM   30  C   UNL     1      -8.886  19.730  66.180  1.00  0.00    -0.336 C  
HETATM   31  O   UNL     1     -11.095  19.225  67.480  1.00  0.00    -0.423 OA 
ENDBRANCH  26  28
ENDBRANCH  23  26
ENDBRANCH  19  20
ENDBRANCH  18  19
ENDBRANCH  17  18
ENDBRANCH   2  17
TORSDOF 11
ENDMDL
MODEL      147
REMARK 921   NORMALIZED FREE ENERGY PREDICTED BY IDOCK:   -4.37 KCAL/MOL
REMARK 922        TOTAL FREE ENERGY PREDICTED BY IDOCK:   -8.74 KCAL/MOL
REMARK 923 INTER-LIGAND FREE ENERGY PREDICTED BY IDOCK:   -8.24 KCAL/MOL
REMARK 924 INTRA-LIGAND FREE ENERGY PREDICTED BY IDOCK:   -0.51 KCAL/MOL
REMARK 927      BINDING AFFINITY PREDICTED BY RF-SCORE:    0.00 PKD
ROOT
HETATM    1  C   UNL     1     -11.125  11.065  67.323  1.00  0.00    -0.294 C  
HETATM    2  N   UNL     1     -10.413  11.341  66.071  1.00  0.00    -0.251 NA 
ENDROOT
BRANCH   2   3
HETATM    3  C   UNL     1     -11.294  11.992  65.078  1.00  0.00    -0.310 C  
BRANCH   3   4
HETATM    4  C   UNL     1     -12.270  13.055  65.630  1.00  0.00    -0.521 C  
BRANCH   4   5
HETATM    5  C   UNL     1     -11.631  14.400  65.895  1.00  0.00    -0.361 A  
HETATM    6  C   UNL     1     -10.528  16.928  66.389  1.00  0.00    -0.252 A  
HETATM    7  C   UNL     1     -11.352  15.275  64.835  1.00  0.00    -0.387 A  
HETATM    8  C   UNL     1     -11.315  14.796  67.202  1.00  0.00    -0.363 A  
HETATM    9  C   UNL     1     -10.801  16.535  65.080  1.00  0.00    -0.247 A  
HETATM   10  C   UNL     1     -10.764  16.056  67.447  1.00  0.00    -0.306 A  
BRANCH   6  11
HETATM   11  N   UNL     1      -9.977  18.213  66.661  1.00  0.00    -0.342 N  
HETATM   12  H   UNL     1     -10.572  19.038  66.739  1.00  0.00     0.000 HD 
BRANCH  11  13
HETATM   13  S   UNL     1      -8.302  18.321  66.850  1.00  0.00    -0.252 S  
HETATM   14  O   UNL     1      -7.743  17.860  65.595  1.00  0.00    -0.541 OA 
HETATM   15  O   UNL     1      -7.897  17.733  68.107  1.00  0.00    -0.245 OA 
HETATM   16  C   UNL     1      -8.068  20.083  66.923  1.00  0.00    -0.321 C  
ENDBRANCH  11  13
ENDBRANCH   6  11
ENDBRANCH   4   5
ENDBRANCH   3   4
ENDBRANCH   2   3
BRANCH   2  17
HETATM   17  C   UNL     1      -9.832  10.078  65.559  1.00  0.00    -0.303 C  
BRANCH  17  18
HETATM   18  C   UNL     1     -10.132   8.839  66.418  1.00  0.00    -0.243 C  
BRANCH  18  19
HETATM   19  O   UNL     1      -8.930   8.410  67.069  1.00  0.00    -0.136 OA 
BRANCH  19  20
HETATM   20  C   UNL     1      -9.091   7.841  68.306  1.00  0.00    -0.130 A  
HETATM   21  C   UNL     1      -8.059   7.358  69.115  1.00  0.00    -0.120 A  
HETATM   22  C   UNL     1     -10.410   7.757  68.760  1.00  0.00    -0.219 A  
HETATM   23  C   UNL     1      -9.667   6.659  70.777  1.00  0.00    -0.179 A  
HETATM   24  C   UNL     1     -10.701   7.171  69.996  1.00  0.00    -0.268 A  
HETATM   25  C   UNL     1      -8.348   6.770  70.348  1.00  0.00    -0.130 A  
BRANCH  23  26
HETATM   26  N   UNL     1      -9.934   6.045  72.034  1.00  0.00    -0.170 N  
HETATM   27  H   UNL     1      -9.912   5.031  72.141  1.00  0.00     0.000 HD 
BRANCH  26  28
HETATM   28  S   UNL     1     -10.287   7.054  73.342  1.00  0.00    -0.368 S  
HETATM   29  O   UNL     1     -11.397   7.919  73.018  1.00  0.00    -0.408 OA 
HETATM   30  C   UNL     1      -8.798   8.025  73.462  1.00  0.00    -0.268 C  
HETATM   31  O   UNL     1     -10.330   6.180  74.497  1.00  0.00    -0.305 OA 
ENDBRANCH  26  28
ENDBRANCH  23  26
ENDBRANCH  19  20
ENDBRANCH  18  19
ENDBRANCH  17  18
ENDBRANCH   2  17
TORSDOF 11
ENDMDL
MODEL      148
REMARK 921   NORMALIZED FREE ENERGY PREDICTED BY IDOCK:   -4.37 KCAL/MOL
REMARK 922        TOTAL FREE ENERGY PREDICTED BY IDOCK:   -8.74 KCAL/MOL
REMARK 923 INTER-LIGAND FREE ENERGY PREDICTED BY IDOCK:   -7.59 KCAL/MOL
REMARK 924 INTRA-LIGAND FREE ENERGY PREDICTED BY IDOCK:   -1.15 KCAL/MOL
REMARK 927      BINDING AFFINITY PREDICTED BY RF-SCORE:    0.00 PKD
ROOT
HETATM    1  C   UNL     1     -10.935   6.787  71.356  1.00  0.00    -0.242 C  
HETATM    2  N   UNL     1     -11.122   8.140  71.890  1.00  0.00    -0.266 NA 
ENDROOT
BRANCH   2   3
HETATM    3  C   UNL     1     -12.067   8.923  71.064  1.00  0.00    -0.233 C  
BRANCH   3   4
HETATM    4  C   UNL     1     -12.549  10.261  71.668  1.00  0.00    -0.534 C  
BRANCH   4   5
HETATM    5  C   UNL     1     -12.409  11.444  70.736  1.00  0.00    -0.483 A  
HETATM    6  C   UNL     1     -12.064  13.645  69.035  1.00  0.00    -0.309 A  
HETATM    7  C   UNL     1     -12.610  12.749  71.209  1.00  0.00    -0.347 A  
HETATM    8  C   UNL     1     -12.070  11.257  69.389  1.00  0.00    -0.384 A  
HETATM    9  C   UNL     1     -12.440  13.847  70.362  1.00  0.00    -0.404 A  
HETATM   10  C   UNL     1     -11.899  12.354  68.542  1.00  0.00    -0.352 A  
BRANCH   6  11
HETATM   11  N   UNL     1     -11.874  14.750  68.158  1.00  0.00    -0.474 N  
HETATM   12  H   UNL     1     -12.659  15.170  67.659  1.00  0.00     0.000 HD 
BRANCH  11  13
HETATM   13  S   UNL     1     -10.302  15.341  67.973  1.00  0.00    -0.247 S  
HETATM   14  O   UNL     1     -10.017  15.237  66.556  1.00  0.00    -0.246 OA 
HETATM   15  O   UNL     1      -9.423  14.750  68.955  1.00  0.00    -0.208 OA 
HETATM   16  C   UNL     1     -10.527  17.066  68.348  1.00  0.00    -0.370 C  
ENDBRANCH  11  13
ENDBRANCH   6  11
ENDBRANCH   4   5
ENDBRANCH   3   4
ENDBRANCH   2   3
BRANCH   2  17
HETATM   17  C   UNL     1      -9.801   8.800  72.002  1.00  0.00    -0.306 C  
BRANCH  17  18
HETATM   18  C   UNL     1      -8.806   8.438  70.888  1.00  0.00    -0.159 C  
BRANCH  18  19
HETATM   19  O   UNL     1      -8.916   9.391  69.824  1.00  0.00    -0.158 OA 
BRANCH  19  20
HETATM   20  C   UNL     1      -8.921   8.872  68.555  1.00  0.00    -0.134 A  
HETATM   21  C   UNL     1     -10.057   8.663  67.770  1.00  0.00    -0.266 A  
HETATM   22  C   UNL     1      -7.666   8.538  68.040  1.00  0.00    -0.103 A  
HETATM   23  C   UNL     1      -8.690   7.738  66.006  1.00  0.00    -0.161 A  
HETATM   24  C   UNL     1      -7.545   7.975  66.765  1.00  0.00    -0.094 A  
HETATM   25  C   UNL     1      -9.941   8.098  66.498  1.00  0.00    -0.302 A  
BRANCH  23  26
HETATM   26  N   UNL     1      -8.601   7.153  64.710  1.00  0.00    -0.347 N  
HETATM   27  H   UNL     1      -8.729   7.715  63.868  1.00  0.00     0.000 HD 
BRANCH  26  28
HETATM   28  S   UNL     1      -8.278   5.498  64.616  1.00  0.00    -0.124 S  
HETATM   29  O   UNL     1      -8.819   4.954  63.393  1.00  0.00    -0.139 OA 
HETATM   30  C   UNL     1      -9.202   4.869  66.003  1.00  0.00    -0.151 C  
HETATM   31  O   UNL     1      -6.870   5.366  64.937  1.00  0.00    -0.047 OA 
ENDBRANCH  26  28
ENDBRANCH  23  26
ENDBRANCH  19  20
ENDBRANCH  18  19
ENDBRANCH  17  18
ENDBRANCH   2  17
TORSDOF 11
ENDMDL
MODEL      149
REMARK 921   NORMALIZED FREE ENERGY PREDICTED BY IDOCK:   -4.32 KCAL/MOL
REMARK 922        TOTAL FREE ENERGY PREDICTED BY IDOCK:   -8.66 KCAL/MOL
REMARK 923 INTER-LIGAND FREE ENERGY PREDICTED BY IDOCK:   -7.10 KCAL/MOL
REMARK 924 INTRA-LIGAND FREE ENERGY PREDICTED BY IDOCK:   -1.56 KCAL/MOL
REMARK 927      BINDING AFFINITY PREDICTED BY RF-SCORE:    0.00 PKD
ROOT
HETATM    1  C   UNL     1      -8.045   4.374  66.906  1.00  0.00    -0.102 C  
HETATM    2  N   UNL     1      -8.725   5.544  66.341  1.00  0.00    -0.120 NA 
ENDROOT
BRANCH   2   3
HETATM    3  C   UNL     1     -10.196   5.395  66.392  1.00  0.00    -0.226 C  
BRANCH   3   4
HETATM    4  C   UNL     1     -10.986   6.622  66.899  1.00  0.00    -0.396 C  
BRANCH   4   5
HETATM    5  C   UNL     1     -10.811   6.901  68.375  1.00  0.00    -0.238 A  
HETATM    6  C   UNL     1     -10.406   7.382  71.106  1.00  0.00    -0.201 A  
HETATM    7  C   UNL     1     -11.087   5.904  69.323  1.00  0.00    -0.352 A  
HETATM    8  C   UNL     1     -10.367   8.153  68.818  1.00  0.00    -0.220 A  
HETATM    9  C   UNL     1     -10.886   6.144  70.685  1.00  0.00    -0.355 A  
HETATM   10  C   UNL     1     -10.165   8.393  70.179  1.00  0.00    -0.198 A  
BRANCH   6  11
HETATM   11  N   UNL     1     -10.184   7.644  72.488  1.00  0.00    -0.223 N  
HETATM   12  H   UNL     1     -10.963   7.761  73.136  1.00  0.00     0.000 HD 
BRANCH  11  13
HETATM   13  S   UNL     1      -8.583   7.751  73.016  1.00  0.00    -0.187 S  
HETATM   14  O   UNL     1      -8.653   7.728  74.463  1.00  0.00    -0.205 OA 
HETATM   15  O   UNL     1      -7.893   8.814  72.320  1.00  0.00    -0.343 OA 
HETATM   16  C   UNL     1      -7.930   6.182  72.487  1.00  0.00    -0.104 C  
ENDBRANCH  11  13
ENDBRANCH   6  11
ENDBRANCH   4   5
ENDBRANCH   3   4
ENDBRANCH   2   3
BRANCH   2  17
HETATM   17  C   UNL     1      -8.235   5.767  64.961  1.00  0.00    -0.137 C  
BRANCH  17  18
HETATM   18  C   UNL     1      -7.892   7.228  64.630  1.00  0.00    -0.123 C  
BRANCH  18  19
HETATM   19  O   UNL     1      -7.866   7.996  65.840  1.00  0.00    -0.091 OA 
BRANCH  19  20
HETATM   20  C   UNL     1      -8.505   9.208  65.793  1.00  0.00    -0.141 A  
HETATM   21  C   UNL     1      -9.466   9.581  64.850  1.00  0.00    -0.230 A  
HETATM   22  C   UNL     1      -8.135  10.118  66.787  1.00  0.00    -0.119 A  
HETATM   23  C   UNL     1      -9.629  11.771  65.859  1.00  0.00    -0.230 A  
HETATM   24  C   UNL     1      -8.699  11.398  66.826  1.00  0.00    -0.174 A  
HETATM   25  C   UNL     1     -10.027  10.859  64.885  1.00  0.00    -0.361 A  
BRANCH  23  26
HETATM   26  N   UNL     1     -10.210  13.071  65.863  1.00  0.00    -0.288 N  
HETATM   27  H   UNL     1      -9.719  13.870  65.463  1.00  0.00     0.000 HD 
BRANCH  26  28
HETATM   28  S   UNL     1     -11.742  13.244  66.555  1.00  0.00    -0.396 S  
HETATM   29  O   UNL     1     -12.072  12.074  67.334  1.00  0.00    -0.566 OA 
HETATM   30  C   UNL     1     -12.785  13.306  65.112  1.00  0.00    -0.402 C  
HETATM   31  O   UNL     1     -11.744  14.566  67.149  1.00  0.00    -0.377 OA 
ENDBRANCH  26  28
ENDBRANCH  23  26
ENDBRANCH  19  20
ENDBRANCH  18  19
ENDBRANCH  17  18
ENDBRANCH   2  17
TORSDOF 11
ENDMDL
MODEL      150
REMARK 921   NORMALIZED FREE ENERGY PREDICTED BY IDOCK:   -4.30 KCAL/MOL
REMARK 922        TOTAL FREE ENERGY PREDICTED BY IDOCK:   -8.63 KCAL/MOL
REMARK 923 INTER-LIGAND FREE ENERGY PREDICTED BY IDOCK:   -6.35 KCAL/MOL
REMARK 924 INTRA-LIGAND FREE ENERGY PREDICTED BY IDOCK:   -2.28 KCAL/MOL
REMARK 927      BINDING AFFINITY PREDICTED BY RF-SCORE:    0.00 PKD
ROOT
HETATM    1  C   UNL     1      -7.531   1.995  68.942  1.00  0.00    -0.043 C  
HETATM    2  N   UNL     1      -8.209   3.186  68.420  1.00  0.00    -0.068 NA 
ENDROOT
BRANCH   2   3
HETATM    3  C   UNL     1      -8.754   4.022  69.511  1.00  0.00    -0.080 C  
BRANCH   3   4
HETATM    4  C   UNL     1      -8.197   5.461  69.607  1.00  0.00    -0.100 C  
BRANCH   4   5
HETATM    5  C   UNL     1      -9.159   6.455  70.219  1.00  0.00    -0.155 A  
HETATM    6  C   UNL     1     -10.921   8.264  71.433  1.00  0.00    -0.249 A  
HETATM    7  C   UNL     1     -10.483   6.084  70.493  1.00  0.00    -0.303 A  
HETATM    8  C   UNL     1      -8.742   7.756  70.528  1.00  0.00    -0.140 A  
HETATM    9  C   UNL     1     -11.363   6.986  71.097  1.00  0.00    -0.319 A  
HETATM   10  C   UNL     1      -9.621   8.658  71.132  1.00  0.00    -0.281 A  
BRANCH   6  11
HETATM   11  N   UNL     1     -11.798   9.194  72.059  1.00  0.00    -0.360 N  
HETATM   12  H   UNL     1     -11.754   9.369  73.064  1.00  0.00     0.000 HD 
BRANCH  11  13
HETATM   13  S   UNL     1     -12.914   9.999  71.079  1.00  0.00    -0.333 S  
HETATM   14  O   UNL     1     -14.148   9.250  71.206  1.00  0.00    -0.249 OA 
HETATM   15  O   UNL     1     -12.339  10.275  69.782  1.00  0.00    -0.125 OA 
HETATM   16  C   UNL     1     -13.124  11.528  71.965  1.00  0.00    -0.324 C  
ENDBRANCH  11  13
ENDBRANCH   6  11
ENDBRANCH   4   5
ENDBRANCH   3   4
ENDBRANCH   2   3
BRANCH   2  17
HETATM   17  C   UNL     1      -9.260   2.762  67.465  1.00  0.00    -0.187 C  
BRANCH  17  18
HETATM   18  C   UNL     1      -9.370   3.635  66.205  1.00  0.00    -0.174 C  
BRANCH  18  19
HETATM   19  O   UNL     1     -10.510   4.495  66.321  1.00  0.00    -0.259 OA 
BRANCH  19  20
HETATM   20  C   UNL     1     -10.238   5.821  66.542  1.00  0.00    -0.189 A  
HETATM   21  C   UNL     1     -11.093   6.728  67.174  1.00  0.00    -0.404 A  
HETATM   22  C   UNL     1      -8.995   6.262  66.084  1.00  0.00    -0.164 A  
HETATM   23  C   UNL     1      -9.492   8.504  66.826  1.00  0.00    -0.194 A  
HETATM   24  C   UNL     1      -8.616   7.601  66.228  1.00  0.00    -0.153 A  
HETATM   25  C   UNL     1     -10.719   8.066  67.316  1.00  0.00    -0.280 A  
BRANCH  23  26
HETATM   26  N   UNL     1      -9.141   9.876  66.976  1.00  0.00    -0.138 N  
HETATM   27  H   UNL     1      -8.361  10.160  67.568  1.00  0.00     0.000 HD 
BRANCH  26  28
HETATM   28  S   UNL     1     -10.063  11.017  66.138  1.00  0.00    -0.245 S  
HETATM   29  O   UNL     1     -11.425  11.006  66.616  1.00  0.00    -0.291 OA 
HETATM   30  C   UNL     1     -10.014  10.373  64.478  1.00  0.00    -0.331 C  
HETATM   31  O   UNL     1      -9.272  12.233  66.155  1.00  0.00    -0.214 OA 
ENDBRANCH  26  28
ENDBRANCH  23  26
ENDBRANCH  19  20
ENDBRANCH  18  19
ENDBRANCH  17  18
ENDBRANCH   2  17
TORSDOF 11
ENDMDL
MODEL      151
REMARK 921   NORMALIZED FREE ENERGY PREDICTED BY IDOCK:   -4.30 KCAL/MOL
REMARK 922        TOTAL FREE ENERGY PREDICTED BY IDOCK:   -8.63 KCAL/MOL
REMARK 923 INTER-LIGAND FREE ENERGY PREDICTED BY IDOCK:   -6.79 KCAL/MOL
REMARK 924 INTRA-LIGAND FREE ENERGY PREDICTED BY IDOCK:   -1.84 KCAL/MOL
REMARK 927      BINDING AFFINITY PREDICTED BY RF-SCORE:    0.00 PKD
ROOT
HETATM    1  C   UNL     1      -6.407   8.343  70.844  1.00  0.00    -0.038 C  
HETATM    2  N   UNL     1      -6.836   6.967  71.117  1.00  0.00    -0.059 NA 
ENDROOT
BRANCH   2   3
HETATM    3  C   UNL     1      -7.053   6.209  69.866  1.00  0.00    -0.072 C  
BRANCH   3   4
HETATM    4  C   UNL     1      -8.511   6.134  69.360  1.00  0.00    -0.120 C  
BRANCH   4   5
HETATM    5  C   UNL     1      -8.783   6.978  68.135  1.00  0.00    -0.127 A  
HETATM    6  C   UNL     1      -9.295   8.612  65.916  1.00  0.00    -0.195 A  
HETATM    7  C   UNL     1     -10.100   7.226  67.721  1.00  0.00    -0.225 A  
HETATM    8  C   UNL     1      -7.726   7.530  67.398  1.00  0.00    -0.117 A  
HETATM    9  C   UNL     1     -10.356   8.039  66.614  1.00  0.00    -0.273 A  
HETATM   10  C   UNL     1      -7.982   8.343  66.292  1.00  0.00    -0.099 A  
BRANCH   6  11
HETATM   11  N   UNL     1      -9.534   9.453  64.792  1.00  0.00    -0.446 N  
HETATM   12  H   UNL     1      -9.447   9.099  63.839  1.00  0.00     0.000 HD 
BRANCH  11  13
HETATM   13  S   UNL     1      -9.970  11.057  65.095  1.00  0.00    -0.299 S  
HETATM   14  O   UNL     1     -11.225  10.986  65.814  1.00  0.00    -0.041 OA 
HETATM   15  O   UNL     1      -9.842  11.849  63.892  1.00  0.00    -0.292 OA 
HETATM   16  C   UNL     1      -8.716  11.550  66.258  1.00  0.00    -0.159 C  
ENDBRANCH  11  13
ENDBRANCH   6  11
ENDBRANCH   4   5
ENDBRANCH   3   4
ENDBRANCH   2   3
BRANCH   2  17
HETATM   17  C   UNL     1      -8.050   7.001  71.965  1.00  0.00    -0.097 C  
BRANCH  17  18
HETATM   18  C   UNL     1      -8.605   8.408  72.236  1.00  0.00    -0.197 C  
BRANCH  18  19
HETATM   19  O   UNL     1     -10.033   8.386  72.121  1.00  0.00    -0.247 OA 
BRANCH  19  20
HETATM   20  C   UNL     1     -10.578   9.304  71.261  1.00  0.00    -0.347 A  
HETATM   21  C   UNL     1     -11.862   9.846  71.363  1.00  0.00    -0.476 A  
HETATM   22  C   UNL     1      -9.750   9.706  70.210  1.00  0.00    -0.314 A  
HETATM   23  C   UNL     1     -11.501  11.124  69.345  1.00  0.00    -0.298 A  
HETATM   24  C   UNL     1     -10.206  10.619  69.253  1.00  0.00    -0.235 A  
HETATM   25  C   UNL     1     -12.321  10.755  70.407  1.00  0.00    -0.438 A  
BRANCH  23  26
HETATM   26  N   UNL     1     -11.998  12.044  68.378  1.00  0.00    -0.285 N  
HETATM   27  H   UNL     1     -12.689  11.758  67.684  1.00  0.00     0.000 HD 
BRANCH  26  28
HETATM   28  S   UNL     1     -11.406  13.625  68.421  1.00  0.00    -0.318 S  
HETATM   29  O   UNL     1      -9.977  13.616  68.632  1.00  0.00    -0.224 OA 
HETATM   30  C   UNL     1     -12.211  14.274  69.872  1.00  0.00    -0.352 C  
HETATM   31  O   UNL     1     -11.989  14.283  67.269  1.00  0.00    -0.401 OA 
ENDBRANCH  26  28
ENDBRANCH  23  26
ENDBRANCH  19  20
ENDBRANCH  18  19
ENDBRANCH  17  18
ENDBRANCH   2  17
TORSDOF 11
ENDMDL
MODEL      152
REMARK 921   NORMALIZED FREE ENERGY PREDICTED BY IDOCK:   -4.30 KCAL/MOL
REMARK 922        TOTAL FREE ENERGY PREDICTED BY IDOCK:   -8.62 KCAL/MOL
REMARK 923 INTER-LIGAND FREE ENERGY PREDICTED BY IDOCK:   -8.16 KCAL/MOL
REMARK 924 INTRA-LIGAND FREE ENERGY PREDICTED BY IDOCK:   -0.46 KCAL/MOL
REMARK 927      BINDING AFFINITY PREDICTED BY RF-SCORE:    0.00 PKD
ROOT
HETATM    1  C   UNL     1     -11.844  12.496  68.052  1.00  0.00    -0.325 C  
HETATM    2  N   UNL     1     -10.981  13.581  67.574  1.00  0.00    -0.264 NA 
ENDROOT
BRANCH   2   3
HETATM    3  C   UNL     1     -11.741  14.837  67.390  1.00  0.00    -0.350 C  
BRANCH   3   4
HETATM    4  C   UNL     1     -11.536  15.919  68.475  1.00  0.00    -0.351 C  
BRANCH   4   5
HETATM    5  C   UNL     1     -10.739  17.116  68.008  1.00  0.00    -0.372 A  
HETATM    6  C   UNL     1      -9.188  19.285  67.145  1.00  0.00    -0.302 A  
HETATM    7  C   UNL     1     -10.081  17.937  68.937  1.00  0.00    -0.349 A  
HETATM    8  C   UNL     1     -10.638  17.421  66.644  1.00  0.00    -0.182 A  
HETATM    9  C   UNL     1      -9.309  19.019  68.507  1.00  0.00    -0.425 A  
HETATM   10  C   UNL     1      -9.866  18.502  66.215  1.00  0.00    -0.352 A  
BRANCH   6  11
HETATM   11  N   UNL     1      -8.396  20.376  66.685  1.00  0.00    -0.522 N  
HETATM   12  H   UNL     1      -8.826  21.254  66.393  1.00  0.00     0.000 HD 
BRANCH  11  13
HETATM   13  S   UNL     1      -6.721  20.163  66.641  1.00  0.00    -0.231 S  
HETATM   14  O   UNL     1      -6.369  19.618  67.937  1.00  0.00    -0.207 OA 
HETATM   15  O   UNL     1      -6.075  21.351  66.132  1.00  0.00    -0.277 OA 
HETATM   16  C   UNL     1      -6.563  18.851  65.449  1.00  0.00    -0.253 C  
ENDBRANCH  11  13
ENDBRANCH   6  11
ENDBRANCH   4   5
ENDBRANCH   3   4
ENDBRANCH   2   3
BRANCH   2  17
HETATM   17  C   UNL     1     -10.309  13.149  66.327  1.00  0.00    -0.287 C  
BRANCH  17  18
HETATM   18  C   UNL     1     -10.650  11.719  65.877  1.00  0.00    -0.271 C  
BRANCH  18  19
HETATM   19  O   UNL     1      -9.524  10.865  66.116  1.00  0.00    -0.188 OA 
BRANCH  19  20
HETATM   20  C   UNL     1      -9.666   9.959  67.135  1.00  0.00    -0.178 A  
HETATM   21  C   UNL     1     -10.437   8.795  67.083  1.00  0.00    -0.354 A  
HETATM   22  C   UNL     1      -8.966  10.262  68.306  1.00  0.00    -0.132 A  
HETATM   23  C   UNL     1      -9.856   8.287  69.372  1.00  0.00    -0.185 A  
HETATM   24  C   UNL     1      -9.055   9.426  69.425  1.00  0.00    -0.162 A  
HETATM   25  C   UNL     1     -10.530   7.961  68.198  1.00  0.00    -0.227 A  
BRANCH  23  26
HETATM   26  N   UNL     1      -9.978   7.424  70.498  1.00  0.00    -0.184 N  
HETATM   27  H   UNL     1      -9.264   6.726  70.708  1.00  0.00     0.000 HD 
BRANCH  26  28
HETATM   28  S   UNL     1     -11.345   7.596  71.475  1.00  0.00    -0.262 S  
HETATM   29  O   UNL     1     -11.913   8.913  71.309  1.00  0.00    -0.288 OA 
HETATM   30  C   UNL     1     -10.643   7.457  73.107  1.00  0.00    -0.374 C  
HETATM   31  O   UNL     1     -12.134   6.403  71.239  1.00  0.00    -0.310 OA 
ENDBRANCH  26  28
ENDBRANCH  23  26
ENDBRANCH  19  20
ENDBRANCH  18  19
ENDBRANCH  17  18
ENDBRANCH   2  17
TORSDOF 11
ENDMDL
MODEL      153
REMARK 921   NORMALIZED FREE ENERGY PREDICTED BY IDOCK:   -4.29 KCAL/MOL
REMARK 922        TOTAL FREE ENERGY PREDICTED BY IDOCK:   -8.61 KCAL/MOL
REMARK 923 INTER-LIGAND FREE ENERGY PREDICTED BY IDOCK:   -8.04 KCAL/MOL
REMARK 924 INTRA-LIGAND FREE ENERGY PREDICTED BY IDOCK:   -0.56 KCAL/MOL
REMARK 927      BINDING AFFINITY PREDICTED BY RF-SCORE:    0.00 PKD
ROOT
HETATM    1  C   UNL     1     -11.485  13.864  65.454  1.00  0.00    -0.312 C  
HETATM    2  N   UNL     1     -10.738  13.987  66.709  1.00  0.00    -0.284 NA 
ENDROOT
BRANCH   2   3
HETATM    3  C   UNL     1     -10.198  12.682  67.149  1.00  0.00    -0.225 C  
BRANCH   3   4
HETATM    4  C   UNL     1     -11.162  11.478  67.045  1.00  0.00    -0.365 C  
BRANCH   4   5
HETATM    5  C   UNL     1     -10.599  10.188  67.598  1.00  0.00    -0.316 A  
HETATM    6  C   UNL     1      -9.479   7.815  68.580  1.00  0.00    -0.148 A  
HETATM    7  C   UNL     1     -10.653   9.008  66.841  1.00  0.00    -0.243 A  
HETATM    8  C   UNL     1     -10.009  10.152  68.868  1.00  0.00    -0.207 A  
HETATM    9  C   UNL     1     -10.096   7.824  67.331  1.00  0.00    -0.288 A  
HETATM   10  C   UNL     1      -9.451   8.969  69.358  1.00  0.00    -0.159 A  
BRANCH   6  11
HETATM   11  N   UNL     1      -8.895   6.621  69.093  1.00  0.00    -0.129 N  
HETATM   12  H   UNL     1      -7.889   6.550  69.250  1.00  0.00     0.000 HD 
BRANCH  11  13
HETATM   13  S   UNL     1      -9.927   5.328  69.430  1.00  0.00    -0.237 S  
HETATM   14  O   UNL     1      -9.522   4.267  68.529  1.00  0.00    -0.141 OA 
HETATM   15  O   UNL     1     -11.299   5.778  69.482  1.00  0.00    -0.261 OA 
HETATM   16  C   UNL     1      -9.397   4.870  71.066  1.00  0.00    -0.153 C  
ENDBRANCH  11  13
ENDBRANCH   6  11
ENDBRANCH   4   5
ENDBRANCH   3   4
ENDBRANCH   2   3
BRANCH   2  17
HETATM   17  C   UNL     1     -11.615  14.601  67.734  1.00  0.00    -0.359 C  
BRANCH  17  18
HETATM   18  C   UNL     1     -10.893  15.534  68.720  1.00  0.00    -0.256 C  
BRANCH  18  19
HETATM   19  O   UNL     1     -11.373  16.872  68.545  1.00  0.00    -0.221 OA 
BRANCH  19  20
HETATM   20  C   UNL     1     -10.465  17.773  68.051  1.00  0.00    -0.394 A  
HETATM   21  C   UNL     1      -9.362  18.276  68.747  1.00  0.00    -0.273 A  
HETATM   22  C   UNL     1     -10.696  18.198  66.740  1.00  0.00    -0.216 A  
HETATM   23  C   UNL     1      -8.777  19.659  66.854  1.00  0.00    -0.324 A  
HETATM   24  C   UNL     1      -9.852  19.137  66.137  1.00  0.00    -0.397 A  
HETATM   25  C   UNL     1      -8.521  19.216  68.148  1.00  0.00    -0.355 A  
BRANCH  23  26
HETATM   26  N   UNL     1      -7.908  20.626  66.272  1.00  0.00    -0.514 N  
HETATM   27  H   UNL     1      -8.073  21.625  66.395  1.00  0.00     0.000 HD 
BRANCH  26  28
HETATM   28  S   UNL     1      -6.596  20.061  65.372  1.00  0.00    -0.292 S  
HETATM   29  O   UNL     1      -6.799  18.679  65.008  1.00  0.00    -0.511 OA 
HETATM   30  C   UNL     1      -5.270  20.170  66.557  1.00  0.00    -0.163 C  
HETATM   31  O   UNL     1      -6.361  21.075  64.363  1.00  0.00    -0.300 OA 
ENDBRANCH  26  28
ENDBRANCH  23  26
ENDBRANCH  19  20
ENDBRANCH  18  19
ENDBRANCH  17  18
ENDBRANCH   2  17
TORSDOF 11
ENDMDL
MODEL      154
REMARK 921   NORMALIZED FREE ENERGY PREDICTED BY IDOCK:   -4.29 KCAL/MOL
REMARK 922        TOTAL FREE ENERGY PREDICTED BY IDOCK:   -8.60 KCAL/MOL
REMARK 923 INTER-LIGAND FREE ENERGY PREDICTED BY IDOCK:   -7.88 KCAL/MOL
REMARK 924 INTRA-LIGAND FREE ENERGY PREDICTED BY IDOCK:   -0.73 KCAL/MOL
REMARK 927      BINDING AFFINITY PREDICTED BY RF-SCORE:    0.00 PKD
ROOT
HETATM    1  C   UNL     1     -12.416   7.495  71.960  1.00  0.00    -0.257 C  
HETATM    2  N   UNL     1     -11.114   7.927  71.441  1.00  0.00    -0.239 NA 
ENDROOT
BRANCH   2   3
HETATM    3  C   UNL     1     -10.997   9.401  71.430  1.00  0.00    -0.373 C  
BRANCH   3   4
HETATM    4  C   UNL     1     -12.319  10.187  71.279  1.00  0.00    -0.501 C  
BRANCH   4   5
HETATM    5  C   UNL     1     -12.210  11.415  70.404  1.00  0.00    -0.450 A  
HETATM    6  C   UNL     1     -12.089  13.677  68.754  1.00  0.00    -0.297 A  
HETATM    7  C   UNL     1     -11.837  11.296  69.057  1.00  0.00    -0.421 A  
HETATM    8  C   UNL     1     -12.484  12.688  70.921  1.00  0.00    -0.368 A  
HETATM    9  C   UNL     1     -11.775  12.424  68.234  1.00  0.00    -0.398 A  
HETATM   10  C   UNL     1     -12.424  13.815  70.098  1.00  0.00    -0.332 A  
BRANCH   6  11
HETATM   11  N   UNL     1     -12.044  14.838  67.930  1.00  0.00    -0.580 N  
HETATM   12  H   UNL     1     -12.890  15.217  67.504  1.00  0.00     0.000 HD 
BRANCH  11  13
HETATM   13  S   UNL     1     -10.538  15.564  67.684  1.00  0.00    -0.297 S  
HETATM   14  O   UNL     1      -9.640  14.911  68.615  1.00  0.00    -0.208 OA 
HETATM   15  O   UNL     1     -10.671  17.003  67.659  1.00  0.00    -0.342 OA 
HETATM   16  C   UNL     1     -10.130  14.983  66.052  1.00  0.00    -0.301 C  
ENDBRANCH  11  13
ENDBRANCH   6  11
ENDBRANCH   4   5
ENDBRANCH   3   4
ENDBRANCH   2   3
BRANCH   2  17
HETATM   17  C   UNL     1     -10.915   7.342  70.094  1.00  0.00    -0.260 C  
BRANCH  17  18
HETATM   18  C   UNL     1      -9.957   8.131  69.188  1.00  0.00    -0.192 C  
BRANCH  18  19
HETATM   19  O   UNL     1     -10.451   8.113  67.844  1.00  0.00    -0.222 OA 
BRANCH  19  20
HETATM   20  C   UNL     1     -10.166   6.986  67.117  1.00  0.00    -0.248 A  
HETATM   21  C   UNL     1     -11.074   5.970  66.808  1.00  0.00    -0.201 A  
HETATM   22  C   UNL     1      -8.848   6.883  66.665  1.00  0.00    -0.140 A  
HETATM   23  C   UNL     1      -9.336   4.741  65.666  1.00  0.00    -0.163 A  
HETATM   24  C   UNL     1      -8.430   5.764  65.936  1.00  0.00    -0.139 A  
HETATM   25  C   UNL     1     -10.659   4.851  66.083  1.00  0.00    -0.322 A  
BRANCH  23  26
HETATM   26  N   UNL     1      -8.938   3.583  64.937  1.00  0.00    -0.125 N  
HETATM   27  H   UNL     1      -8.586   2.754  65.416  1.00  0.00     0.000 HD 
BRANCH  26  28
HETATM   28  S   UNL     1      -9.069   3.631  63.254  1.00  0.00    -0.104 S  
HETATM   29  O   UNL     1      -9.035   4.998  62.791  1.00  0.00    -0.116 OA 
HETATM   30  C   UNL     1     -10.701   2.963  63.000  1.00  0.00    -0.211 C  
HETATM   31  O   UNL     1      -8.118   2.651  62.770  1.00  0.00    -0.070 OA 
ENDBRANCH  26  28
ENDBRANCH  23  26
ENDBRANCH  19  20
ENDBRANCH  18  19
ENDBRANCH  17  18
ENDBRANCH   2  17
TORSDOF 11
ENDMDL
MODEL      155
REMARK 921   NORMALIZED FREE ENERGY PREDICTED BY IDOCK:   -4.28 KCAL/MOL
REMARK 922        TOTAL FREE ENERGY PREDICTED BY IDOCK:   -8.60 KCAL/MOL
REMARK 923 INTER-LIGAND FREE ENERGY PREDICTED BY IDOCK:   -7.97 KCAL/MOL
REMARK 924 INTRA-LIGAND FREE ENERGY PREDICTED BY IDOCK:   -0.63 KCAL/MOL
REMARK 927      BINDING AFFINITY PREDICTED BY RF-SCORE:    0.00 PKD
ROOT
HETATM    1  C   UNL     1     -14.200   8.670  72.223  1.00  0.00    -0.417 C  
HETATM    2  N   UNL     1     -12.991   9.501  72.230  1.00  0.00    -0.400 NA 
ENDROOT
BRANCH   2   3
HETATM    3  C   UNL     1     -13.133  10.672  71.338  1.00  0.00    -0.400 C  
BRANCH   3   4
HETATM    4  C   UNL     1     -12.151  10.741  70.147  1.00  0.00    -0.427 C  
BRANCH   4   5
HETATM    5  C   UNL     1     -11.904  12.142  69.632  1.00  0.00    -0.391 A  
HETATM    6  C   UNL     1     -11.521  14.731  68.630  1.00  0.00    -0.302 A  
HETATM    7  C   UNL     1     -11.225  12.344  68.422  1.00  0.00    -0.316 A  
HETATM    8  C   UNL     1     -12.354  13.257  70.351  1.00  0.00    -0.365 A  
HETATM    9  C   UNL     1     -11.032  13.635  67.922  1.00  0.00    -0.277 A  
HETATM   10  C   UNL     1     -12.162  14.547  69.852  1.00  0.00    -0.379 A  
BRANCH   6  11
HETATM   11  N   UNL     1     -11.345  16.053  68.133  1.00  0.00    -0.325 N  
HETATM   12  H   UNL     1     -12.038  16.485  67.521  1.00  0.00     0.000 HD 
BRANCH  11  13
HETATM   13  S   UNL     1      -9.946  16.883  68.592  1.00  0.00    -0.296 S  
HETATM   14  O   UNL     1      -9.162  15.925  69.345  1.00  0.00    -0.252 OA 
HETATM   15  O   UNL     1     -10.285  18.172  69.151  1.00  0.00    -0.344 OA 
HETATM   16  C   UNL     1      -9.142  17.116  67.022  1.00  0.00    -0.230 C  
ENDBRANCH  11  13
ENDBRANCH   6  11
ENDBRANCH   4   5
ENDBRANCH   3   4
ENDBRANCH   2   3
BRANCH   2  17
HETATM   17  C   UNL     1     -11.827   8.660  71.866  1.00  0.00    -0.351 C  
BRANCH  17  18
HETATM   18  C   UNL     1     -12.130   7.157  71.758  1.00  0.00    -0.328 C  
BRANCH  18  19
HETATM   19  O   UNL     1     -12.330   6.811  70.382  1.00  0.00    -0.275 OA 
BRANCH  19  20
HETATM   20  C   UNL     1     -11.314   6.106  69.789  1.00  0.00    -0.382 A  
HETATM   21  C   UNL     1     -11.025   6.097  68.422  1.00  0.00    -0.391 A  
HETATM   22  C   UNL     1     -10.526   5.347  70.657  1.00  0.00    -0.329 A  
HETATM   23  C   UNL     1      -9.220   4.535  68.796  1.00  0.00    -0.131 A  
HETATM   24  C   UNL     1      -9.475   4.564  70.166  1.00  0.00    -0.237 A  
HETATM   25  C   UNL     1      -9.980   5.314  67.928  1.00  0.00    -0.206 A  
BRANCH  23  26
HETATM   26  N   UNL     1      -8.167   3.738  68.264  1.00  0.00    -0.082 N  
HETATM   27  H   UNL     1      -8.365   2.908  67.704  1.00  0.00     0.000 HD 
BRANCH  26  28
HETATM   28  S   UNL     1      -6.580   4.213  68.592  1.00  0.00    -0.046 S  
HETATM   29  O   UNL     1      -6.469   5.651  68.536  1.00  0.00    -0.039 OA 
HETATM   30  C   UNL     1      -5.698   3.499  67.218  1.00  0.00    -0.022 C  
HETATM   31  O   UNL     1      -6.200   3.477  69.782  1.00  0.00    -0.026 OA 
ENDBRANCH  26  28
ENDBRANCH  23  26
ENDBRANCH  19  20
ENDBRANCH  18  19
ENDBRANCH  17  18
ENDBRANCH   2  17
TORSDOF 11
ENDMDL
MODEL      156
REMARK 921   NORMALIZED FREE ENERGY PREDICTED BY IDOCK:   -4.27 KCAL/MOL
REMARK 922        TOTAL FREE ENERGY PREDICTED BY IDOCK:   -8.58 KCAL/MOL
REMARK 923 INTER-LIGAND FREE ENERGY PREDICTED BY IDOCK:   -8.60 KCAL/MOL
REMARK 924 INTRA-LIGAND FREE ENERGY PREDICTED BY IDOCK:    0.02 KCAL/MOL
REMARK 927      BINDING AFFINITY PREDICTED BY RF-SCORE:    0.00 PKD
ROOT
HETATM    1  C   UNL     1     -11.805  13.461  69.451  1.00  0.00    -0.335 C  
HETATM    2  N   UNL     1     -10.602  13.874  68.719  1.00  0.00    -0.251 NA 
ENDROOT
BRANCH   2   3
HETATM    3  C   UNL     1     -10.908  14.919  67.719  1.00  0.00    -0.286 C  
BRANCH   3   4
HETATM    4  C   UNL     1     -11.425  16.264  68.278  1.00  0.00    -0.207 C  
BRANCH   4   5
HETATM    5  C   UNL     1     -10.569  17.455  67.907  1.00  0.00    -0.383 A  
HETATM    6  C   UNL     1      -8.912  19.613  67.233  1.00  0.00    -0.318 A  
HETATM    7  C   UNL     1     -10.078  18.315  68.901  1.00  0.00    -0.358 A  
HETATM    8  C   UNL     1     -10.249  17.715  66.568  1.00  0.00    -0.355 A  
HETATM    9  C   UNL     1      -9.253  19.391  68.566  1.00  0.00    -0.429 A  
HETATM   10  C   UNL     1      -9.423  18.791  66.233  1.00  0.00    -0.288 A  
BRANCH   6  11
HETATM   11  N   UNL     1      -8.064  20.697  66.871  1.00  0.00    -0.553 N  
HETATM   12  H   UNL     1      -8.449  21.602  66.599  1.00  0.00     0.000 HD 
BRANCH  11  13
HETATM   13  S   UNL     1      -6.396  20.432  66.910  1.00  0.00    -0.228 S  
HETATM   14  O   UNL     1      -6.237  18.992  66.962  1.00  0.00    -0.178 OA 
HETATM   15  O   UNL     1      -5.772  21.287  67.893  1.00  0.00    -0.321 OA 
HETATM   16  C   UNL     1      -5.916  20.962  65.280  1.00  0.00    -0.245 C  
ENDBRANCH  11  13
ENDBRANCH   6  11
ENDBRANCH   4   5
ENDBRANCH   3   4
ENDBRANCH   2   3
BRANCH   2  17
HETATM   17  C   UNL     1      -9.979  12.679  68.105  1.00  0.00    -0.225 C  
BRANCH  17  18
HETATM   18  C   UNL     1     -10.535  11.337  68.604  1.00  0.00    -0.203 C  
BRANCH  18  19
HETATM   19  O   UNL     1      -9.451  10.504  69.035  1.00  0.00    -0.187 OA 
BRANCH  19  20
HETATM   20  C   UNL     1      -9.694   9.732  70.142  1.00  0.00    -0.248 A  
HETATM   21  C   UNL     1      -8.728   9.031  70.868  1.00  0.00    -0.280 A  
HETATM   22  C   UNL     1     -11.030   9.666  70.545  1.00  0.00    -0.374 A  
HETATM   23  C   UNL     1     -10.437   8.164  72.339  1.00  0.00    -0.319 A  
HETATM   24  C   UNL     1     -11.405   8.888  71.645  1.00  0.00    -0.407 A  
HETATM   25  C   UNL     1      -9.100   8.250  71.964  1.00  0.00    -0.267 A  
BRANCH  23  26
HETATM   26  N   UNL     1     -10.790   7.352  73.454  1.00  0.00    -0.496 N  
HETATM   27  H   UNL     1     -10.955   7.761  74.374  1.00  0.00     0.000 HD 
BRANCH  26  28
HETATM   28  S   UNL     1     -10.925   5.687  73.202  1.00  0.00    -0.274 S  
HETATM   29  O   UNL     1     -10.460   4.968  74.364  1.00  0.00    -0.268 OA 
HETATM   30  C   UNL     1      -9.786   5.432  71.855  1.00  0.00    -0.171 C  
HETATM   31  O   UNL     1     -12.263   5.488  72.682  1.00  0.00    -0.143 OA 
ENDBRANCH  26  28
ENDBRANCH  23  26
ENDBRANCH  19  20
ENDBRANCH  18  19
ENDBRANCH  17  18
ENDBRANCH   2  17
TORSDOF 11
ENDMDL
MODEL      157
REMARK 921   NORMALIZED FREE ENERGY PREDICTED BY IDOCK:   -4.27 KCAL/MOL
REMARK 922        TOTAL FREE ENERGY PREDICTED BY IDOCK:   -8.58 KCAL/MOL
REMARK 923 INTER-LIGAND FREE ENERGY PREDICTED BY IDOCK:   -6.58 KCAL/MOL
REMARK 924 INTRA-LIGAND FREE ENERGY PREDICTED BY IDOCK:   -2.00 KCAL/MOL
REMARK 927      BINDING AFFINITY PREDICTED BY RF-SCORE:    0.00 PKD
ROOT
HETATM    1  C   UNL     1      -6.768   7.682  64.125  1.00  0.00    -0.053 C  
HETATM    2  N   UNL     1      -7.243   9.017  64.505  1.00  0.00    -0.096 NA 
ENDROOT
BRANCH   2   3
HETATM    3  C   UNL     1      -6.939   9.317  65.921  1.00  0.00    -0.089 C  
BRANCH   3   4
HETATM    4  C   UNL     1      -7.113   8.148  66.917  1.00  0.00    -0.078 C  
BRANCH   4   5
HETATM    5  C   UNL     1      -8.331   8.272  67.806  1.00  0.00    -0.128 A  
HETATM    6  C   UNL     1     -10.608   8.577  69.410  1.00  0.00    -0.195 A  
HETATM    7  C   UNL     1      -8.285   9.059  68.966  1.00  0.00    -0.119 A  
HETATM    8  C   UNL     1      -9.523   7.610  67.482  1.00  0.00    -0.168 A  
HETATM    9  C   UNL     1      -9.420   9.210  69.767  1.00  0.00    -0.191 A  
HETATM   10  C   UNL     1     -10.657   7.762  68.283  1.00  0.00    -0.169 A  
BRANCH   6  11
HETATM   11  N   UNL     1     -11.779   8.727  70.206  1.00  0.00    -0.465 N  
HETATM   12  H   UNL     1     -12.511   9.389  69.950  1.00  0.00     0.000 HD 
BRANCH  11  13
HETATM   13  S   UNL     1     -11.911   7.768  71.591  1.00  0.00    -0.300 S  
HETATM   14  O   UNL     1     -11.118   8.440  72.601  1.00  0.00    -0.359 OA 
HETATM   15  O   UNL     1     -11.682   6.379  71.266  1.00  0.00    -0.316 OA 
HETATM   16  C   UNL     1     -13.624   7.998  72.017  1.00  0.00    -0.248 C  
ENDBRANCH  11  13
ENDBRANCH   6  11
ENDBRANCH   4   5
ENDBRANCH   3   4
ENDBRANCH   2   3
BRANCH   2  17
HETATM   17  C   UNL     1      -8.692   9.114  64.213  1.00  0.00    -0.150 C  
BRANCH  17  18
HETATM   18  C   UNL     1      -9.316  10.486  64.513  1.00  0.00    -0.253 C  
BRANCH  18  19
HETATM   19  O   UNL     1     -10.444  10.316  65.380  1.00  0.00    -0.217 OA 
BRANCH  19  20
HETATM   20  C   UNL     1     -10.510  11.170  66.450  1.00  0.00    -0.260 A  
HETATM   21  C   UNL     1     -11.604  11.311  67.308  1.00  0.00    -0.171 A  
HETATM   22  C   UNL     1      -9.370  11.947  66.667  1.00  0.00    -0.210 A  
HETATM   23  C   UNL     1     -10.440  13.033  68.539  1.00  0.00    -0.249 A  
HETATM   24  C   UNL     1      -9.329  12.876  67.713  1.00  0.00    -0.203 A  
HETATM   25  C   UNL     1     -11.567  12.239  68.350  1.00  0.00    -0.377 A  
BRANCH  23  26
HETATM   26  N   UNL     1     -10.434  13.979  69.603  1.00  0.00    -0.419 N  
HETATM   27  H   UNL     1      -9.868  13.831  70.438  1.00  0.00     0.000 HD 
BRANCH  26  28
HETATM   28  S   UNL     1     -11.397  15.356  69.434  1.00  0.00    -0.335 S  
HETATM   29  O   UNL     1     -12.560  15.258  70.284  1.00  0.00    -0.370 OA 
HETATM   30  C   UNL     1     -11.901  15.238  67.729  1.00  0.00    -0.093 C  
HETATM   31  O   UNL     1     -10.483  16.476  69.540  1.00  0.00    -0.298 OA 
ENDBRANCH  26  28
ENDBRANCH  23  26
ENDBRANCH  19  20
ENDBRANCH  18  19
ENDBRANCH  17  18
ENDBRANCH   2  17
TORSDOF 11
ENDMDL
MODEL      158
REMARK 921   NORMALIZED FREE ENERGY PREDICTED BY IDOCK:   -4.25 KCAL/MOL
REMARK 922        TOTAL FREE ENERGY PREDICTED BY IDOCK:   -8.55 KCAL/MOL
REMARK 923 INTER-LIGAND FREE ENERGY PREDICTED BY IDOCK:   -7.00 KCAL/MOL
REMARK 924 INTRA-LIGAND FREE ENERGY PREDICTED BY IDOCK:   -1.55 KCAL/MOL
REMARK 927      BINDING AFFINITY PREDICTED BY RF-SCORE:    0.00 PKD
ROOT
HETATM    1  C   UNL     1     -13.791  13.662  72.320  1.00  0.00    -0.590 C  
HETATM    2  N   UNL     1     -13.237  12.787  71.282  1.00  0.00    -0.151 NA 
ENDROOT
BRANCH   2   3
HETATM    3  C   UNL     1     -12.829  11.478  71.836  1.00  0.00    -0.266 C  
BRANCH   3   4
HETATM    4  C   UNL     1     -13.138  10.243  70.959  1.00  0.00    -0.458 C  
BRANCH   4   5
HETATM    5  C   UNL     1     -12.068   9.176  71.000  1.00  0.00    -0.324 A  
HETATM    6  C   UNL     1     -10.089   7.191  70.987  1.00  0.00    -0.192 A  
HETATM    7  C   UNL     1     -12.420   7.818  71.012  1.00  0.00    -0.171 A  
HETATM    8  C   UNL     1     -10.711   9.524  71.020  1.00  0.00    -0.411 A  
HETATM    9  C   UNL     1     -11.434   6.828  71.007  1.00  0.00    -0.372 A  
HETATM   10  C   UNL     1      -9.725   8.535  71.014  1.00  0.00    -0.243 A  
BRANCH   6  11
HETATM   11  N   UNL     1      -9.069   6.198  70.970  1.00  0.00    -0.146 N  
HETATM   12  H   UNL     1      -8.801   5.701  71.819  1.00  0.00     0.000 HD 
BRANCH  11  13
HETATM   13  S   UNL     1      -8.317   5.874  69.492  1.00  0.00    -0.114 S  
HETATM   14  O   UNL     1      -6.939   6.287  69.663  1.00  0.00    -0.066 OA 
HETATM   15  O   UNL     1      -9.117   6.379  68.399  1.00  0.00    -0.121 OA 
HETATM   16  C   UNL     1      -8.343   4.095  69.465  1.00  0.00    -0.057 C  
ENDBRANCH  11  13
ENDBRANCH   6  11
ENDBRANCH   4   5
ENDBRANCH   3   4
ENDBRANCH   2   3
BRANCH   2  17
HETATM   17  C   UNL     1     -12.114  13.485  70.614  1.00  0.00    -0.309 C  
BRANCH  17  18
HETATM   18  C   UNL     1     -12.254  13.611  69.088  1.00  0.00    -0.224 C  
BRANCH  18  19
HETATM   19  O   UNL     1     -10.953  13.743  68.502  1.00  0.00    -0.244 OA 
BRANCH  19  20
HETATM   20  C   UNL     1     -10.609  12.781  67.587  1.00  0.00    -0.219 A  
HETATM   21  C   UNL     1     -10.061  13.023  66.325  1.00  0.00    -0.283 A  
HETATM   22  C   UNL     1     -10.841  11.463  67.988  1.00  0.00    -0.264 A  
HETATM   23  C   UNL     1     -10.043  10.653  65.860  1.00  0.00    -0.261 A  
HETATM   24  C   UNL     1     -10.555  10.396  67.130  1.00  0.00    -0.319 A  
HETATM   25  C   UNL     1      -9.778  11.960  65.465  1.00  0.00    -0.237 A  
BRANCH  23  26
HETATM   26  N   UNL     1      -9.755   9.589  64.958  1.00  0.00    -0.447 N  
HETATM   27  H   UNL     1     -10.482   9.186  64.367  1.00  0.00     0.000 HD 
BRANCH  26  28
HETATM   28  S   UNL     1      -8.166   9.018  64.900  1.00  0.00    -0.162 S  
HETATM   29  O   UNL     1      -7.405   9.550  66.005  1.00  0.00    -0.094 OA 
HETATM   30  C   UNL     1      -7.579   9.735  63.378  1.00  0.00    -0.130 C  
HETATM   31  O   UNL     1      -8.283   7.588  64.690  1.00  0.00    -0.126 OA 
ENDBRANCH  26  28
ENDBRANCH  23  26
ENDBRANCH  19  20
ENDBRANCH  18  19
ENDBRANCH  17  18
ENDBRANCH   2  17
TORSDOF 11
ENDMDL
MODEL      159
REMARK 921   NORMALIZED FREE ENERGY PREDICTED BY IDOCK:   -4.22 KCAL/MOL
REMARK 922        TOTAL FREE ENERGY PREDICTED BY IDOCK:   -8.49 KCAL/MOL
REMARK 923 INTER-LIGAND FREE ENERGY PREDICTED BY IDOCK:   -6.85 KCAL/MOL
REMARK 924 INTRA-LIGAND FREE ENERGY PREDICTED BY IDOCK:   -1.65 KCAL/MOL
REMARK 927      BINDING AFFINITY PREDICTED BY RF-SCORE:    0.00 PKD
ROOT
HETATM    1  C   UNL     1     -13.386  12.470  72.026  1.00  0.00    -0.426 C  
HETATM    2  N   UNL     1     -12.623  11.355  71.455  1.00  0.00    -0.328 NA 
ENDROOT
BRANCH   2   3
HETATM    3  C   UNL     1     -11.943  11.749  70.202  1.00  0.00    -0.339 C  
BRANCH   3   4
HETATM    4  C   UNL     1     -12.160  10.814  68.990  1.00  0.00    -0.170 C  
BRANCH   4   5
HETATM    5  C   UNL     1     -11.024  10.826  67.991  1.00  0.00    -0.336 A  
HETATM    6  C   UNL     1      -8.978  10.829  66.077  1.00  0.00    -0.181 A  
HETATM    7  C   UNL     1     -10.382   9.631  67.632  1.00  0.00    -0.290 A  
HETATM    8  C   UNL     1     -10.600  12.026  67.405  1.00  0.00    -0.253 A  
HETATM    9  C   UNL     1      -9.361   9.632  66.679  1.00  0.00    -0.200 A  
HETATM   10  C   UNL     1      -9.579  12.027  66.452  1.00  0.00    -0.239 A  
BRANCH   6  11
HETATM   11  N   UNL     1      -7.947  10.850  65.095  1.00  0.00    -0.360 N  
HETATM   12  H   UNL     1      -7.027  11.240  65.302  1.00  0.00     0.000 HD 
BRANCH  11  13
HETATM   13  S   UNL     1      -8.302  10.206  63.574  1.00  0.00    -0.178 S  
HETATM   14  O   UNL     1      -9.212  11.152  62.959  1.00  0.00    -0.286 OA 
HETATM   15  O   UNL     1      -8.645   8.807  63.687  1.00  0.00    -0.152 OA 
HETATM   16  C   UNL     1      -6.733  10.361  62.749  1.00  0.00    -0.122 C  
ENDBRANCH  11  13
ENDBRANCH   6  11
ENDBRANCH   4   5
ENDBRANCH   3   4
ENDBRANCH   2   3
BRANCH   2  17
HETATM   17  C   UNL     1     -13.529  10.200  71.259  1.00  0.00    -0.228 C  
BRANCH  17  18
HETATM   18  C   UNL     1     -13.452   9.131  72.360  1.00  0.00    -0.476 C  
BRANCH  18  19
HETATM   19  O   UNL     1     -13.079   7.876  71.778  1.00  0.00    -0.323 OA 
BRANCH  19  20
HETATM   20  C   UNL     1     -11.753   7.735  71.460  1.00  0.00    -0.280 A  
HETATM   21  C   UNL     1     -11.258   7.144  70.294  1.00  0.00    -0.309 A  
HETATM   22  C   UNL     1     -10.854   8.236  72.405  1.00  0.00    -0.421 A  
HETATM   23  C   UNL     1      -8.993   7.502  71.055  1.00  0.00    -0.147 A  
HETATM   24  C   UNL     1      -9.474   8.126  72.204  1.00  0.00    -0.291 A  
HETATM   25  C   UNL     1      -9.881   7.030  70.093  1.00  0.00    -0.179 A  
BRANCH  23  26
HETATM   26  N   UNL     1      -7.594   7.362  70.828  1.00  0.00    -0.082 N  
HETATM   27  H   UNL     1      -7.084   6.545  71.164  1.00  0.00     0.000 HD 
BRANCH  26  28
HETATM   28  S   UNL     1      -6.808   8.597  69.985  1.00  0.00    -0.043 S  
HETATM   29  O   UNL     1      -7.681   9.739  69.845  1.00  0.00    -0.120 OA 
HETATM   30  C   UNL     1      -6.562   7.844  68.389  1.00  0.00    -0.062 C  
HETATM   31  O   UNL     1      -5.507   8.719  70.613  1.00  0.00    -0.027 OA 
ENDBRANCH  26  28
ENDBRANCH  23  26
ENDBRANCH  19  20
ENDBRANCH  18  19
ENDBRANCH  17  18
ENDBRANCH   2  17
TORSDOF 11
ENDMDL
MODEL      160
REMARK 921   NORMALIZED FREE ENERGY PREDICTED BY IDOCK:   -4.20 KCAL/MOL
REMARK 922        TOTAL FREE ENERGY PREDICTED BY IDOCK:   -8.47 KCAL/MOL
REMARK 923 INTER-LIGAND FREE ENERGY PREDICTED BY IDOCK:   -7.93 KCAL/MOL
REMARK 924 INTRA-LIGAND FREE ENERGY PREDICTED BY IDOCK:   -0.54 KCAL/MOL
REMARK 927      BINDING AFFINITY PREDICTED BY RF-SCORE:    0.00 PKD
ROOT
HETATM    1  C   UNL     1      -9.054   8.729  71.646  1.00  0.00    -0.244 C  
HETATM    2  N   UNL     1      -9.306   9.328  70.331  1.00  0.00    -0.231 NA 
ENDROOT
BRANCH   2   3
HETATM    3  C   UNL     1     -10.379   8.614  69.607  1.00  0.00    -0.213 C  
BRANCH   3   4
HETATM    4  C   UNL     1     -10.085   8.266  68.130  1.00  0.00    -0.238 C  
BRANCH   4   5
HETATM    5  C   UNL     1     -10.327   9.408  67.168  1.00  0.00    -0.326 A  
HETATM    6  C   UNL     1     -10.703  11.566  65.420  1.00  0.00    -0.278 A  
HETATM    7  C   UNL     1     -11.084  10.521  67.562  1.00  0.00    -0.358 A  
HETATM    8  C   UNL     1      -9.793   9.376  65.872  1.00  0.00    -0.362 A  
HETATM    9  C   UNL     1     -11.273  11.596  66.691  1.00  0.00    -0.362 A  
HETATM   10  C   UNL     1      -9.982  10.452  65.002  1.00  0.00    -0.399 A  
BRANCH   6  11
HETATM   11  N   UNL     1     -10.875  12.657  64.521  1.00  0.00    -0.316 N  
HETATM   12  H   UNL     1     -10.073  13.114  64.086  1.00  0.00     0.000 HD 
BRANCH  11  13
HETATM   13  S   UNL     1     -12.453  13.166  64.201  1.00  0.00    -0.230 S  
HETATM   14  O   UNL     1     -13.250  11.956  64.178  1.00  0.00    -0.645 OA 
HETATM   15  O   UNL     1     -12.469  14.090  63.090  1.00  0.00    -0.733 OA 
HETATM   16  C   UNL     1     -12.853  14.040  65.699  1.00  0.00    -0.406 C  
ENDBRANCH  11  13
ENDBRANCH   6  11
ENDBRANCH   4   5
ENDBRANCH   3   4
ENDBRANCH   2   3
BRANCH   2  17
HETATM   17  C   UNL     1      -8.039   9.357  69.564  1.00  0.00    -0.114 C  
BRANCH  17  18
HETATM   18  C   UNL     1      -7.224  10.651  69.721  1.00  0.00    -0.131 C  
BRANCH  18  19
HETATM   19  O   UNL     1      -7.052  11.263  68.437  1.00  0.00    -0.072 OA 
BRANCH  19  20
HETATM   20  C   UNL     1      -7.423  12.580  68.347  1.00  0.00    -0.127 A  
HETATM   21  C   UNL     1      -8.193  13.136  67.322  1.00  0.00    -0.172 A  
HETATM   22  C   UNL     1      -6.976  13.400  69.386  1.00  0.00     0.067 A  
HETATM   23  C   UNL     1      -8.006  15.318  68.344  1.00  0.00    -0.131 A  
HETATM   24  C   UNL     1      -7.269  14.768  69.390  1.00  0.00    -0.168 A  
HETATM   25  C   UNL     1      -8.483  14.502  67.322  1.00  0.00    -0.234 A  
BRANCH  23  26
HETATM   26  N   UNL     1      -8.308  16.709  68.313  1.00  0.00    -0.191 N  
HETATM   27  H   UNL     1      -7.574  17.406  68.192  1.00  0.00     0.000 HD 
BRANCH  26  28
HETATM   28  S   UNL     1      -9.926  17.164  68.481  1.00  0.00    -0.328 S  
HETATM   29  O   UNL     1     -10.014  18.539  68.916  1.00  0.00    -0.384 OA 
HETATM   30  C   UNL     1     -10.468  16.093  69.798  1.00  0.00    -0.286 C  
HETATM   31  O   UNL     1     -10.576  16.720  67.265  1.00  0.00    -0.320 OA 
ENDBRANCH  26  28
ENDBRANCH  23  26
ENDBRANCH  19  20
ENDBRANCH  18  19
ENDBRANCH  17  18
ENDBRANCH   2  17
TORSDOF 11
ENDMDL
MODEL      161
REMARK 921   NORMALIZED FREE ENERGY PREDICTED BY IDOCK:   -4.20 KCAL/MOL
REMARK 922        TOTAL FREE ENERGY PREDICTED BY IDOCK:   -8.47 KCAL/MOL
REMARK 923 INTER-LIGAND FREE ENERGY PREDICTED BY IDOCK:   -8.02 KCAL/MOL
REMARK 924 INTRA-LIGAND FREE ENERGY PREDICTED BY IDOCK:   -0.45 KCAL/MOL
REMARK 927      BINDING AFFINITY PREDICTED BY RF-SCORE:    0.00 PKD
ROOT
HETATM    1  C   UNL     1     -11.714  12.503  69.287  1.00  0.00    -0.321 C  
HETATM    2  N   UNL     1     -10.773  12.465  68.163  1.00  0.00    -0.213 NA 
ENDROOT
BRANCH   2   3
HETATM    3  C   UNL     1     -11.464  12.667  66.871  1.00  0.00    -0.343 C  
BRANCH   3   4
HETATM    4  C   UNL     1     -11.977  14.099  66.592  1.00  0.00    -0.470 C  
BRANCH   4   5
HETATM    5  C   UNL     1     -10.974  15.185  66.908  1.00  0.00    -0.323 A  
HETATM    6  C   UNL     1      -9.158  17.253  67.439  1.00  0.00    -0.226 A  
HETATM    7  C   UNL     1      -9.843  15.366  66.099  1.00  0.00    -0.337 A  
HETATM    8  C   UNL     1     -11.161  16.032  68.009  1.00  0.00    -0.303 A  
HETATM    9  C   UNL     1      -8.936  16.395  66.363  1.00  0.00    -0.340 A  
HETATM   10  C   UNL     1     -10.256  17.062  68.273  1.00  0.00    -0.326 A  
BRANCH   6  11
HETATM   11  N   UNL     1      -8.253  18.316  67.719  1.00  0.00    -0.244 N  
HETATM   12  H   UNL     1      -7.656  18.297  68.547  1.00  0.00     0.000 HD 
BRANCH  11  13
HETATM   13  S   UNL     1      -8.202  19.607  66.631  1.00  0.00    -0.334 S  
HETATM   14  O   UNL     1      -7.504  19.102  65.466  1.00  0.00    -0.462 OA 
HETATM   15  O   UNL     1      -7.764  20.811  67.299  1.00  0.00    -0.348 OA 
HETATM   16  C   UNL     1      -9.920  19.769  66.195  1.00  0.00    -0.473 C  
ENDBRANCH  11  13
ENDBRANCH   6  11
ENDBRANCH   4   5
ENDBRANCH   3   4
ENDBRANCH   2   3
BRANCH   2  17
HETATM   17  C   UNL     1     -10.027  11.186  68.202  1.00  0.00    -0.178 C  
BRANCH  17  18
HETATM   18  C   UNL     1     -10.751  10.001  67.544  1.00  0.00    -0.281 C  
BRANCH  18  19
HETATM   19  O   UNL     1     -10.623   8.844  68.379  1.00  0.00    -0.206 OA 
BRANCH  19  20
HETATM   20  C   UNL     1     -10.299   7.676  67.737  1.00  0.00    -0.219 A  
HETATM   21  C   UNL     1     -10.812   6.413  68.044  1.00  0.00    -0.396 A  
HETATM   22  C   UNL     1      -9.376   7.802  66.696  1.00  0.00    -0.238 A  
HETATM   23  C   UNL     1      -9.439   5.418  66.324  1.00  0.00    -0.157 A  
HETATM   24  C   UNL     1      -8.947   6.676  65.984  1.00  0.00    -0.131 A  
HETATM   25  C   UNL     1     -10.384   5.288  67.338  1.00  0.00    -0.237 A  
BRANCH  23  26
HETATM   26  N   UNL     1      -9.011   4.251  65.627  1.00  0.00    -0.125 N  
HETATM   27  H   UNL     1      -8.233   3.688  65.970  1.00  0.00     0.000 HD 
BRANCH  26  28
HETATM   28  S   UNL     1      -9.837   3.834  64.215  1.00  0.00    -0.196 S  
HETATM   29  O   UNL     1     -11.262   3.960  64.414  1.00  0.00    -0.328 OA 
HETATM   30  C   UNL     1      -9.415   2.111  64.045  1.00  0.00    -0.125 C  
HETATM   31  O   UNL     1      -9.163   4.553  63.152  1.00  0.00    -0.141 OA 
ENDBRANCH  26  28
ENDBRANCH  23  26
ENDBRANCH  19  20
ENDBRANCH  18  19
ENDBRANCH  17  18
ENDBRANCH   2  17
TORSDOF 11
ENDMDL
MODEL      162
REMARK 921   NORMALIZED FREE ENERGY PREDICTED BY IDOCK:   -4.20 KCAL/MOL
REMARK 922        TOTAL FREE ENERGY PREDICTED BY IDOCK:   -8.47 KCAL/MOL
REMARK 923 INTER-LIGAND FREE ENERGY PREDICTED BY IDOCK:   -7.94 KCAL/MOL
REMARK 924 INTRA-LIGAND FREE ENERGY PREDICTED BY IDOCK:   -0.53 KCAL/MOL
REMARK 927      BINDING AFFINITY PREDICTED BY RF-SCORE:    0.00 PKD
ROOT
HETATM    1  C   UNL     1      -9.323  18.766  66.365  1.00  0.00    -0.312 C  
HETATM    2  N   UNL     1      -9.394  17.397  66.886  1.00  0.00    -0.255 NA 
ENDROOT
BRANCH   2   3
HETATM    3  C   UNL     1      -8.220  17.075  67.725  1.00  0.00    -0.192 C  
BRANCH   3   4
HETATM    4  C   UNL     1      -8.245  15.698  68.428  1.00  0.00    -0.146 C  
BRANCH   4   5
HETATM    5  C   UNL     1      -9.586  15.335  69.026  1.00  0.00    -0.237 A  
HETATM    6  C   UNL     1     -12.109  14.686  70.057  1.00  0.00    -0.329 A  
HETATM    7  C   UNL     1     -10.391  16.322  69.615  1.00  0.00    -0.261 A  
HETATM    8  C   UNL     1     -10.048  14.013  68.995  1.00  0.00    -0.066 A  
HETATM    9  C   UNL     1     -11.648  15.999  70.130  1.00  0.00    -0.324 A  
HETATM   10  C   UNL     1     -11.306  13.690  69.510  1.00  0.00    -0.276 A  
BRANCH   6  11
HETATM   11  N   UNL     1     -13.393  14.337  70.566  1.00  0.00    -0.353 N  
HETATM   12  H   UNL     1     -14.189  14.199  69.943  1.00  0.00     0.000 HD 
BRANCH  11  13
HETATM   13  S   UNL     1     -13.549  14.162  72.239  1.00  0.00    -0.547 S  
HETATM   14  O   UNL     1     -12.202  14.259  72.763  1.00  0.00    -0.082 OA 
HETATM   15  O   UNL     1     -14.391  13.029  72.550  1.00  0.00    -0.548 OA 
HETATM   16  C   UNL     1     -14.401  15.663  72.673  1.00  0.00    -0.134 C  
ENDBRANCH  11  13
ENDBRANCH   6  11
ENDBRANCH   4   5
ENDBRANCH   3   4
ENDBRANCH   2   3
BRANCH   2  17
HETATM   17  C   UNL     1      -9.543  16.457  65.750  1.00  0.00    -0.192 C  
BRANCH  17  18
HETATM   18  C   UNL     1     -10.831  15.619  65.777  1.00  0.00    -0.306 C  
BRANCH  18  19
HETATM   19  O   UNL     1     -10.945  14.885  64.551  1.00  0.00    -0.322 OA 
BRANCH  19  20
HETATM   20  C   UNL     1     -10.688  13.540  64.634  1.00  0.00    -0.416 A  
HETATM   21  C   UNL     1     -10.861  12.618  63.598  1.00  0.00    -0.437 A  
HETATM   22  C   UNL     1     -10.218  13.095  65.872  1.00  0.00    -0.294 A  
HETATM   23  C   UNL     1     -10.157  10.824  65.056  1.00  0.00    -0.313 A  
HETATM   24  C   UNL     1      -9.946  11.739  66.085  1.00  0.00    -0.254 A  
HETATM   25  C   UNL     1     -10.594  11.264  63.809  1.00  0.00    -0.455 A  
BRANCH  23  26
HETATM   26  N   UNL     1      -9.903   9.436  65.246  1.00  0.00    -0.438 N  
HETATM   27  H   UNL     1     -10.657   8.750  65.199  1.00  0.00     0.000 HD 
BRANCH  26  28
HETATM   28  S   UNL     1      -8.310   8.964  65.552  1.00  0.00    -0.145 S  
HETATM   29  O   UNL     1      -7.397  10.018  65.177  1.00  0.00    -0.127 OA 
HETATM   30  C   UNL     1      -8.119   7.591  64.434  1.00  0.00    -0.074 C  
HETATM   31  O   UNL     1      -8.324   8.429  66.899  1.00  0.00    -0.105 OA 
ENDBRANCH  26  28
ENDBRANCH  23  26
ENDBRANCH  19  20
ENDBRANCH  18  19
ENDBRANCH  17  18
ENDBRANCH   2  17
TORSDOF 11
ENDMDL
MODEL      163
REMARK 921   NORMALIZED FREE ENERGY PREDICTED BY IDOCK:   -4.19 KCAL/MOL
REMARK 922        TOTAL FREE ENERGY PREDICTED BY IDOCK:   -8.44 KCAL/MOL
REMARK 923 INTER-LIGAND FREE ENERGY PREDICTED BY IDOCK:   -7.71 KCAL/MOL
REMARK 924 INTRA-LIGAND FREE ENERGY PREDICTED BY IDOCK:   -0.74 KCAL/MOL
REMARK 927      BINDING AFFINITY PREDICTED BY RF-SCORE:    0.00 PKD
ROOT
HETATM    1  C   UNL     1      -9.733  12.270  68.234  1.00  0.00    -0.219 C  
HETATM    2  N   UNL     1     -11.180  12.392  68.028  1.00  0.00    -0.248 NA 
ENDROOT
BRANCH   2   3
HETATM    3  C   UNL     1     -11.922  11.346  68.764  1.00  0.00    -0.287 C  
BRANCH   3   4
HETATM    4  C   UNL     1     -11.185  10.705  69.962  1.00  0.00    -0.382 C  
BRANCH   4   5
HETATM    5  C   UNL     1     -11.041   9.203  69.865  1.00  0.00    -0.175 A  
HETATM    6  C   UNL     1     -10.690   6.427  69.714  1.00  0.00    -0.283 A  
HETATM    7  C   UNL     1     -10.476   8.616  68.722  1.00  0.00    -0.209 A  
HETATM    8  C   UNL     1     -11.461   8.375  70.914  1.00  0.00    -0.295 A  
HETATM    9  C   UNL     1     -10.302   7.232  68.646  1.00  0.00    -0.208 A  
HETATM   10  C   UNL     1     -11.287   6.991  70.838  1.00  0.00    -0.334 A  
BRANCH   6  11
HETATM   11  N   UNL     1     -10.512   5.015  69.662  1.00  0.00    -0.202 N  
HETATM   12  H   UNL     1     -11.301   4.388  69.505  1.00  0.00     0.000 HD 
BRANCH  11  13
HETATM   13  S   UNL     1      -8.945   4.417  69.868  1.00  0.00    -0.102 S  
HETATM   14  O   UNL     1      -9.105   3.145  70.544  1.00  0.00    -0.097 OA 
HETATM   15  O   UNL     1      -8.080   5.443  70.404  1.00  0.00    -0.097 OA 
HETATM   16  C   UNL     1      -8.475   4.071  68.186  1.00  0.00    -0.093 C  
ENDBRANCH  11  13
ENDBRANCH   6  11
ENDBRANCH   4   5
ENDBRANCH   3   4
ENDBRANCH   2   3
BRANCH   2  17
HETATM   17  C   UNL     1     -11.464  12.359  66.575  1.00  0.00    -0.371 C  
BRANCH  17  18
HETATM   18  C   UNL     1     -11.647  13.741  65.926  1.00  0.00    -0.333 C  
BRANCH  18  19
HETATM   19  O   UNL     1     -11.801  14.730  66.951  1.00  0.00    -0.354 OA 
BRANCH  19  20
HETATM   20  C   UNL     1     -10.815  15.681  67.016  1.00  0.00    -0.294 A  
HETATM   21  C   UNL     1      -9.953  16.028  65.972  1.00  0.00    -0.365 A  
HETATM   22  C   UNL     1     -10.695  16.335  68.245  1.00  0.00    -0.322 A  
HETATM   23  C   UNL     1      -8.831  17.617  67.404  1.00  0.00    -0.235 A  
HETATM   24  C   UNL     1      -9.708  17.307  68.441  1.00  0.00    -0.293 A  
HETATM   25  C   UNL     1      -8.965  16.994  66.167  1.00  0.00    -0.243 A  
BRANCH  23  26
HETATM   26  N   UNL     1      -7.807  18.592  67.577  1.00  0.00    -0.231 N  
HETATM   27  H   UNL     1      -6.990  18.401  68.158  1.00  0.00     0.000 HD 
BRANCH  26  28
HETATM   28  S   UNL     1      -7.992  20.073  66.788  1.00  0.00    -0.316 S  
HETATM   29  O   UNL     1      -7.769  19.914  65.371  1.00  0.00    -0.356 OA 
HETATM   30  C   UNL     1      -6.661  21.026  67.492  1.00  0.00    -0.377 C  
HETATM   31  O   UNL     1      -9.234  20.623  67.295  1.00  0.00    -0.384 OA 
ENDBRANCH  26  28
ENDBRANCH  23  26
ENDBRANCH  19  20
ENDBRANCH  18  19
ENDBRANCH  17  18
ENDBRANCH   2  17
TORSDOF 11
ENDMDL
MODEL      164
REMARK 921   NORMALIZED FREE ENERGY PREDICTED BY IDOCK:   -4.19 KCAL/MOL
REMARK 922        TOTAL FREE ENERGY PREDICTED BY IDOCK:   -8.44 KCAL/MOL
REMARK 923 INTER-LIGAND FREE ENERGY PREDICTED BY IDOCK:   -7.93 KCAL/MOL
REMARK 924 INTRA-LIGAND FREE ENERGY PREDICTED BY IDOCK:   -0.51 KCAL/MOL
REMARK 927      BINDING AFFINITY PREDICTED BY RF-SCORE:    0.00 PKD
ROOT
HETATM    1  C   UNL     1     -12.395  13.819  70.449  1.00  0.00    -0.353 C  
HETATM    2  N   UNL     1     -11.587  12.868  69.679  1.00  0.00    -0.274 NA 
ENDROOT
BRANCH   2   3
HETATM    3  C   UNL     1     -11.368  13.338  68.294  1.00  0.00    -0.300 C  
BRANCH   3   4
HETATM    4  C   UNL     1     -11.882  14.760  67.971  1.00  0.00    -0.324 C  
BRANCH   4   5
HETATM    5  C   UNL     1     -10.795  15.810  67.913  1.00  0.00    -0.314 A  
HETATM    6  C   UNL     1      -8.735  17.709  67.868  1.00  0.00    -0.245 A  
HETATM    7  C   UNL     1     -10.774  16.861  68.842  1.00  0.00    -0.321 A  
HETATM    8  C   UNL     1      -9.790  15.746  66.939  1.00  0.00    -0.243 A  
HETATM    9  C   UNL     1      -9.748  17.809  68.819  1.00  0.00    -0.314 A  
HETATM   10  C   UNL     1      -8.764  16.694  66.916  1.00  0.00    -0.241 A  
BRANCH   6  11
HETATM   11  N   UNL     1      -7.674  18.658  67.834  1.00  0.00    -0.251 N  
HETATM   12  H   UNL     1      -6.847  18.548  68.422  1.00  0.00     0.000 HD 
BRANCH  11  13
HETATM   13  S   UNL     1      -7.833  19.973  66.786  1.00  0.00    -0.317 S  
HETATM   14  O   UNL     1      -9.041  20.655  67.205  1.00  0.00    -0.367 OA 
HETATM   15  O   UNL     1      -7.654  19.550  65.415  1.00  0.00    -0.401 OA 
HETATM   16  C   UNL     1      -6.452  20.984  67.274  1.00  0.00    -0.351 C  
ENDBRANCH  11  13
ENDBRANCH   6  11
ENDBRANCH   4   5
ENDBRANCH   3   4
ENDBRANCH   2   3
BRANCH   2  17
HETATM   17  C   UNL     1     -12.240  11.538  69.719  1.00  0.00    -0.244 C  
BRANCH  17  18
HETATM   18  C   UNL     1     -11.604  10.541  70.700  1.00  0.00    -0.352 C  
BRANCH  18  19
HETATM   19  O   UNL     1     -12.402   9.352  70.753  1.00  0.00    -0.236 OA 
BRANCH  19  20
HETATM   20  C   UNL     1     -11.813   8.262  71.340  1.00  0.00    -0.293 A  
HETATM   21  C   UNL     1     -11.467   8.157  72.690  1.00  0.00    -0.454 A  
HETATM   22  C   UNL     1     -11.553   7.188  70.484  1.00  0.00    -0.331 A  
HETATM   23  C   UNL     1     -10.557   5.953  72.303  1.00  0.00    -0.217 A  
HETATM   24  C   UNL     1     -10.930   6.031  70.963  1.00  0.00    -0.350 A  
HETATM   25  C   UNL     1     -10.842   7.005  73.169  1.00  0.00    -0.350 A  
BRANCH  23  26
HETATM   26  N   UNL     1      -9.908   4.794  72.817  1.00  0.00    -0.141 N  
HETATM   27  H   UNL     1     -10.430   4.079  73.324  1.00  0.00     0.000 HD 
BRANCH  26  28
HETATM   28  S   UNL     1      -8.246   4.644  72.558  1.00  0.00    -0.115 S  
HETATM   29  O   UNL     1      -7.996   3.910  71.341  1.00  0.00    -0.065 OA 
HETATM   30  C   UNL     1      -7.750   3.658  73.956  1.00  0.00    -0.070 C  
HETATM   31  O   UNL     1      -7.708   5.976  72.754  1.00  0.00    -0.101 OA 
ENDBRANCH  26  28
ENDBRANCH  23  26
ENDBRANCH  19  20
ENDBRANCH  18  19
ENDBRANCH  17  18
ENDBRANCH   2  17
TORSDOF 11
ENDMDL
MODEL      165
REMARK 921   NORMALIZED FREE ENERGY PREDICTED BY IDOCK:   -4.19 KCAL/MOL
REMARK 922        TOTAL FREE ENERGY PREDICTED BY IDOCK:   -8.44 KCAL/MOL
REMARK 923 INTER-LIGAND FREE ENERGY PREDICTED BY IDOCK:   -7.70 KCAL/MOL
REMARK 924 INTRA-LIGAND FREE ENERGY PREDICTED BY IDOCK:   -0.74 KCAL/MOL
REMARK 927      BINDING AFFINITY PREDICTED BY RF-SCORE:    0.00 PKD
ROOT
HETATM    1  C   UNL     1     -11.097   7.476  72.853  1.00  0.00    -0.375 C  
HETATM    2  N   UNL     1      -9.788   7.760  72.255  1.00  0.00    -0.179 NA 
ENDROOT
BRANCH   2   3
HETATM    3  C   UNL     1      -9.813   9.009  71.464  1.00  0.00    -0.310 C  
BRANCH   3   4
HETATM    4  C   UNL     1     -11.211   9.598  71.168  1.00  0.00    -0.454 C  
BRANCH   4   5
HETATM    5  C   UNL     1     -11.299  10.350  69.859  1.00  0.00    -0.370 A  
HETATM    6  C   UNL     1     -11.540  11.705  67.418  1.00  0.00    -0.254 A  
HETATM    7  C   UNL     1     -10.881   9.746  68.664  1.00  0.00    -0.223 A  
HETATM    8  C   UNL     1     -11.804  11.656  69.817  1.00  0.00    -0.428 A  
HETATM    9  C   UNL     1     -10.999  10.421  67.447  1.00  0.00    -0.335 A  
HETATM   10  C   UNL     1     -11.924  12.331  68.600  1.00  0.00    -0.276 A  
BRANCH   6  11
HETATM   11  N   UNL     1     -11.680  12.406  66.186  1.00  0.00    -0.403 N  
HETATM   12  H   UNL     1     -12.509  12.289  65.603  1.00  0.00     0.000 HD 
BRANCH  11  13
HETATM   13  S   UNL     1     -10.425  13.439  65.727  1.00  0.00    -0.295 S  
HETATM   14  O   UNL     1     -10.374  13.364  64.281  1.00  0.00    -0.420 OA 
HETATM   15  O   UNL     1      -9.249  13.190  66.529  1.00  0.00    -0.241 OA 
HETATM   16  C   UNL     1     -11.102  15.029  66.156  1.00  0.00    -0.329 C  
ENDBRANCH  11  13
ENDBRANCH   6  11
ENDBRANCH   4   5
ENDBRANCH   3   4
ENDBRANCH   2   3
BRANCH   2  17
HETATM   17  C   UNL     1      -9.366   6.595  71.444  1.00  0.00    -0.151 C  
BRANCH  17  18
HETATM   18  C   UNL     1     -10.516   5.843  70.755  1.00  0.00    -0.248 C  
BRANCH  18  19
HETATM   19  O   UNL     1     -10.789   6.453  69.487  1.00  0.00    -0.252 OA 
BRANCH  19  20
HETATM   20  C   UNL     1     -10.513   5.687  68.383  1.00  0.00    -0.195 A  
HETATM   21  C   UNL     1     -10.893   5.988  67.073  1.00  0.00    -0.413 A  
HETATM   22  C   UNL     1      -9.791   4.517  68.632  1.00  0.00    -0.168 A  
HETATM   23  C   UNL     1      -9.890   3.934  66.292  1.00  0.00    -0.112 A  
HETATM   24  C   UNL     1      -9.473   3.641  67.589  1.00  0.00    -0.234 A  
HETATM   25  C   UNL     1     -10.580   5.114  66.030  1.00  0.00    -0.236 A  
BRANCH  23  26
HETATM   26  N   UNL     1      -9.593   3.056  65.211  1.00  0.00    -0.333 N  
HETATM   27  H   UNL     1      -9.699   2.046  65.307  1.00  0.00     0.000 HD 
BRANCH  26  28
HETATM   28  S   UNL     1      -9.062   3.744  63.763  1.00  0.00    -0.122 S  
HETATM   29  O   UNL     1     -10.182   3.986  62.885  1.00  0.00    -0.170 OA 
HETATM   30  C   UNL     1      -8.056   2.437  63.089  1.00  0.00    -0.069 C  
HETATM   31  O   UNL     1      -8.171   4.818  64.156  1.00  0.00    -0.105 OA 
ENDBRANCH  26  28
ENDBRANCH  23  26
ENDBRANCH  19  20
ENDBRANCH  18  19
ENDBRANCH  17  18
ENDBRANCH   2  17
TORSDOF 11
ENDMDL
MODEL      166
REMARK 921   NORMALIZED FREE ENERGY PREDICTED BY IDOCK:   -4.18 KCAL/MOL
REMARK 922        TOTAL FREE ENERGY PREDICTED BY IDOCK:   -8.43 KCAL/MOL
REMARK 923 INTER-LIGAND FREE ENERGY PREDICTED BY IDOCK:   -6.15 KCAL/MOL
REMARK 924 INTRA-LIGAND FREE ENERGY PREDICTED BY IDOCK:   -2.28 KCAL/MOL
REMARK 927      BINDING AFFINITY PREDICTED BY RF-SCORE:    0.00 PKD
ROOT
HETATM    1  C   UNL     1     -12.149  14.914  64.416  1.00  0.00    -0.401 C  
HETATM    2  N   UNL     1     -11.679  13.874  65.337  1.00  0.00    -0.328 NA 
ENDROOT
BRANCH   2   3
HETATM    3  C   UNL     1     -12.113  12.529  64.903  1.00  0.00    -0.440 C  
BRANCH   3   4
HETATM    4  C   UNL     1     -10.989  11.552  64.489  1.00  0.00    -0.367 C  
BRANCH   4   5
HETATM    5  C   UNL     1     -10.557  10.607  65.588  1.00  0.00    -0.175 A  
HETATM    6  C   UNL     1      -9.687   8.909  67.640  1.00  0.00    -0.161 A  
HETATM    7  C   UNL     1      -9.617   9.599  65.328  1.00  0.00    -0.347 A  
HETATM    8  C   UNL     1     -11.082  10.727  66.881  1.00  0.00    -0.204 A  
HETATM    9  C   UNL     1      -9.183   8.751  66.351  1.00  0.00    -0.241 A  
HETATM   10  C   UNL     1     -10.649   9.880  67.903  1.00  0.00    -0.303 A  
BRANCH   6  11
HETATM   11  N   UNL     1      -9.250   8.063  68.699  1.00  0.00    -0.143 N  
HETATM   12  H   UNL     1      -8.277   8.058  69.005  1.00  0.00     0.000 HD 
BRANCH  11  13
HETATM   13  S   UNL     1     -10.403   7.067  69.430  1.00  0.00    -0.213 S  
HETATM   14  O   UNL     1     -11.132   6.456  68.337  1.00  0.00    -0.315 OA 
HETATM   15  O   UNL     1     -11.093   7.781  70.480  1.00  0.00    -0.254 OA 
HETATM   16  C   UNL     1      -9.373   5.808  70.154  1.00  0.00    -0.155 C  
ENDBRANCH  11  13
ENDBRANCH   6  11
ENDBRANCH   4   5
ENDBRANCH   3   4
ENDBRANCH   2   3
BRANCH   2  17
HETATM   17  C   UNL     1     -12.144  14.197  66.706  1.00  0.00    -0.442 C  
BRANCH  17  18
HETATM   18  C   UNL     1     -11.155  15.025  67.541  1.00  0.00    -0.317 C  
BRANCH  18  19
HETATM   19  O   UNL     1      -9.861  14.977  66.929  1.00  0.00    -0.230 OA 
BRANCH  19  20
HETATM   20  C   UNL     1      -8.920  14.218  67.577  1.00  0.00    -0.196 A  
HETATM   21  C   UNL     1      -8.289  14.561  68.776  1.00  0.00    -0.149 A  
HETATM   22  C   UNL     1      -8.594  13.011  66.956  1.00  0.00    -0.165 A  
HETATM   23  C   UNL     1      -6.979  12.534  68.685  1.00  0.00    -0.091 A  
HETATM   24  C   UNL     1      -7.627  12.164  67.509  1.00  0.00    -0.151 A  
HETATM   25  C   UNL     1      -7.322  13.720  69.328  1.00  0.00     0.091 A  
BRANCH  23  26
HETATM   26  N   UNL     1      -5.981  11.700  69.266  1.00  0.00    -0.064 N  
HETATM   27  H   UNL     1      -5.015  12.016  69.356  1.00  0.00     0.000 HD 
BRANCH  26  28
HETATM   28  S   UNL     1      -6.451  10.168  69.799  1.00  0.00    -0.086 S  
HETATM   29  O   UNL     1      -7.779  10.223  70.364  1.00  0.00    -0.194 OA 
HETATM   30  C   UNL     1      -5.271   9.859  71.098  1.00  0.00    -0.061 C  
HETATM   31  O   UNL     1      -6.138   9.270  68.705  1.00  0.00    -0.043 OA 
ENDBRANCH  26  28
ENDBRANCH  23  26
ENDBRANCH  19  20
ENDBRANCH  18  19
ENDBRANCH  17  18
ENDBRANCH   2  17
TORSDOF 11
ENDMDL
MODEL      167
REMARK 921   NORMALIZED FREE ENERGY PREDICTED BY IDOCK:   -4.15 KCAL/MOL
REMARK 922        TOTAL FREE ENERGY PREDICTED BY IDOCK:   -8.38 KCAL/MOL
REMARK 923 INTER-LIGAND FREE ENERGY PREDICTED BY IDOCK:   -7.76 KCAL/MOL
REMARK 924 INTRA-LIGAND FREE ENERGY PREDICTED BY IDOCK:   -0.61 KCAL/MOL
REMARK 927      BINDING AFFINITY PREDICTED BY RF-SCORE:    0.00 PKD
ROOT
HETATM    1  C   UNL     1      -9.126  12.021  68.608  1.00  0.00    -0.025 C  
HETATM    2  N   UNL     1     -10.578  11.843  68.706  1.00  0.00    -0.219 NA 
ENDROOT
BRANCH   2   3
HETATM    3  C   UNL     1     -10.929  10.747  69.635  1.00  0.00    -0.264 C  
BRANCH   3   4
HETATM    4  C   UNL     1      -9.899   9.602  69.754  1.00  0.00    -0.253 C  
BRANCH   4   5
HETATM    5  C   UNL     1     -10.142   8.452  68.803  1.00  0.00    -0.209 A  
HETATM    6  C   UNL     1     -10.513   6.291  67.058  1.00  0.00    -0.278 A  
HETATM    7  C   UNL     1      -9.706   8.527  67.471  1.00  0.00    -0.209 A  
HETATM    8  C   UNL     1     -10.800   7.292  69.235  1.00  0.00    -0.177 A  
HETATM    9  C   UNL     1      -9.892   7.451  66.600  1.00  0.00    -0.263 A  
HETATM   10  C   UNL     1     -10.985   6.216  68.365  1.00  0.00    -0.391 A  
BRANCH   6  11
HETATM   11  N   UNL     1     -10.701   5.178  66.189  1.00  0.00    -0.614 N  
HETATM   12  H   UNL     1     -11.561   5.067  65.652  1.00  0.00     0.000 HD 
BRANCH  11  13
HETATM   13  S   UNL     1      -9.449   4.048  66.083  1.00  0.00    -0.193 S  
HETATM   14  O   UNL     1      -9.645   3.150  67.203  1.00  0.00    -0.163 OA 
HETATM   15  O   UNL     1      -8.185   4.716  65.874  1.00  0.00    -0.109 OA 
HETATM   16  C   UNL     1      -9.897   3.164  64.604  1.00  0.00    -0.094 C  
ENDBRANCH  11  13
ENDBRANCH   6  11
ENDBRANCH   4   5
ENDBRANCH   3   4
ENDBRANCH   2   3
BRANCH   2  17
HETATM   17  C   UNL     1     -11.129  11.621  67.349  1.00  0.00    -0.281 C  
BRANCH  17  18
HETATM   18  C   UNL     1     -11.850  12.835  66.743  1.00  0.00    -0.382 C  
BRANCH  18  19
HETATM   19  O   UNL     1     -12.174  13.763  67.785  1.00  0.00    -0.329 OA 
BRANCH  19  20
HETATM   20  C   UNL     1     -11.449  14.927  67.795  1.00  0.00    -0.338 A  
HETATM   21  C   UNL     1     -10.738  15.448  66.711  1.00  0.00    -0.310 A  
HETATM   22  C   UNL     1     -11.447  15.620  69.009  1.00  0.00    -0.369 A  
HETATM   23  C   UNL     1      -9.985  17.297  68.072  1.00  0.00    -0.304 A  
HETATM   24  C   UNL     1     -10.720  16.807  69.150  1.00  0.00    -0.329 A  
HETATM   25  C   UNL     1     -10.009  16.631  66.850  1.00  0.00    -0.272 A  
BRANCH  23  26
HETATM   26  N   UNL     1      -9.225  18.495  68.188  1.00  0.00    -0.300 N  
HETATM   27  H   UNL     1      -9.666  19.411  68.104  1.00  0.00     0.000 HD 
BRANCH  26  28
HETATM   28  S   UNL     1      -7.566  18.348  68.471  1.00  0.00    -0.305 S  
HETATM   29  O   UNL     1      -7.082  19.491  69.208  1.00  0.00    -0.353 OA 
HETATM   30  C   UNL     1      -6.912  18.394  66.814  1.00  0.00    -0.195 C  
HETATM   31  O   UNL     1      -7.383  17.000  68.973  1.00  0.00    -0.237 OA 
ENDBRANCH  26  28
ENDBRANCH  23  26
ENDBRANCH  19  20
ENDBRANCH  18  19
ENDBRANCH  17  18
ENDBRANCH   2  17
TORSDOF 11
ENDMDL
MODEL      168
REMARK 921   NORMALIZED FREE ENERGY PREDICTED BY IDOCK:   -4.14 KCAL/MOL
REMARK 922        TOTAL FREE ENERGY PREDICTED BY IDOCK:   -8.37 KCAL/MOL
REMARK 923 INTER-LIGAND FREE ENERGY PREDICTED BY IDOCK:   -8.13 KCAL/MOL
REMARK 924 INTRA-LIGAND FREE ENERGY PREDICTED BY IDOCK:   -0.24 KCAL/MOL
REMARK 927      BINDING AFFINITY PREDICTED BY RF-SCORE:    0.00 PKD
ROOT
HETATM    1  C   UNL     1     -11.960  12.343  63.250  1.00  0.00    -0.416 C  
HETATM    2  N   UNL     1     -11.383  12.803  64.517  1.00  0.00    -0.318 NA 
ENDROOT
BRANCH   2   3
HETATM    3  C   UNL     1     -10.107  12.116  64.813  1.00  0.00    -0.251 C  
BRANCH   3   4
HETATM    4  C   UNL     1     -10.029  10.626  64.412  1.00  0.00    -0.415 C  
BRANCH   4   5
HETATM    5  C   UNL     1      -9.852   9.681  65.580  1.00  0.00    -0.352 A  
HETATM    6  C   UNL     1      -9.460   7.983  67.774  1.00  0.00    -0.145 A  
HETATM    7  C   UNL     1      -8.889   8.663  65.530  1.00  0.00    -0.220 A  
HETATM    8  C   UNL     1     -10.641   9.812  66.731  1.00  0.00    -0.208 A  
HETATM    9  C   UNL     1      -8.694   7.815  66.623  1.00  0.00    -0.151 A  
HETATM   10  C   UNL     1     -10.446   8.965  67.824  1.00  0.00    -0.300 A  
BRANCH   6  11
HETATM   11  N   UNL     1      -9.269   7.138  68.904  1.00  0.00    -0.138 N  
HETATM   12  H   UNL     1      -8.568   7.353  69.613  1.00  0.00     0.000 HD 
BRANCH  11  13
HETATM   13  S   UNL     1     -10.247   5.765  69.027  1.00  0.00    -0.242 S  
HETATM   14  O   UNL     1     -11.538   6.251  69.469  1.00  0.00    -0.423 OA 
HETATM   15  O   UNL     1      -9.557   4.719  69.747  1.00  0.00    -0.142 OA 
HETATM   16  C   UNL     1     -10.410   5.293  67.319  1.00  0.00    -0.199 C  
ENDBRANCH  11  13
ENDBRANCH   6  11
ENDBRANCH   4   5
ENDBRANCH   3   4
ENDBRANCH   2   3
BRANCH   2  17
HETATM   17  C   UNL     1     -12.380  12.616  65.596  1.00  0.00    -0.323 C  
BRANCH  17  18
HETATM   18  C   UNL     1     -12.402  13.735  66.650  1.00  0.00    -0.357 C  
BRANCH  18  19
HETATM   19  O   UNL     1     -11.885  14.940  66.073  1.00  0.00    -0.257 OA 
BRANCH  19  20
HETATM   20  C   UNL     1     -10.868  15.546  66.765  1.00  0.00    -0.291 A  
HETATM   21  C   UNL     1     -10.779  15.641  68.156  1.00  0.00    -0.287 A  
HETATM   22  C   UNL     1      -9.856  16.100  65.977  1.00  0.00    -0.375 A  
HETATM   23  C   UNL     1      -8.720  16.888  67.956  1.00  0.00    -0.215 A  
HETATM   24  C   UNL     1      -8.778  16.768  66.569  1.00  0.00    -0.310 A  
HETATM   25  C   UNL     1      -9.706  16.310  68.749  1.00  0.00    -0.240 A  
BRANCH  23  26
HETATM   26  N   UNL     1      -7.643  17.574  68.587  1.00  0.00    -0.265 N  
HETATM   27  H   UNL     1      -6.876  17.063  69.025  1.00  0.00     0.000 HD 
BRANCH  26  28
HETATM   28  S   UNL     1      -7.679  19.262  68.586  1.00  0.00    -0.364 S  
HETATM   29  O   UNL     1      -7.019  19.776  69.763  1.00  0.00    -0.317 OA 
HETATM   30  C   UNL     1      -9.427  19.587  68.701  1.00  0.00    -0.397 C  
HETATM   31  O   UNL     1      -7.251  19.652  67.256  1.00  0.00    -0.214 OA 
ENDBRANCH  26  28
ENDBRANCH  23  26
ENDBRANCH  19  20
ENDBRANCH  18  19
ENDBRANCH  17  18
ENDBRANCH   2  17
TORSDOF 11
ENDMDL
MODEL      169
REMARK 921   NORMALIZED FREE ENERGY PREDICTED BY IDOCK:   -4.13 KCAL/MOL
REMARK 922        TOTAL FREE ENERGY PREDICTED BY IDOCK:   -8.34 KCAL/MOL
REMARK 923 INTER-LIGAND FREE ENERGY PREDICTED BY IDOCK:   -7.74 KCAL/MOL
REMARK 924 INTRA-LIGAND FREE ENERGY PREDICTED BY IDOCK:   -0.60 KCAL/MOL
REMARK 927      BINDING AFFINITY PREDICTED BY RF-SCORE:    0.00 PKD
ROOT
HETATM    1  C   UNL     1      -9.571  11.856  68.345  1.00  0.00    -0.196 C  
HETATM    2  N   UNL     1     -10.991  11.668  68.030  1.00  0.00    -0.210 NA 
ENDROOT
BRANCH   2   3
HETATM    3  C   UNL     1     -11.541  10.470  68.700  1.00  0.00    -0.171 C  
BRANCH   3   4
HETATM    4  C   UNL     1     -11.542  10.496  70.245  1.00  0.00    -0.417 C  
BRANCH   4   5
HETATM    5  C   UNL     1     -10.952   9.258  70.883  1.00  0.00    -0.368 A  
HETATM    6  C   UNL     1      -9.849   6.928  71.983  1.00  0.00    -0.162 A  
HETATM    7  C   UNL     1     -11.769   8.161  71.194  1.00  0.00    -0.309 A  
HETATM    8  C   UNL     1      -9.581   9.184  71.166  1.00  0.00    -0.347 A  
HETATM    9  C   UNL     1     -11.220   6.999  71.744  1.00  0.00    -0.278 A  
HETATM   10  C   UNL     1      -9.033   8.023  71.715  1.00  0.00    -0.194 A  
BRANCH   6  11
HETATM   11  N   UNL     1      -9.268   5.750  72.532  1.00  0.00    -0.142 N  
HETATM   12  H   UNL     1      -9.247   5.591  73.540  1.00  0.00     0.000 HD 
BRANCH  11  13
HETATM   13  S   UNL     1      -8.616   4.624  71.455  1.00  0.00    -0.112 S  
HETATM   14  O   UNL     1      -7.308   4.296  71.987  1.00  0.00    -0.061 OA 
HETATM   15  O   UNL     1      -8.774   5.080  70.093  1.00  0.00    -0.105 OA 
HETATM   16  C   UNL     1      -9.672   3.219  71.729  1.00  0.00    -0.167 C  
ENDBRANCH  11  13
ENDBRANCH   6  11
ENDBRANCH   4   5
ENDBRANCH   3   4
ENDBRANCH   2   3
BRANCH   2  17
HETATM   17  C   UNL     1     -11.155  11.609  66.559  1.00  0.00    -0.301 C  
BRANCH  17  18
HETATM   18  C   UNL     1     -11.666  12.909  65.918  1.00  0.00    -0.399 C  
BRANCH  18  19
HETATM   19  O   UNL     1     -12.122  13.797  66.945  1.00  0.00    -0.414 OA 
BRANCH  19  20
HETATM   20  C   UNL     1     -11.428  14.974  67.069  1.00  0.00    -0.284 A  
HETATM   21  C   UNL     1     -11.241  15.682  68.258  1.00  0.00    -0.353 A  
HETATM   22  C   UNL     1     -10.878  15.472  65.885  1.00  0.00    -0.317 A  
HETATM   23  C   UNL     1     -10.023  17.395  67.067  1.00  0.00    -0.295 A  
HETATM   24  C   UNL     1     -10.171  16.679  65.881  1.00  0.00    -0.358 A  
HETATM   25  C   UNL     1     -10.539  16.889  68.256  1.00  0.00    -0.363 A  
BRANCH  23  26
HETATM   26  N   UNL     1      -9.321  18.633  67.093  1.00  0.00    -0.285 N  
HETATM   27  H   UNL     1      -9.811  19.516  67.238  1.00  0.00     0.000 HD 
BRANCH  26  28
HETATM   28  S   UNL     1      -7.646  18.591  66.873  1.00  0.00    -0.227 S  
HETATM   29  O   UNL     1      -7.327  18.620  65.465  1.00  0.00    -0.513 OA 
HETATM   30  C   UNL     1      -7.235  16.991  67.539  1.00  0.00    -0.152 C  
HETATM   31  O   UNL     1      -7.118  19.589  67.783  1.00  0.00    -0.241 OA 
ENDBRANCH  26  28
ENDBRANCH  23  26
ENDBRANCH  19  20
ENDBRANCH  18  19
ENDBRANCH  17  18
ENDBRANCH   2  17
TORSDOF 11
ENDMDL
MODEL      170
REMARK 921   NORMALIZED FREE ENERGY PREDICTED BY IDOCK:   -4.12 KCAL/MOL
REMARK 922        TOTAL FREE ENERGY PREDICTED BY IDOCK:   -8.34 KCAL/MOL
REMARK 923 INTER-LIGAND FREE ENERGY PREDICTED BY IDOCK:   -6.34 KCAL/MOL
REMARK 924 INTRA-LIGAND FREE ENERGY PREDICTED BY IDOCK:   -2.00 KCAL/MOL
REMARK 927      BINDING AFFINITY PREDICTED BY RF-SCORE:    0.00 PKD
ROOT
HETATM    1  C   UNL     1     -12.393  13.281  70.790  1.00  0.00    -0.344 C  
HETATM    2  N   UNL     1     -11.967  12.010  70.194  1.00  0.00    -0.345 NA 
ENDROOT
BRANCH   2   3
HETATM    3  C   UNL     1     -11.864  12.109  68.722  1.00  0.00    -0.303 C  
BRANCH   3   4
HETATM    4  C   UNL     1     -10.432  12.139  68.141  1.00  0.00    -0.225 C  
BRANCH   4   5
HETATM    5  C   UNL     1     -10.018  10.855  67.456  1.00  0.00    -0.201 A  
HETATM    6  C   UNL     1      -9.314   8.492  66.125  1.00  0.00    -0.214 A  
HETATM    7  C   UNL     1     -10.687   9.654  67.734  1.00  0.00    -0.316 A  
HETATM    8  C   UNL     1      -8.967  10.846  66.529  1.00  0.00    -0.178 A  
HETATM    9  C   UNL     1     -10.336   8.475  67.072  1.00  0.00    -0.379 A  
HETATM   10  C   UNL     1      -8.616   9.668  65.867  1.00  0.00    -0.146 A  
BRANCH   6  11
HETATM   11  N   UNL     1      -8.948   7.304  65.431  1.00  0.00    -0.378 N  
HETATM   12  H   UNL     1      -9.346   7.081  64.519  1.00  0.00     0.000 HD 
BRANCH  11  13
HETATM   13  S   UNL     1      -7.830   6.277  66.173  1.00  0.00    -0.109 S  
HETATM   14  O   UNL     1      -8.582   5.096  66.548  1.00  0.00    -0.111 OA 
HETATM   15  O   UNL     1      -7.048   7.004  67.147  1.00  0.00    -0.078 OA 
HETATM   16  C   UNL     1      -6.791   5.834  64.798  1.00  0.00    -0.051 C  
ENDBRANCH  11  13
ENDBRANCH   6  11
ENDBRANCH   4   5
ENDBRANCH   3   4
ENDBRANCH   2   3
BRANCH   2  17
HETATM   17  C   UNL     1     -12.903  10.942  70.616  1.00  0.00    -0.255 C  
BRANCH  17  18
HETATM   18  C   UNL     1     -12.330   9.960  71.651  1.00  0.00    -0.406 C  
BRANCH  18  19
HETATM   19  O   UNL     1     -12.577   8.617  71.218  1.00  0.00    -0.303 OA 
BRANCH  19  20
HETATM   20  C   UNL     1     -11.470   7.890  70.862  1.00  0.00    -0.281 A  
HETATM   21  C   UNL     1     -10.149   8.340  70.933  1.00  0.00    -0.224 A  
HETATM   22  C   UNL     1     -11.727   6.599  70.395  1.00  0.00    -0.446 A  
HETATM   23  C   UNL     1      -9.370   6.244  70.017  1.00  0.00    -0.155 A  
HETATM   24  C   UNL     1     -10.680   5.771  69.976  1.00  0.00    -0.400 A  
HETATM   25  C   UNL     1      -9.102   7.517  70.512  1.00  0.00    -0.156 A  
BRANCH  23  26
HETATM   26  N   UNL     1      -8.283   5.431  69.584  1.00  0.00    -0.098 N  
HETATM   27  H   UNL     1      -8.162   5.192  68.600  1.00  0.00     0.000 HD 
BRANCH  26  28
HETATM   28  S   UNL     1      -7.202   4.877  70.758  1.00  0.00    -0.061 S  
HETATM   29  O   UNL     1      -6.720   3.561  70.409  1.00  0.00    -0.032 OA 
HETATM   30  C   UNL     1      -8.253   4.759  72.191  1.00  0.00    -0.111 C  
HETATM   31  O   UNL     1      -6.285   5.977  70.981  1.00  0.00    -0.036 OA 
ENDBRANCH  26  28
ENDBRANCH  23  26
ENDBRANCH  19  20
ENDBRANCH  18  19
ENDBRANCH  17  18
ENDBRANCH   2  17
TORSDOF 11
ENDMDL
MODEL      171
REMARK 921   NORMALIZED FREE ENERGY PREDICTED BY IDOCK:   -4.12 KCAL/MOL
REMARK 922        TOTAL FREE ENERGY PREDICTED BY IDOCK:   -8.33 KCAL/MOL
REMARK 923 INTER-LIGAND FREE ENERGY PREDICTED BY IDOCK:   -6.94 KCAL/MOL
REMARK 924 INTRA-LIGAND FREE ENERGY PREDICTED BY IDOCK:   -1.39 KCAL/MOL
REMARK 927      BINDING AFFINITY PREDICTED BY RF-SCORE:    0.00 PKD
ROOT
HETATM    1  C   UNL     1      -7.169   5.195  73.194  1.00  0.00    -0.090 C  
HETATM    2  N   UNL     1      -8.144   6.058  72.519  1.00  0.00    -0.105 NA 
ENDROOT
BRANCH   2   3
HETATM    3  C   UNL     1      -7.935   7.482  72.862  1.00  0.00    -0.105 C  
BRANCH   3   4
HETATM    4  C   UNL     1      -9.213   8.335  73.028  1.00  0.00    -0.316 C  
BRANCH   4   5
HETATM    5  C   UNL     1      -9.809   8.814  71.722  1.00  0.00    -0.391 A  
HETATM    6  C   UNL     1     -10.901   9.784  69.332  1.00  0.00    -0.232 A  
HETATM    7  C   UNL     1     -11.177   9.107  71.632  1.00  0.00    -0.447 A  
HETATM    8  C   UNL     1      -9.004   8.978  70.587  1.00  0.00    -0.263 A  
HETATM    9  C   UNL     1     -11.723   9.590  70.440  1.00  0.00    -0.227 A  
HETATM   10  C   UNL     1      -9.549   9.461  69.396  1.00  0.00    -0.177 A  
BRANCH   6  11
HETATM   11  N   UNL     1     -11.435  10.286  68.111  1.00  0.00    -0.513 N  
HETATM   12  H   UNL     1     -11.895   9.669  67.441  1.00  0.00     0.000 HD 
BRANCH  11  13
HETATM   13  S   UNL     1     -11.280  11.942  67.811  1.00  0.00    -0.291 S  
HETATM   14  O   UNL     1     -11.232  12.566  69.118  1.00  0.00    -0.252 OA 
HETATM   15  O   UNL     1     -12.240  12.366  66.817  1.00  0.00    -0.551 OA 
HETATM   16  C   UNL     1      -9.643  12.024  67.120  1.00  0.00    -0.192 C  
ENDBRANCH  11  13
ENDBRANCH   6  11
ENDBRANCH   4   5
ENDBRANCH   3   4
ENDBRANCH   2   3
BRANCH   2  17
HETATM   17  C   UNL     1      -9.511   5.598  72.857  1.00  0.00    -0.147 C  
BRANCH  17  18
HETATM   18  C   UNL     1     -10.239   4.864  71.720  1.00  0.00    -0.200 C  
BRANCH  18  19
HETATM   19  O   UNL     1     -10.761   5.824  70.793  1.00  0.00    -0.256 OA 
BRANCH  19  20
HETATM   20  C   UNL     1     -10.316   5.712  69.501  1.00  0.00    -0.275 A  
HETATM   21  C   UNL     1      -9.063   5.227  69.116  1.00  0.00    -0.136 A  
HETATM   22  C   UNL     1     -11.218   6.126  68.519  1.00  0.00    -0.241 A  
HETATM   23  C   UNL     1      -9.601   5.632  66.796  1.00  0.00    -0.146 A  
HETATM   24  C   UNL     1     -10.867   6.084  67.165  1.00  0.00    -0.414 A  
HETATM   25  C   UNL     1      -8.709   5.186  67.766  1.00  0.00    -0.103 A  
BRANCH  23  26
HETATM   26  N   UNL     1      -9.209   5.590  65.428  1.00  0.00    -0.336 N  
HETATM   27  H   UNL     1      -8.954   6.441  64.925  1.00  0.00     0.000 HD 
BRANCH  26  28
HETATM   28  S   UNL     1      -9.180   4.084  64.665  1.00  0.00    -0.160 S  
HETATM   29  O   UNL     1      -8.275   4.112  63.540  1.00  0.00    -0.088 OA 
HETATM   30  C   UNL     1     -10.854   3.946  64.073  1.00  0.00    -0.151 C  
HETATM   31  O   UNL     1      -9.016   3.118  65.735  1.00  0.00    -0.133 OA 
ENDBRANCH  26  28
ENDBRANCH  23  26
ENDBRANCH  19  20
ENDBRANCH  18  19
ENDBRANCH  17  18
ENDBRANCH   2  17
TORSDOF 11
ENDMDL
MODEL      172
REMARK 921   NORMALIZED FREE ENERGY PREDICTED BY IDOCK:   -4.10 KCAL/MOL
REMARK 922        TOTAL FREE ENERGY PREDICTED BY IDOCK:   -8.30 KCAL/MOL
REMARK 923 INTER-LIGAND FREE ENERGY PREDICTED BY IDOCK:   -7.38 KCAL/MOL
REMARK 924 INTRA-LIGAND FREE ENERGY PREDICTED BY IDOCK:   -0.93 KCAL/MOL
REMARK 927      BINDING AFFINITY PREDICTED BY RF-SCORE:    0.00 PKD
ROOT
HETATM    1  C   UNL     1     -12.220  14.643  64.823  1.00  0.00    -0.394 C  
HETATM    2  N   UNL     1     -11.424  14.185  65.967  1.00  0.00    -0.334 NA 
ENDROOT
BRANCH   2   3
HETATM    3  C   UNL     1     -10.773  12.887  65.689  1.00  0.00    -0.274 C  
BRANCH   3   4
HETATM    4  C   UNL     1      -9.513  12.567  66.525  1.00  0.00    -0.240 C  
BRANCH   4   5
HETATM    5  C   UNL     1      -9.678  11.392  67.463  1.00  0.00    -0.191 A  
HETATM    6  C   UNL     1      -9.941   9.164  69.143  1.00  0.00    -0.187 A  
HETATM    7  C   UNL     1     -10.749  10.500  67.302  1.00  0.00    -0.333 A  
HETATM    8  C   UNL     1      -8.764  11.171  68.502  1.00  0.00    -0.161 A  
HETATM    9  C   UNL     1     -10.881   9.389  68.140  1.00  0.00    -0.174 A  
HETATM   10  C   UNL     1      -8.896  10.061  69.339  1.00  0.00    -0.200 A  
BRANCH   6  11
HETATM   11  N   UNL     1     -10.051   8.032  70.000  1.00  0.00    -0.193 N  
HETATM   12  H   UNL     1      -9.748   7.107  69.696  1.00  0.00     0.000 HD 
BRANCH  11  13
HETATM   13  S   UNL     1     -10.702   8.278  71.540  1.00  0.00    -0.251 S  
HETATM   14  O   UNL     1     -11.556   7.133  71.783  1.00  0.00    -0.261 OA 
HETATM   15  O   UNL     1     -11.208   9.626  71.664  1.00  0.00    -0.367 OA 
HETATM   16  C   UNL     1      -9.260   8.096  72.566  1.00  0.00    -0.251 C  
ENDBRANCH  11  13
ENDBRANCH   6  11
ENDBRANCH   4   5
ENDBRANCH   3   4
ENDBRANCH   2   3
BRANCH   2  17
HETATM   17  C   UNL     1     -12.292  14.128  67.166  1.00  0.00    -0.178 C  
BRANCH  17  18
HETATM   18  C   UNL     1     -11.627  14.616  68.462  1.00  0.00    -0.317 C  
BRANCH  18  19
HETATM   19  O   UNL     1     -11.689  16.047  68.519  1.00  0.00    -0.375 OA 
BRANCH  19  20
HETATM   20  C   UNL     1     -10.482  16.698  68.537  1.00  0.00    -0.319 A  
HETATM   21  C   UNL     1      -9.237  16.089  68.718  1.00  0.00    -0.224 A  
HETATM   22  C   UNL     1     -10.545  18.082  68.358  1.00  0.00    -0.249 A  
HETATM   23  C   UNL     1      -8.149  18.244  68.602  1.00  0.00    -0.286 A  
HETATM   24  C   UNL     1      -9.381  18.857  68.385  1.00  0.00    -0.396 A  
HETATM   25  C   UNL     1      -8.074  16.862  68.749  1.00  0.00    -0.251 A  
BRANCH  23  26
HETATM   26  N   UNL     1      -6.948  19.008  68.648  1.00  0.00    -0.275 N  
HETATM   27  H   UNL     1      -6.615  19.414  69.522  1.00  0.00     0.000 HD 
BRANCH  26  28
HETATM   28  S   UNL     1      -6.096  19.218  67.206  1.00  0.00    -0.185 S  
HETATM   29  O   UNL     1      -7.010  19.271  66.089  1.00  0.00    -0.218 OA 
HETATM   30  C   UNL     1      -5.150  17.710  67.121  1.00  0.00    -0.126 C  
HETATM   31  O   UNL     1      -5.166  20.299  67.466  1.00  0.00    -0.168 OA 
ENDBRANCH  26  28
ENDBRANCH  23  26
ENDBRANCH  19  20
ENDBRANCH  18  19
ENDBRANCH  17  18
ENDBRANCH   2  17
TORSDOF 11
ENDMDL
MODEL      173
REMARK 921   NORMALIZED FREE ENERGY PREDICTED BY IDOCK:   -4.09 KCAL/MOL
REMARK 922        TOTAL FREE ENERGY PREDICTED BY IDOCK:   -8.29 KCAL/MOL
REMARK 923 INTER-LIGAND FREE ENERGY PREDICTED BY IDOCK:   -7.74 KCAL/MOL
REMARK 924 INTRA-LIGAND FREE ENERGY PREDICTED BY IDOCK:   -0.55 KCAL/MOL
REMARK 927      BINDING AFFINITY PREDICTED BY RF-SCORE:    0.00 PKD
ROOT
HETATM    1  C   UNL     1     -11.935  11.711  69.084  1.00  0.00    -0.313 C  
HETATM    2  N   UNL     1     -10.826  11.934  68.151  1.00  0.00    -0.209 NA 
ENDROOT
BRANCH   2   3
HETATM    3  C   UNL     1     -11.301  12.009  66.752  1.00  0.00    -0.339 C  
BRANCH   3   4
HETATM    4  C   UNL     1     -12.051  13.302  66.359  1.00  0.00    -0.454 C  
BRANCH   4   5
HETATM    5  C   UNL     1     -11.295  14.574  66.675  1.00  0.00    -0.359 A  
HETATM    6  C   UNL     1      -9.951  16.974  67.210  1.00  0.00    -0.275 A  
HETATM    7  C   UNL     1     -10.281  15.028  65.820  1.00  0.00    -0.361 A  
HETATM    8  C   UNL     1     -11.600  15.320  67.822  1.00  0.00    -0.277 A  
HETATM    9  C   UNL     1      -9.609  16.224  66.087  1.00  0.00    -0.362 A  
HETATM   10  C   UNL     1     -10.930  16.515  68.088  1.00  0.00    -0.336 A  
BRANCH   6  11
HETATM   11  N   UNL     1      -9.287  18.201  67.494  1.00  0.00    -0.256 N  
HETATM   12  H   UNL     1      -8.582  18.262  68.228  1.00  0.00     0.000 HD 
BRANCH  11  13
HETATM   13  S   UNL     1      -9.711  19.551  66.571  1.00  0.00    -0.418 S  
HETATM   14  O   UNL     1     -10.141  20.551  67.528  1.00  0.00    -0.401 OA 
HETATM   15  O   UNL     1     -10.558  19.161  65.468  1.00  0.00    -0.536 OA 
HETATM   16  C   UNL     1      -8.126  20.061  65.943  1.00  0.00    -0.203 C  
ENDBRANCH  11  13
ENDBRANCH   6  11
ENDBRANCH   4   5
ENDBRANCH   3   4
ENDBRANCH   2   3
BRANCH   2  17
HETATM   17  C   UNL     1      -9.816  10.867  68.339  1.00  0.00    -0.177 C  
BRANCH  17  18
HETATM   18  C   UNL     1     -10.191   9.806  69.386  1.00  0.00    -0.210 C  
BRANCH  18  19
HETATM   19  O   UNL     1      -9.143   9.705  70.357  1.00  0.00    -0.246 OA 
BRANCH  19  20
HETATM   20  C   UNL     1      -9.079   8.521  71.047  1.00  0.00    -0.179 A  
HETATM   21  C   UNL     1      -8.443   7.359  70.603  1.00  0.00    -0.136 A  
HETATM   22  C   UNL     1      -9.714   8.518  72.291  1.00  0.00    -0.380 A  
HETATM   23  C   UNL     1      -9.133   6.197  72.606  1.00  0.00    -0.140 A  
HETATM   24  C   UNL     1      -9.740   7.360  73.075  1.00  0.00    -0.255 A  
HETATM   25  C   UNL     1      -8.470   6.201  71.382  1.00  0.00    -0.128 A  
BRANCH  23  26
HETATM   26  N   UNL     1      -9.154   4.998  73.375  1.00  0.00    -0.121 N  
HETATM   27  H   UNL     1      -8.448   4.817  74.088  1.00  0.00     0.000 HD 
BRANCH  26  28
HETATM   28  S   UNL     1     -10.388   3.888  73.064  1.00  0.00    -0.172 S  
HETATM   29  O   UNL     1     -11.659   4.567  72.976  1.00  0.00    -0.176 OA 
HETATM   30  C   UNL     1     -10.354   2.888  74.538  1.00  0.00    -0.163 C  
HETATM   31  O   UNL     1      -9.898   3.069  71.972  1.00  0.00    -0.156 OA 
ENDBRANCH  26  28
ENDBRANCH  23  26
ENDBRANCH  19  20
ENDBRANCH  18  19
ENDBRANCH  17  18
ENDBRANCH   2  17
TORSDOF 11
ENDMDL
MODEL      174
REMARK 921   NORMALIZED FREE ENERGY PREDICTED BY IDOCK:   -4.07 KCAL/MOL
REMARK 922        TOTAL FREE ENERGY PREDICTED BY IDOCK:   -8.25 KCAL/MOL
REMARK 923 INTER-LIGAND FREE ENERGY PREDICTED BY IDOCK:   -7.03 KCAL/MOL
REMARK 924 INTRA-LIGAND FREE ENERGY PREDICTED BY IDOCK:   -1.22 KCAL/MOL
REMARK 927      BINDING AFFINITY PREDICTED BY RF-SCORE:    0.00 PKD
ROOT
HETATM    1  C   UNL     1      -6.512   8.787  68.549  1.00  0.00    -0.055 C  
HETATM    2  N   UNL     1      -6.539   9.065  69.989  1.00  0.00    -0.041 NA 
ENDROOT
BRANCH   2   3
HETATM    3  C   UNL     1      -7.730   8.472  70.633  1.00  0.00    -0.081 C  
BRANCH   3   4
HETATM    4  C   UNL     1      -9.096   8.849  70.014  1.00  0.00    -0.174 C  
BRANCH   4   5
HETATM    5  C   UNL     1      -9.634   7.823  69.041  1.00  0.00    -0.155 A  
HETATM    6  C   UNL     1     -10.557   5.929  67.194  1.00  0.00    -0.299 A  
HETATM    7  C   UNL     1     -10.269   8.231  67.859  1.00  0.00    -0.276 A  
HETATM    8  C   UNL     1      -9.503   6.453  69.301  1.00  0.00    -0.140 A  
HETATM    9  C   UNL     1     -10.731   7.287  66.938  1.00  0.00    -0.346 A  
HETATM   10  C   UNL     1      -9.963   5.509  68.380  1.00  0.00    -0.210 A  
BRANCH   6  11
HETATM   11  N   UNL     1     -11.009   4.951  66.263  1.00  0.00    -0.541 N  
HETATM   12  H   UNL     1     -11.988   4.665  66.230  1.00  0.00     0.000 HD 
BRANCH  11  13
HETATM   13  S   UNL     1      -9.867   4.281  65.214  1.00  0.00    -0.208 S  
HETATM   14  O   UNL     1      -9.377   3.095  65.887  1.00  0.00    -0.154 OA 
HETATM   15  O   UNL     1      -8.957   5.300  64.743  1.00  0.00    -0.117 OA 
HETATM   16  C   UNL     1     -10.896   3.743  63.866  1.00  0.00    -0.180 C  
ENDBRANCH  11  13
ENDBRANCH   6  11
ENDBRANCH   4   5
ENDBRANCH   3   4
ENDBRANCH   2   3
BRANCH   2  17
HETATM   17  C   UNL     1      -6.462  10.530  70.198  1.00  0.00    -0.144 C  
BRANCH  17  18
HETATM   18  C   UNL     1      -6.664  11.371  68.928  1.00  0.00    -0.080 C  
BRANCH  18  19
HETATM   19  O   UNL     1      -7.900  12.089  69.026  1.00  0.00    -0.014 OA 
BRANCH  19  20
HETATM   20  C   UNL     1      -8.557  12.313  67.843  1.00  0.00    -0.169 A  
HETATM   21  C   UNL     1      -8.805  11.351  66.860  1.00  0.00    -0.173 A  
HETATM   22  C   UNL     1      -8.999  13.623  67.643  1.00  0.00    -0.202 A  
HETATM   23  C   UNL     1      -9.868  13.019  65.473  1.00  0.00    -0.137 A  
HETATM   24  C   UNL     1      -9.659  13.979  66.461  1.00  0.00    -0.307 A  
HETATM   25  C   UNL     1      -9.460  11.705  65.679  1.00  0.00    -0.228 A  
BRANCH  23  26
HETATM   26  N   UNL     1     -10.524  13.354  64.254  1.00  0.00    -0.570 N  
HETATM   27  H   UNL     1      -9.993  13.609  63.421  1.00  0.00     0.000 HD 
BRANCH  26  28
HETATM   28  S   UNL     1     -12.212  13.314  64.235  1.00  0.00    -0.377 S  
HETATM   29  O   UNL     1     -12.721  13.087  65.567  1.00  0.00    -0.522 OA 
HETATM   30  C   UNL     1     -12.528  11.877  63.230  1.00  0.00    -0.384 C  
HETATM   31  O   UNL     1     -12.612  14.477  63.467  1.00  0.00    -0.746 OA 
ENDBRANCH  26  28
ENDBRANCH  23  26
ENDBRANCH  19  20
ENDBRANCH  18  19
ENDBRANCH  17  18
ENDBRANCH   2  17
TORSDOF 11
ENDMDL
MODEL      175
REMARK 921   NORMALIZED FREE ENERGY PREDICTED BY IDOCK:   -4.06 KCAL/MOL
REMARK 922        TOTAL FREE ENERGY PREDICTED BY IDOCK:   -8.23 KCAL/MOL
REMARK 923 INTER-LIGAND FREE ENERGY PREDICTED BY IDOCK:   -7.49 KCAL/MOL
REMARK 924 INTRA-LIGAND FREE ENERGY PREDICTED BY IDOCK:   -0.75 KCAL/MOL
REMARK 927      BINDING AFFINITY PREDICTED BY RF-SCORE:    0.00 PKD
ROOT
HETATM    1  C   UNL     1      -8.327  11.056  65.903  1.00  0.00    -0.119 C  
HETATM    2  N   UNL     1      -9.638  10.399  65.885  1.00  0.00    -0.193 NA 
ENDROOT
BRANCH   2   3
HETATM    3  C   UNL     1     -10.739  11.381  65.987  1.00  0.00    -0.263 C  
BRANCH   3   4
HETATM    4  C   UNL     1     -10.779  12.472  64.893  1.00  0.00    -0.327 C  
BRANCH   4   5
HETATM    5  C   UNL     1     -10.673  13.883  65.425  1.00  0.00    -0.330 A  
HETATM    6  C   UNL     1     -10.391  16.499  66.390  1.00  0.00    -0.311 A  
HETATM    7  C   UNL     1     -10.231  14.116  66.736  1.00  0.00    -0.262 A  
HETATM    8  C   UNL     1     -11.008  14.979  64.619  1.00  0.00    -0.320 A  
HETATM    9  C   UNL     1     -10.091  15.420  67.218  1.00  0.00    -0.238 A  
HETATM   10  C   UNL     1     -10.868  16.283  65.100  1.00  0.00    -0.333 A  
BRANCH   6  11
HETATM   11  N   UNL     1     -10.245  17.836  66.858  1.00  0.00    -0.333 N  
HETATM   12  H   UNL     1     -10.996  18.304  67.366  1.00  0.00     0.000 HD 
BRANCH  11  13
HETATM   13  S   UNL     1      -8.782  18.620  66.541  1.00  0.00    -0.287 S  
HETATM   14  O   UNL     1      -9.148  19.928  66.037  1.00  0.00    -0.374 OA 
HETATM   15  O   UNL     1      -7.897  17.754  65.796  1.00  0.00    -0.541 OA 
HETATM   16  C   UNL     1      -8.138  18.843  68.186  1.00  0.00    -0.302 C  
ENDBRANCH  11  13
ENDBRANCH   6  11
ENDBRANCH   4   5
ENDBRANCH   3   4
ENDBRANCH   2   3
BRANCH   2  17
HETATM   17  C   UNL     1      -9.686   9.392  66.970  1.00  0.00    -0.178 C  
BRANCH  17  18
HETATM   18  C   UNL     1     -10.911   9.502  67.893  1.00  0.00    -0.180 C  
BRANCH  18  19
HETATM   19  O   UNL     1     -10.480   9.856  69.213  1.00  0.00    -0.197 OA 
BRANCH  19  20
HETATM   20  C   UNL     1     -10.538   8.856  70.149  1.00  0.00    -0.222 A  
HETATM   21  C   UNL     1     -11.183   7.628  69.983  1.00  0.00    -0.146 A  
HETATM   22  C   UNL     1      -9.885   9.126  71.354  1.00  0.00    -0.354 A  
HETATM   23  C   UNL     1     -10.575   6.986  72.231  1.00  0.00    -0.213 A  
HETATM   24  C   UNL     1      -9.897   8.192  72.396  1.00  0.00    -0.346 A  
HETATM   25  C   UNL     1     -11.200   6.695  71.022  1.00  0.00    -0.349 A  
BRANCH  23  26
HETATM   26  N   UNL     1     -10.617   6.021  73.278  1.00  0.00    -0.242 N  
HETATM   27  H   UNL     1     -11.337   6.056  74.000  1.00  0.00     0.000 HD 
BRANCH  26  28
HETATM   28  S   UNL     1      -9.435   4.815  73.282  1.00  0.00    -0.122 S  
HETATM   29  O   UNL     1      -8.775   4.759  71.998  1.00  0.00    -0.121 OA 
HETATM   30  C   UNL     1     -10.417   3.345  73.505  1.00  0.00    -0.174 C  
HETATM   31  O   UNL     1      -8.682   5.024  74.503  1.00  0.00    -0.108 OA 
ENDBRANCH  26  28
ENDBRANCH  23  26
ENDBRANCH  19  20
ENDBRANCH  18  19
ENDBRANCH  17  18
ENDBRANCH   2  17
TORSDOF 11
ENDMDL
MODEL      176
REMARK 921   NORMALIZED FREE ENERGY PREDICTED BY IDOCK:   -4.04 KCAL/MOL
REMARK 922        TOTAL FREE ENERGY PREDICTED BY IDOCK:   -8.20 KCAL/MOL
REMARK 923 INTER-LIGAND FREE ENERGY PREDICTED BY IDOCK:   -7.29 KCAL/MOL
REMARK 924 INTRA-LIGAND FREE ENERGY PREDICTED BY IDOCK:   -0.91 KCAL/MOL
REMARK 927      BINDING AFFINITY PREDICTED BY RF-SCORE:    0.00 PKD
ROOT
HETATM    1  C   UNL     1      -5.334  15.621  70.303  1.00  0.00    -0.143 C  
HETATM    2  N   UNL     1      -6.069  14.894  69.263  1.00  0.00    -0.103 NA 
ENDROOT
BRANCH   2   3
HETATM    3  C   UNL     1      -7.443  15.418  69.104  1.00  0.00    -0.189 C  
BRANCH   3   4
HETATM    4  C   UNL     1      -7.796  15.986  67.711  1.00  0.00    -0.155 C  
BRANCH   4   5
HETATM    5  C   UNL     1      -9.058  15.407  67.111  1.00  0.00    -0.236 A  
HETATM    6  C   UNL     1     -11.346  14.286  65.945  1.00  0.00    -0.328 A  
HETATM    7  C   UNL     1      -9.614  15.966  65.950  1.00  0.00    -0.378 A  
HETATM    8  C   UNL     1      -9.688  14.302  67.699  1.00  0.00    -0.220 A  
HETATM    9  C   UNL     1     -10.755  15.409  65.369  1.00  0.00    -0.416 A  
HETATM   10  C   UNL     1     -10.828  13.744  67.117  1.00  0.00    -0.288 A  
BRANCH   6  11
HETATM   11  N   UNL     1     -12.503  13.695  65.362  1.00  0.00    -0.473 N  
HETATM   12  H   UNL     1     -13.405  13.718  65.838  1.00  0.00     0.000 HD 
BRANCH  11  13
HETATM   13  S   UNL     1     -12.328  12.956  63.853  1.00  0.00    -0.378 S  
HETATM   14  O   UNL     1     -12.532  14.012  62.882  1.00  0.00    -0.515 OA 
HETATM   15  O   UNL     1     -13.098  11.734  63.799  1.00  0.00    -0.561 OA 
HETATM   16  C   UNL     1     -10.594  12.559  63.854  1.00  0.00    -0.440 C  
ENDBRANCH  11  13
ENDBRANCH   6  11
ENDBRANCH   4   5
ENDBRANCH   3   4
ENDBRANCH   2   3
BRANCH   2  17
HETATM   17  C   UNL     1      -6.057  13.448  69.586  1.00  0.00    -0.123 C  
BRANCH  17  18
HETATM   18  C   UNL     1      -6.696  12.548  68.517  1.00  0.00    -0.078 C  
BRANCH  18  19
HETATM   19  O   UNL     1      -7.850  11.902  69.069  1.00  0.00    -0.039 OA 
BRANCH  19  20
HETATM   20  C   UNL     1      -8.289  10.788  68.400  1.00  0.00    -0.132 A  
HETATM   21  C   UNL     1      -7.495   9.953  67.610  1.00  0.00    -0.090 A  
HETATM   22  C   UNL     1      -9.647  10.498  68.546  1.00  0.00    -0.164 A  
HETATM   23  C   UNL     1      -9.422   8.599  67.075  1.00  0.00    -0.171 A  
HETATM   24  C   UNL     1     -10.217   9.402  67.889  1.00  0.00    -0.259 A  
HETATM   25  C   UNL     1      -8.061   8.860  66.950  1.00  0.00    -0.109 A  
BRANCH  23  26
HETATM   26  N   UNL     1      -9.976   7.484  66.382  1.00  0.00    -0.451 N  
HETATM   27  H   UNL     1     -10.302   7.570  65.419  1.00  0.00     0.000 HD 
BRANCH  26  28
HETATM   28  S   UNL     1     -10.073   6.015  67.209  1.00  0.00    -0.194 S  
HETATM   29  O   UNL     1      -8.775   5.647  67.726  1.00  0.00    -0.109 OA 
HETATM   30  C   UNL     1     -10.527   4.893  65.902  1.00  0.00    -0.239 C  
HETATM   31  O   UNL     1     -11.219   6.147  68.087  1.00  0.00    -0.314 OA 
ENDBRANCH  26  28
ENDBRANCH  23  26
ENDBRANCH  19  20
ENDBRANCH  18  19
ENDBRANCH  17  18
ENDBRANCH   2  17
TORSDOF 11
ENDMDL
MODEL      177
REMARK 921   NORMALIZED FREE ENERGY PREDICTED BY IDOCK:   -4.00 KCAL/MOL
REMARK 922        TOTAL FREE ENERGY PREDICTED BY IDOCK:   -8.13 KCAL/MOL
REMARK 923 INTER-LIGAND FREE ENERGY PREDICTED BY IDOCK:   -7.73 KCAL/MOL
REMARK 924 INTRA-LIGAND FREE ENERGY PREDICTED BY IDOCK:   -0.39 KCAL/MOL
REMARK 927      BINDING AFFINITY PREDICTED BY RF-SCORE:    0.00 PKD
ROOT
HETATM    1  C   UNL     1     -14.088  14.976  71.304  1.00  0.00    -0.430 C  
HETATM    2  N   UNL     1     -12.832  14.345  70.885  1.00  0.00    -0.340 NA 
ENDROOT
BRANCH   2   3
HETATM    3  C   UNL     1     -12.648  13.025  71.527  1.00  0.00    -0.178 C  
BRANCH   3   4
HETATM    4  C   UNL     1     -12.969  11.793  70.652  1.00  0.00     0.042 C  
BRANCH   4   5
HETATM    5  C   UNL     1     -11.773  11.231  69.916  1.00  0.00    -0.430 A  
HETATM    6  C   UNL     1      -9.612  10.138  68.507  1.00  0.00    -0.154 A  
HETATM    7  C   UNL     1     -11.171  10.039  70.346  1.00  0.00    -0.393 A  
HETATM    8  C   UNL     1     -11.252  11.886  68.792  1.00  0.00    -0.314 A  
HETATM    9  C   UNL     1     -10.092   9.494  69.645  1.00  0.00    -0.228 A  
HETATM   10  C   UNL     1     -10.174  11.341  68.091  1.00  0.00    -0.196 A  
BRANCH   6  11
HETATM   11  N   UNL     1      -8.521   9.594  67.771  1.00  0.00    -0.125 N  
HETATM   12  H   UNL     1      -7.559   9.697  68.096  1.00  0.00     0.000 HD 
BRANCH  11  13
HETATM   13  S   UNL     1      -8.876   8.771  66.338  1.00  0.00    -0.157 S  
HETATM   14  O   UNL     1      -7.772   9.058  65.446  1.00  0.00    -0.092 OA 
HETATM   15  O   UNL     1     -10.243   9.021  65.940  1.00  0.00    -0.165 OA 
HETATM   16  C   UNL     1      -8.717   7.076  66.856  1.00  0.00    -0.122 C  
ENDBRANCH  11  13
ENDBRANCH   6  11
ENDBRANCH   4   5
ENDBRANCH   3   4
ENDBRANCH   2   3
BRANCH   2  17
HETATM   17  C   UNL     1     -11.710  15.267  71.175  1.00  0.00    -0.360 C  
BRANCH  17  18
HETATM   18  C   UNL     1     -10.695  15.421  70.030  1.00  0.00    -0.307 C  
BRANCH  18  19
HETATM   19  O   UNL     1     -11.382  15.816  68.837  1.00  0.00    -0.309 OA 
BRANCH  19  20
HETATM   20  C   UNL     1     -10.792  16.819  68.111  1.00  0.00    -0.353 A  
HETATM   21  C   UNL     1     -10.566  16.796  66.732  1.00  0.00    -0.203 A  
HETATM   22  C   UNL     1     -10.397  17.938  68.848  1.00  0.00    -0.272 A  
HETATM   23  C   UNL     1      -9.507  18.964  66.852  1.00  0.00    -0.317 A  
HETATM   24  C   UNL     1      -9.759  19.015  68.222  1.00  0.00    -0.419 A  
HETATM   25  C   UNL     1      -9.927  17.867  66.105  1.00  0.00    -0.288 A  
BRANCH  23  26
HETATM   26  N   UNL     1      -8.848  20.038  66.189  1.00  0.00    -0.527 N  
HETATM   27  H   UNL     1      -9.372  20.826  65.809  1.00  0.00     0.000 HD 
BRANCH  26  28
HETATM   28  S   UNL     1      -7.166  19.961  66.052  1.00  0.00    -0.308 S  
HETATM   29  O   UNL     1      -6.746  20.481  64.772  1.00  0.00    -0.305 OA 
HETATM   30  C   UNL     1      -6.879  18.203  66.097  1.00  0.00    -0.263 C  
HETATM   31  O   UNL     1      -6.657  20.516  67.290  1.00  0.00    -0.222 OA 
ENDBRANCH  26  28
ENDBRANCH  23  26
ENDBRANCH  19  20
ENDBRANCH  18  19
ENDBRANCH  17  18
ENDBRANCH   2  17
TORSDOF 11
ENDMDL
MODEL      178
REMARK 921   NORMALIZED FREE ENERGY PREDICTED BY IDOCK:   -3.98 KCAL/MOL
REMARK 922        TOTAL FREE ENERGY PREDICTED BY IDOCK:   -8.11 KCAL/MOL
REMARK 923 INTER-LIGAND FREE ENERGY PREDICTED BY IDOCK:   -7.49 KCAL/MOL
REMARK 924 INTRA-LIGAND FREE ENERGY PREDICTED BY IDOCK:   -0.62 KCAL/MOL
REMARK 927      BINDING AFFINITY PREDICTED BY RF-SCORE:    0.00 PKD
ROOT
HETATM    1  C   UNL     1      -9.282  11.239  65.836  1.00  0.00    -0.212 C  
HETATM    2  N   UNL     1     -10.737  11.096  65.952  1.00  0.00    -0.233 NA 
ENDROOT
BRANCH   2   3
HETATM    3  C   UNL     1     -11.442  12.290  65.437  1.00  0.00    -0.354 C  
BRANCH   3   4
HETATM    4  C   UNL     1     -11.949  13.290  66.501  1.00  0.00    -0.448 C  
BRANCH   4   5
HETATM    5  C   UNL     1     -10.967  14.394  66.827  1.00  0.00    -0.314 A  
HETATM    6  C   UNL     1      -9.193  16.493  67.374  1.00  0.00    -0.216 A  
HETATM    7  C   UNL     1      -9.849  14.614  66.008  1.00  0.00    -0.347 A  
HETATM    8  C   UNL     1     -11.161  15.217  67.944  1.00  0.00    -0.333 A  
HETATM    9  C   UNL     1      -8.963  15.659  66.281  1.00  0.00    -0.377 A  
HETATM   10  C   UNL     1     -10.276  16.262  68.217  1.00  0.00    -0.253 A  
BRANCH   6  11
HETATM   11  N   UNL     1      -8.308  17.571  67.663  1.00  0.00    -0.211 N  
HETATM   12  H   UNL     1      -7.335  17.402  67.918  1.00  0.00     0.000 HD 
BRANCH  11  13
HETATM   13  S   UNL     1      -8.930  19.139  67.569  1.00  0.00    -0.299 S  
HETATM   14  O   UNL     1      -9.576  19.373  68.845  1.00  0.00    -0.400 OA 
HETATM   15  O   UNL     1      -9.643  19.324  66.326  1.00  0.00    -0.349 OA 
HETATM   16  C   UNL     1      -7.438  20.109  67.540  1.00  0.00    -0.297 C  
ENDBRANCH  11  13
ENDBRANCH   6  11
ENDBRANCH   4   5
ENDBRANCH   3   4
ENDBRANCH   2   3
BRANCH   2  17
HETATM   17  C   UNL     1     -11.082  10.810  67.364  1.00  0.00    -0.296 C  
BRANCH  17  18
HETATM   18  C   UNL     1     -10.056   9.945  68.112  1.00  0.00    -0.165 C  
BRANCH  18  19
HETATM   19  O   UNL     1     -10.363   8.560  67.907  1.00  0.00    -0.211 OA 
BRANCH  19  20
HETATM   20  C   UNL     1     -10.440   7.790  69.039  1.00  0.00    -0.205 A  
HETATM   21  C   UNL     1     -10.342   8.265  70.350  1.00  0.00    -0.214 A  
HETATM   22  C   UNL     1     -10.631   6.424  68.822  1.00  0.00    -0.295 A  
HETATM   23  C   UNL     1     -10.562   6.015  71.200  1.00  0.00    -0.246 A  
HETATM   24  C   UNL     1     -10.697   5.533  69.899  1.00  0.00    -0.358 A  
HETATM   25  C   UNL     1     -10.405   7.379  71.427  1.00  0.00    -0.208 A  
BRANCH  23  26
HETATM   26  N   UNL     1     -10.612   5.132  72.316  1.00  0.00    -0.218 N  
HETATM   27  H   UNL     1     -11.498   4.755  72.652  1.00  0.00     0.000 HD 
BRANCH  26  28
HETATM   28  S   UNL     1      -9.153   4.732  73.066  1.00  0.00    -0.120 S  
HETATM   29  O   UNL     1      -8.045   5.017  72.185  1.00  0.00    -0.108 OA 
HETATM   30  C   UNL     1      -9.316   2.969  73.258  1.00  0.00    -0.089 C  
HETATM   31  O   UNL     1      -9.229   5.322  74.388  1.00  0.00    -0.116 OA 
ENDBRANCH  26  28
ENDBRANCH  23  26
ENDBRANCH  19  20
ENDBRANCH  18  19
ENDBRANCH  17  18
ENDBRANCH   2  17
TORSDOF 11
ENDMDL
MODEL      179
REMARK 921   NORMALIZED FREE ENERGY PREDICTED BY IDOCK:   -3.98 KCAL/MOL
REMARK 922        TOTAL FREE ENERGY PREDICTED BY IDOCK:   -8.10 KCAL/MOL
REMARK 923 INTER-LIGAND FREE ENERGY PREDICTED BY IDOCK:   -7.64 KCAL/MOL
REMARK 924 INTRA-LIGAND FREE ENERGY PREDICTED BY IDOCK:   -0.46 KCAL/MOL
REMARK 927      BINDING AFFINITY PREDICTED BY RF-SCORE:    0.00 PKD
ROOT
HETATM    1  C   UNL     1     -12.500  13.425  64.699  1.00  0.00    -0.331 C  
HETATM    2  N   UNL     1     -11.062  13.444  64.986  1.00  0.00    -0.307 NA 
ENDROOT
BRANCH   2   3
HETATM    3  C   UNL     1     -10.509  14.813  64.901  1.00  0.00    -0.369 C  
BRANCH   3   4
HETATM    4  C   UNL     1     -10.672  15.690  66.163  1.00  0.00    -0.305 C  
BRANCH   4   5
HETATM    5  C   UNL     1      -9.591  16.735  66.330  1.00  0.00    -0.303 A  
HETATM    6  C   UNL     1      -7.594  18.660  66.728  1.00  0.00    -0.232 A  
HETATM    7  C   UNL     1      -9.930  18.077  66.559  1.00  0.00    -0.371 A  
HETATM    8  C   UNL     1      -8.237  16.380  66.267  1.00  0.00    -0.343 A  
HETATM    9  C   UNL     1      -8.935  19.038  66.756  1.00  0.00    -0.328 A  
HETATM   10  C   UNL     1      -7.242  17.340  66.465  1.00  0.00    -0.305 A  
BRANCH   6  11
HETATM   11  N   UNL     1      -6.564  19.622  66.938  1.00  0.00    -0.193 N  
HETATM   12  H   UNL     1      -6.272  20.254  66.193  1.00  0.00     0.000 HD 
BRANCH  11  13
HETATM   13  S   UNL     1      -5.845  19.676  68.466  1.00  0.00    -0.232 S  
HETATM   14  O   UNL     1      -5.161  20.952  68.523  1.00  0.00    -0.252 OA 
HETATM   15  O   UNL     1      -5.144  18.441  68.737  1.00  0.00    -0.176 OA 
HETATM   16  C   UNL     1      -7.271  19.786  69.524  1.00  0.00    -0.163 C  
ENDBRANCH  11  13
ENDBRANCH   6  11
ENDBRANCH   4   5
ENDBRANCH   3   4
ENDBRANCH   2   3
BRANCH   2  17
HETATM   17  C   UNL     1     -10.375  12.507  64.067  1.00  0.00    -0.404 C  
BRANCH  17  18
HETATM   18  C   UNL     1     -10.612  11.019  64.372  1.00  0.00    -0.325 C  
BRANCH  18  19
HETATM   19  O   UNL     1      -9.472  10.487  65.057  1.00  0.00    -0.203 OA 
BRANCH  19  20
HETATM   20  C   UNL     1      -9.711   9.971  66.305  1.00  0.00    -0.214 A  
HETATM   21  C   UNL     1     -10.708  10.403  67.183  1.00  0.00    -0.316 A  
HETATM   22  C   UNL     1      -8.867   8.927  66.692  1.00  0.00    -0.150 A  
HETATM   23  C   UNL     1      -9.971   8.803  68.835  1.00  0.00    -0.192 A  
HETATM   24  C   UNL     1      -8.996   8.338  67.954  1.00  0.00    -0.134 A  
HETATM   25  C   UNL     1     -10.837   9.819  68.445  1.00  0.00    -0.244 A  
BRANCH  23  26
HETATM   26  N   UNL     1     -10.118   8.232  70.132  1.00  0.00    -0.188 N  
HETATM   27  H   UNL     1     -10.029   8.802  70.973  1.00  0.00     0.000 HD 
BRANCH  26  28
HETATM   28  S   UNL     1     -10.448   6.578  70.229  1.00  0.00    -0.230 S  
HETATM   29  O   UNL     1     -11.302   6.175  69.137  1.00  0.00    -0.399 OA 
HETATM   30  C   UNL     1     -11.357   6.480  71.758  1.00  0.00    -0.281 C  
HETATM   31  O   UNL     1      -9.162   5.946  70.447  1.00  0.00    -0.154 OA 
ENDBRANCH  26  28
ENDBRANCH  23  26
ENDBRANCH  19  20
ENDBRANCH  18  19
ENDBRANCH  17  18
ENDBRANCH   2  17
TORSDOF 11
ENDMDL
MODEL      180
REMARK 921   NORMALIZED FREE ENERGY PREDICTED BY IDOCK:   -3.97 KCAL/MOL
REMARK 922        TOTAL FREE ENERGY PREDICTED BY IDOCK:   -8.08 KCAL/MOL
REMARK 923 INTER-LIGAND FREE ENERGY PREDICTED BY IDOCK:   -6.54 KCAL/MOL
REMARK 924 INTRA-LIGAND FREE ENERGY PREDICTED BY IDOCK:   -1.54 KCAL/MOL
REMARK 927      BINDING AFFINITY PREDICTED BY RF-SCORE:    0.00 PKD
ROOT
HETATM    1  C   UNL     1      -8.941  20.157  66.005  1.00  0.00    -0.141 C  
HETATM    2  N   UNL     1      -9.052  18.990  66.886  1.00  0.00    -0.294 NA 
ENDROOT
BRANCH   2   3
HETATM    3  C   UNL     1     -10.349  18.968  67.597  1.00  0.00    -0.423 C  
BRANCH   3   4
HETATM    4  C   UNL     1     -10.500  17.898  68.702  1.00  0.00    -0.269 C  
BRANCH   4   5
HETATM    5  C   UNL     1     -10.849  16.521  68.183  1.00  0.00    -0.345 A  
HETATM    6  C   UNL     1     -11.413  13.943  67.240  1.00  0.00    -0.344 A  
HETATM    7  C   UNL     1     -10.553  16.165  66.859  1.00  0.00    -0.283 A  
HETATM    8  C   UNL     1     -11.466  15.578  69.016  1.00  0.00    -0.361 A  
HETATM    9  C   UNL     1     -10.835  14.881  66.388  1.00  0.00    -0.325 A  
HETATM   10  C   UNL     1     -11.748  14.294  68.545  1.00  0.00    -0.376 A  
BRANCH   6  11
HETATM   11  N   UNL     1     -11.699  12.625  66.784  1.00  0.00    -0.382 N  
HETATM   12  H   UNL     1     -12.383  12.458  66.046  1.00  0.00     0.000 HD 
BRANCH  11  13
HETATM   13  S   UNL     1     -10.862  11.348  67.507  1.00  0.00    -0.261 S  
HETATM   14  O   UNL     1     -11.867  10.345  67.798  1.00  0.00    -0.240 OA 
HETATM   15  O   UNL     1      -9.982  11.844  68.541  1.00  0.00    -0.207 OA 
HETATM   16  C   UNL     1      -9.887  10.748  66.145  1.00  0.00    -0.221 C  
ENDBRANCH  11  13
ENDBRANCH   6  11
ENDBRANCH   4   5
ENDBRANCH   3   4
ENDBRANCH   2   3
BRANCH   2  17
HETATM   17  C   UNL     1      -7.903  18.981  67.821  1.00  0.00    -0.251 C  
BRANCH  17  18
HETATM   18  C   UNL     1      -6.641  18.292  67.279  1.00  0.00    -0.186 C  
BRANCH  18  19
HETATM   19  O   UNL     1      -5.989  17.589  68.344  1.00  0.00    -0.162 OA 
BRANCH  19  20
HETATM   20  C   UNL     1      -6.329  16.268  68.485  1.00  0.00    -0.121 A  
HETATM   21  C   UNL     1      -7.012  15.502  67.536  1.00  0.00    -0.223 A  
HETATM   22  C   UNL     1      -5.943  15.675  69.689  1.00  0.00    -0.137 A  
HETATM   23  C   UNL     1      -6.972  13.597  69.020  1.00  0.00    -0.098 A  
HETATM   24  C   UNL     1      -6.258  14.339  69.959  1.00  0.00    -0.157 A  
HETATM   25  C   UNL     1      -7.331  14.169  67.804  1.00  0.00    -0.177 A  
BRANCH  23  26
HETATM   26  N   UNL     1      -7.319  12.238  69.271  1.00  0.00    -0.328 N  
HETATM   27  H   UNL     1      -8.169  11.997  69.780  1.00  0.00     0.000 HD 
BRANCH  26  28
HETATM   28  S   UNL     1      -6.275  11.042  68.697  1.00  0.00    -0.044 S  
HETATM   29  O   UNL     1      -7.007  10.074  67.916  1.00  0.00    -0.081 OA 
HETATM   30  C   UNL     1      -5.726  10.283  70.213  1.00  0.00    -0.065 C  
HETATM   31  O   UNL     1      -5.146  11.758  68.137  1.00  0.00    -0.043 OA 
ENDBRANCH  26  28
ENDBRANCH  23  26
ENDBRANCH  19  20
ENDBRANCH  18  19
ENDBRANCH  17  18
ENDBRANCH   2  17
TORSDOF 11
ENDMDL
MODEL      181
REMARK 921   NORMALIZED FREE ENERGY PREDICTED BY IDOCK:   -3.94 KCAL/MOL
REMARK 922        TOTAL FREE ENERGY PREDICTED BY IDOCK:   -8.03 KCAL/MOL
REMARK 923 INTER-LIGAND FREE ENERGY PREDICTED BY IDOCK:   -7.49 KCAL/MOL
REMARK 924 INTRA-LIGAND FREE ENERGY PREDICTED BY IDOCK:   -0.54 KCAL/MOL
REMARK 927      BINDING AFFINITY PREDICTED BY RF-SCORE:    0.00 PKD
ROOT
HETATM    1  C   UNL     1      -9.182  11.515  68.179  1.00  0.00    -0.181 C  
HETATM    2  N   UNL     1     -10.174  10.456  67.970  1.00  0.00    -0.162 NA 
ENDROOT
BRANCH   2   3
HETATM    3  C   UNL     1      -9.689   9.439  67.013  1.00  0.00    -0.178 C  
BRANCH   3   4
HETATM    4  C   UNL     1     -10.245   8.009  67.202  1.00  0.00    -0.362 C  
BRANCH   4   5
HETATM    5  C   UNL     1      -9.989   7.425  68.574  1.00  0.00    -0.172 A  
HETATM    6  C   UNL     1      -9.522   6.425  71.150  1.00  0.00    -0.167 A  
HETATM    7  C   UNL     1      -8.691   7.406  69.107  1.00  0.00    -0.136 A  
HETATM    8  C   UNL     1     -11.042   6.901  69.336  1.00  0.00    -0.249 A  
HETATM    9  C   UNL     1      -8.458   6.906  70.391  1.00  0.00    -0.134 A  
HETATM   10  C   UNL     1     -10.809   6.402  70.619  1.00  0.00    -0.331 A  
BRANCH   6  11
HETATM   11  N   UNL     1      -9.307   5.921  72.465  1.00  0.00    -0.142 N  
HETATM   12  H   UNL     1      -8.946   6.520  73.207  1.00  0.00     0.000 HD 
BRANCH  11  13
HETATM   13  S   UNL     1      -9.673   4.297  72.750  1.00  0.00    -0.140 S  
HETATM   14  O   UNL     1      -8.764   3.876  73.797  1.00  0.00    -0.093 OA 
HETATM   15  O   UNL     1      -9.759   3.573  71.502  1.00  0.00    -0.156 OA 
HETATM   16  C   UNL     1     -11.296   4.421  73.469  1.00  0.00    -0.245 C  
ENDBRANCH  11  13
ENDBRANCH   6  11
ENDBRANCH   4   5
ENDBRANCH   3   4
ENDBRANCH   2   3
BRANCH   2  17
HETATM   17  C   UNL     1     -11.449  11.071  67.532  1.00  0.00    -0.185 C  
BRANCH  17  18
HETATM   18  C   UNL     1     -11.303  12.134  66.432  1.00  0.00    -0.356 C  
BRANCH  18  19
HETATM   19  O   UNL     1     -12.190  13.226  66.706  1.00  0.00    -0.363 OA 
BRANCH  19  20
HETATM   20  C   UNL     1     -11.606  14.463  66.796  1.00  0.00    -0.385 A  
HETATM   21  C   UNL     1     -11.485  15.219  67.965  1.00  0.00    -0.351 A  
HETATM   22  C   UNL     1     -11.102  14.975  65.597  1.00  0.00    -0.349 A  
HETATM   23  C   UNL     1     -10.426  17.000  66.723  1.00  0.00    -0.257 A  
HETATM   24  C   UNL     1     -10.507  16.241  65.558  1.00  0.00    -0.383 A  
HETATM   25  C   UNL     1     -10.895  16.484  67.927  1.00  0.00    -0.326 A  
BRANCH  23  26
HETATM   26  N   UNL     1      -9.838  18.298  66.713  1.00  0.00    -0.323 N  
HETATM   27  H   UNL     1     -10.402  19.131  66.548  1.00  0.00     0.000 HD 
BRANCH  26  28
HETATM   28  S   UNL     1      -8.175  18.408  66.983  1.00  0.00    -0.253 S  
HETATM   29  O   UNL     1      -7.823  17.734  68.210  1.00  0.00    -0.258 OA 
HETATM   30  C   UNL     1      -7.958  20.164  67.192  1.00  0.00    -0.326 C  
HETATM   31  O   UNL     1      -7.558  18.042  65.723  1.00  0.00    -0.527 OA 
ENDBRANCH  26  28
ENDBRANCH  23  26
ENDBRANCH  19  20
ENDBRANCH  18  19
ENDBRANCH  17  18
ENDBRANCH   2  17
TORSDOF 11
ENDMDL
MODEL      182
REMARK 921   NORMALIZED FREE ENERGY PREDICTED BY IDOCK:   -3.94 KCAL/MOL
REMARK 922        TOTAL FREE ENERGY PREDICTED BY IDOCK:   -8.03 KCAL/MOL
REMARK 923 INTER-LIGAND FREE ENERGY PREDICTED BY IDOCK:   -7.69 KCAL/MOL
REMARK 924 INTRA-LIGAND FREE ENERGY PREDICTED BY IDOCK:   -0.34 KCAL/MOL
REMARK 927      BINDING AFFINITY PREDICTED BY RF-SCORE:    0.00 PKD
ROOT
HETATM    1  C   UNL     1     -12.947  13.546  64.852  1.00  0.00    -0.088 C  
HETATM    2  N   UNL     1     -11.631  12.952  64.596  1.00  0.00    -0.330 NA 
ENDROOT
BRANCH   2   3
HETATM    3  C   UNL     1     -11.318  11.885  65.570  1.00  0.00    -0.277 C  
BRANCH   3   4
HETATM    4  C   UNL     1     -10.204  10.895  65.159  1.00  0.00    -0.360 C  
BRANCH   4   5
HETATM    5  C   UNL     1      -9.652  10.078  66.305  1.00  0.00    -0.256 A  
HETATM    6  C   UNL     1      -8.572   8.525  68.373  1.00  0.00    -0.139 A  
HETATM    7  C   UNL     1     -10.148   8.792  66.564  1.00  0.00    -0.349 A  
HETATM    8  C   UNL     1      -8.633  10.588  67.121  1.00  0.00    -0.127 A  
HETATM    9  C   UNL     1      -9.611   8.017  67.596  1.00  0.00    -0.185 A  
HETATM   10  C   UNL     1      -8.096   9.814  68.152  1.00  0.00    -0.108 A  
BRANCH   6  11
HETATM   11  N   UNL     1      -8.003   7.748  69.422  1.00  0.00    -0.122 N  
HETATM   12  H   UNL     1      -8.477   7.644  70.319  1.00  0.00     0.000 HD 
BRANCH  11  13
HETATM   13  S   UNL     1      -6.515   7.004  69.125  1.00  0.00    -0.041 S  
HETATM   14  O   UNL     1      -6.400   5.963  70.126  1.00  0.00    -0.029 OA 
HETATM   15  O   UNL     1      -5.479   7.998  68.960  1.00  0.00    -0.028 OA 
HETATM   16  C   UNL     1      -6.823   6.210  67.562  1.00  0.00    -0.063 C  
ENDBRANCH  11  13
ENDBRANCH   6  11
ENDBRANCH   4   5
ENDBRANCH   3   4
ENDBRANCH   2   3
BRANCH   2  17
HETATM   17  C   UNL     1     -10.610  14.026  64.597  1.00  0.00    -0.395 C  
BRANCH  17  18
HETATM   18  C   UNL     1     -10.010  14.338  65.977  1.00  0.00    -0.319 C  
BRANCH  18  19
HETATM   19  O   UNL     1     -10.699  15.454  66.553  1.00  0.00    -0.303 OA 
BRANCH  19  20
HETATM   20  C   UNL     1     -10.968  15.362  67.895  1.00  0.00    -0.310 A  
HETATM   21  C   UNL     1     -10.915  16.421  68.806  1.00  0.00    -0.344 A  
HETATM   22  C   UNL     1     -11.322  14.089  68.349  1.00  0.00    -0.321 A  
HETATM   23  C   UNL     1     -11.500  14.922  70.608  1.00  0.00    -0.266 A  
HETATM   24  C   UNL     1     -11.593  13.866  69.703  1.00  0.00    -0.347 A  
HETATM   25  C   UNL     1     -11.182  16.200  70.158  1.00  0.00    -0.374 A  
BRANCH  23  26
HETATM   26  N   UNL     1     -11.757  14.724  71.994  1.00  0.00    -0.384 N  
HETATM   27  H   UNL     1     -10.995  14.572  72.656  1.00  0.00     0.000 HD 
BRANCH  26  28
HETATM   28  S   UNL     1     -13.366  14.749  72.506  1.00  0.00    -0.475 S  
HETATM   29  O   UNL     1     -13.790  13.421  72.885  1.00  0.00    -0.624 OA 
HETATM   30  C   UNL     1     -14.212  15.235  71.016  1.00  0.00    -0.175 C  
HETATM   31  O   UNL     1     -13.453  15.857  73.437  1.00  0.00    -0.552 OA 
ENDBRANCH  26  28
ENDBRANCH  23  26
ENDBRANCH  19  20
ENDBRANCH  18  19
ENDBRANCH  17  18
ENDBRANCH   2  17
TORSDOF 11
ENDMDL
MODEL      183
REMARK 921   NORMALIZED FREE ENERGY PREDICTED BY IDOCK:   -3.93 KCAL/MOL
REMARK 922        TOTAL FREE ENERGY PREDICTED BY IDOCK:   -8.01 KCAL/MOL
REMARK 923 INTER-LIGAND FREE ENERGY PREDICTED BY IDOCK:   -5.62 KCAL/MOL
REMARK 924 INTRA-LIGAND FREE ENERGY PREDICTED BY IDOCK:   -2.39 KCAL/MOL
REMARK 927      BINDING AFFINITY PREDICTED BY RF-SCORE:    0.00 PKD
ROOT
HETATM    1  C   UNL     1      -8.085   7.612  73.267  1.00  0.00    -0.134 C  
HETATM    2  N   UNL     1      -9.250   7.448  72.392  1.00  0.00    -0.136 NA 
ENDROOT
BRANCH   2   3
HETATM    3  C   UNL     1     -10.228   8.542  72.579  1.00  0.00    -0.253 C  
BRANCH   3   4
HETATM    4  C   UNL     1     -11.289   8.702  71.466  1.00  0.00    -0.358 C  
BRANCH   4   5
HETATM    5  C   UNL     1     -10.845   9.574  70.312  1.00  0.00    -0.319 A  
HETATM    6  C   UNL     1     -10.042  11.122  68.119  1.00  0.00    -0.179 A  
HETATM    7  C   UNL     1      -9.532   9.493  69.826  1.00  0.00    -0.228 A  
HETATM    8  C   UNL     1     -11.738  10.468  69.707  1.00  0.00    -0.354 A  
HETATM    9  C   UNL     1      -9.130  10.266  68.733  1.00  0.00    -0.159 A  
HETATM   10  C   UNL     1     -11.337  11.240  68.615  1.00  0.00    -0.336 A  
BRANCH   6  11
HETATM   11  N   UNL     1      -9.656  11.909  66.997  1.00  0.00    -0.187 N  
HETATM   12  H   UNL     1      -9.345  12.874  67.110  1.00  0.00     0.000 HD 
BRANCH  11  13
HETATM   13  S   UNL     1      -9.732  11.187  65.471  1.00  0.00    -0.240 S  
HETATM   14  O   UNL     1     -10.177  12.234  64.573  1.00  0.00    -0.290 OA 
HETATM   15  O   UNL     1     -10.428   9.923  65.546  1.00  0.00    -0.126 OA 
HETATM   16  C   UNL     1      -8.010  10.891  65.134  1.00  0.00     0.138 C  
ENDBRANCH  11  13
ENDBRANCH   6  11
ENDBRANCH   4   5
ENDBRANCH   3   4
ENDBRANCH   2   3
BRANCH   2  17
HETATM   17  C   UNL     1      -9.851   6.116  72.634  1.00  0.00    -0.167 C  
BRANCH  17  18
HETATM   18  C   UNL     1      -9.629   5.097  71.505  1.00  0.00    -0.156 C  
BRANCH  18  19
HETATM   19  O   UNL     1     -10.642   5.267  70.506  1.00  0.00    -0.262 OA 
BRANCH  19  20
HETATM   20  C   UNL     1     -10.227   5.821  69.322  1.00  0.00    -0.226 A  
HETATM   21  C   UNL     1     -11.066   6.254  68.292  1.00  0.00    -0.364 A  
HETATM   22  C   UNL     1      -8.843   5.947  69.173  1.00  0.00    -0.117 A  
HETATM   23  C   UNL     1      -9.145   6.868  66.962  1.00  0.00    -0.136 A  
HETATM   24  C   UNL     1      -8.299   6.474  67.997  1.00  0.00    -0.116 A  
HETATM   25  C   UNL     1     -10.525   6.776  67.116  1.00  0.00    -0.364 A  
BRANCH  23  26
HETATM   26  N   UNL     1      -8.621   7.395  65.747  1.00  0.00    -0.183 N  
HETATM   27  H   UNL     1      -8.761   8.372  65.492  1.00  0.00     0.000 HD 
BRANCH  26  28
HETATM   28  S   UNL     1      -7.759   6.345  64.743  1.00  0.00    -0.111 S  
HETATM   29  O   UNL     1      -8.227   4.990  64.920  1.00  0.00    -0.118 OA 
HETATM   30  C   UNL     1      -6.109   6.490  65.399  1.00  0.00    -0.034 C  
HETATM   31  O   UNL     1      -7.765   6.975  63.438  1.00  0.00    -0.108 OA 
ENDBRANCH  26  28
ENDBRANCH  23  26
ENDBRANCH  19  20
ENDBRANCH  18  19
ENDBRANCH  17  18
ENDBRANCH   2  17
TORSDOF 11
ENDMDL
MODEL      184
REMARK 921   NORMALIZED FREE ENERGY PREDICTED BY IDOCK:   -3.92 KCAL/MOL
REMARK 922        TOTAL FREE ENERGY PREDICTED BY IDOCK:   -8.01 KCAL/MOL
REMARK 923 INTER-LIGAND FREE ENERGY PREDICTED BY IDOCK:   -6.05 KCAL/MOL
REMARK 924 INTRA-LIGAND FREE ENERGY PREDICTED BY IDOCK:   -1.96 KCAL/MOL
REMARK 927      BINDING AFFINITY PREDICTED BY RF-SCORE:    0.00 PKD
ROOT
HETATM    1  C   UNL     1     -10.605  15.826  66.494  1.00  0.00    -0.306 C  
HETATM    2  N   UNL     1     -10.753  16.183  67.909  1.00  0.00    -0.312 NA 
ENDROOT
BRANCH   2   3
HETATM    3  C   UNL     1      -9.440  16.412  68.550  1.00  0.00    -0.227 C  
BRANCH   3   4
HETATM    4  C   UNL     1      -8.200  16.015  67.719  1.00  0.00    -0.159 C  
BRANCH   4   5
HETATM    5  C   UNL     1      -7.597  14.684  68.109  1.00  0.00    -0.123 A  
HETATM    6  C   UNL     1      -6.416  12.231  68.773  1.00  0.00    -0.082 A  
HETATM    7  C   UNL     1      -7.919  13.521  67.394  1.00  0.00    -0.165 A  
HETATM    8  C   UNL     1      -6.703  14.592  69.185  1.00  0.00    -0.115 A  
HETATM    9  C   UNL     1      -7.332  12.297  67.725  1.00  0.00    -0.118 A  
HETATM   10  C   UNL     1      -6.115  13.369  69.515  1.00  0.00    -0.110 A  
BRANCH   6  11
HETATM   11  N   UNL     1      -5.797  10.996  69.119  1.00  0.00    -0.041 N  
HETATM   12  H   UNL     1      -4.958  10.672  68.638  1.00  0.00     0.000 HD 
BRANCH  11  13
HETATM   13  S   UNL     1      -6.503  10.086  70.355  1.00  0.00    -0.128 S  
HETATM   14  O   UNL     1      -7.909   9.998  70.013  1.00  0.00    -0.166 OA 
HETATM   15  O   UNL     1      -6.079  10.577  71.647  1.00  0.00    -0.244 OA 
HETATM   16  C   UNL     1      -5.783   8.484  70.071  1.00  0.00    -0.024 C  
ENDBRANCH  11  13
ENDBRANCH   6  11
ENDBRANCH   4   5
ENDBRANCH   3   4
ENDBRANCH   2   3
BRANCH   2  17
HETATM   17  C   UNL     1     -11.531  15.125  68.594  1.00  0.00    -0.325 C  
BRANCH  17  18
HETATM   18  C   UNL     1     -12.035  14.002  67.674  1.00  0.00    -0.368 C  
BRANCH  18  19
HETATM   19  O   UNL     1     -11.931  12.746  68.357  1.00  0.00    -0.319 OA 
BRANCH  19  20
HETATM   20  C   UNL     1     -11.325  11.734  67.658  1.00  0.00    -0.302 A  
HETATM   21  C   UNL     1     -11.128  10.432  68.125  1.00  0.00    -0.344 A  
HETATM   22  C   UNL     1     -10.881  12.074  66.378  1.00  0.00    -0.314 A  
HETATM   23  C   UNL     1     -10.000   9.847  66.070  1.00  0.00    -0.268 A  
HETATM   24  C   UNL     1     -10.222  11.132  65.579  1.00  0.00    -0.319 A  
HETATM   25  C   UNL     1     -10.469   9.491  67.331  1.00  0.00    -0.336 A  
BRANCH  23  26
HETATM   26  N   UNL     1      -9.322   8.871  65.287  1.00  0.00    -0.450 N  
HETATM   27  H   UNL     1      -9.826   8.096  64.856  1.00  0.00     0.000 HD 
BRANCH  26  28
HETATM   28  S   UNL     1      -7.652   9.040  65.096  1.00  0.00    -0.101 S  
HETATM   29  O   UNL     1      -7.364   9.967  64.027  1.00  0.00    -0.131 OA 
HETATM   30  C   UNL     1      -7.177   7.397  64.595  1.00  0.00    -0.069 C  
HETATM   31  O   UNL     1      -7.135   9.253  66.433  1.00  0.00    -0.086 OA 
ENDBRANCH  26  28
ENDBRANCH  23  26
ENDBRANCH  19  20
ENDBRANCH  18  19
ENDBRANCH  17  18
ENDBRANCH   2  17
TORSDOF 11
ENDMDL
MODEL      185
REMARK 921   NORMALIZED FREE ENERGY PREDICTED BY IDOCK:   -3.90 KCAL/MOL
REMARK 922        TOTAL FREE ENERGY PREDICTED BY IDOCK:   -7.96 KCAL/MOL
REMARK 923 INTER-LIGAND FREE ENERGY PREDICTED BY IDOCK:   -5.49 KCAL/MOL
REMARK 924 INTRA-LIGAND FREE ENERGY PREDICTED BY IDOCK:   -2.48 KCAL/MOL
REMARK 927      BINDING AFFINITY PREDICTED BY RF-SCORE:    0.00 PKD
ROOT
HETATM    1  C   UNL     1     -10.377  13.164  67.639  1.00  0.00    -0.223 C  
HETATM    2  N   UNL     1      -9.696  11.871  67.517  1.00  0.00    -0.180 NA 
ENDROOT
BRANCH   2   3
HETATM    3  C   UNL     1      -8.445  11.840  68.306  1.00  0.00    -0.161 C  
BRANCH   3   4
HETATM    4  C   UNL     1      -7.618  10.538  68.217  1.00  0.00    -0.096 C  
BRANCH   4   5
HETATM    5  C   UNL     1      -8.035   9.474  69.207  1.00  0.00    -0.094 A  
HETATM    6  C   UNL     1      -8.876   7.481  70.989  1.00  0.00    -0.146 A  
HETATM    7  C   UNL     1      -8.993   9.756  70.192  1.00  0.00    -0.235 A  
HETATM    8  C   UNL     1      -7.478   8.189  69.153  1.00  0.00    -0.087 A  
HETATM    9  C   UNL     1      -9.412   8.764  71.082  1.00  0.00    -0.306 A  
HETATM   10  C   UNL     1      -7.897   7.197  70.042  1.00  0.00    -0.113 A  
BRANCH   6  11
HETATM   11  N   UNL     1      -9.298   6.452  71.879  1.00  0.00    -0.153 N  
HETATM   12  H   UNL     1      -8.813   6.285  72.761  1.00  0.00     0.000 HD 
BRANCH  11  13
HETATM   13  S   UNL     1     -10.630   5.520  71.421  1.00  0.00    -0.220 S  
HETATM   14  O   UNL     1     -10.079   4.385  70.709  1.00  0.00    -0.204 OA 
HETATM   15  O   UNL     1     -11.647   6.354  70.822  1.00  0.00    -0.344 OA 
HETATM   16  C   UNL     1     -11.207   4.931  72.998  1.00  0.00    -0.289 C  
ENDBRANCH  11  13
ENDBRANCH   6  11
ENDBRANCH   4   5
ENDBRANCH   3   4
ENDBRANCH   2   3
BRANCH   2  17
HETATM   17  C   UNL     1      -9.457  11.587  66.083  1.00  0.00    -0.220 C  
BRANCH  17  18
HETATM   18  C   UNL     1     -10.103  10.290  65.570  1.00  0.00    -0.281 C  
BRANCH  18  19
HETATM   19  O   UNL     1     -10.555   9.512  66.685  1.00  0.00    -0.195 OA 
BRANCH  19  20
HETATM   20  C   UNL     1     -10.180   8.193  66.685  1.00  0.00    -0.259 A  
HETATM   21  C   UNL     1     -10.820   7.168  67.388  1.00  0.00    -0.346 A  
HETATM   22  C   UNL     1      -9.060   7.889  65.906  1.00  0.00    -0.139 A  
HETATM   23  C   UNL     1      -9.192   5.576  66.583  1.00  0.00    -0.135 A  
HETATM   24  C   UNL     1      -8.566   6.581  65.849  1.00  0.00    -0.153 A  
HETATM   25  C   UNL     1     -10.327   5.863  67.335  1.00  0.00    -0.274 A  
BRANCH  23  26
HETATM   26  N   UNL     1      -8.704   4.238  66.556  1.00  0.00    -0.112 N  
HETATM   27  H   UNL     1      -8.246   3.826  67.369  1.00  0.00     0.000 HD 
BRANCH  26  28
HETATM   28  S   UNL     1      -8.911   3.356  65.130  1.00  0.00    -0.130 S  
HETATM   29  O   UNL     1     -10.198   3.650  64.545  1.00  0.00    -0.196 OA 
HETATM   30  C   UNL     1      -8.908   1.681  65.738  1.00  0.00    -0.124 C  
HETATM   31  O   UNL     1      -7.685   3.549  64.381  1.00  0.00    -0.075 OA 
ENDBRANCH  26  28
ENDBRANCH  23  26
ENDBRANCH  19  20
ENDBRANCH  18  19
ENDBRANCH  17  18
ENDBRANCH   2  17
TORSDOF 11
ENDMDL
MODEL      186
REMARK 921   NORMALIZED FREE ENERGY PREDICTED BY IDOCK:   -3.89 KCAL/MOL
REMARK 922        TOTAL FREE ENERGY PREDICTED BY IDOCK:   -7.96 KCAL/MOL
REMARK 923 INTER-LIGAND FREE ENERGY PREDICTED BY IDOCK:   -7.66 KCAL/MOL
REMARK 924 INTRA-LIGAND FREE ENERGY PREDICTED BY IDOCK:   -0.30 KCAL/MOL
REMARK 927      BINDING AFFINITY PREDICTED BY RF-SCORE:    0.00 PKD
ROOT
HETATM    1  C   UNL     1     -11.705   8.282  72.427  1.00  0.00    -0.397 C  
HETATM    2  N   UNL     1     -11.248   7.824  71.111  1.00  0.00    -0.259 NA 
ENDROOT
BRANCH   2   3
HETATM    3  C   UNL     1     -11.532   6.386  70.909  1.00  0.00    -0.344 C  
BRANCH   3   4
HETATM    4  C   UNL     1     -10.314   5.437  70.975  1.00  0.00    -0.307 C  
BRANCH   4   5
HETATM    5  C   UNL     1     -10.020   4.721  69.676  1.00  0.00    -0.297 A  
HETATM    6  C   UNL     1      -9.552   3.348  67.278  1.00  0.00    -0.089 A  
HETATM    7  C   UNL     1      -9.383   3.471  69.683  1.00  0.00    -0.244 A  
HETATM    8  C   UNL     1     -10.384   5.288  68.448  1.00  0.00    -0.178 A  
HETATM    9  C   UNL     1      -9.148   2.786  68.488  1.00  0.00    -0.217 A  
HETATM   10  C   UNL     1     -10.150   4.604  67.253  1.00  0.00    -0.169 A  
BRANCH   6  11
HETATM   11  N   UNL     1      -9.332   2.662  66.050  1.00  0.00    -0.350 N  
HETATM   12  H   UNL     1      -9.335   1.642  66.006  1.00  0.00     0.000 HD 
BRANCH  11  13
HETATM   13  S   UNL     1      -9.066   3.597  64.668  1.00  0.00    -0.141 S  
HETATM   14  O   UNL     1      -8.116   4.615  65.070  1.00  0.00    -0.097 OA 
HETATM   15  O   UNL     1     -10.323   3.952  64.050  1.00  0.00    -0.218 OA 
HETATM   16  C   UNL     1      -8.202   2.444  63.623  1.00  0.00    -0.081 C  
ENDBRANCH  11  13
ENDBRANCH   6  11
ENDBRANCH   4   5
ENDBRANCH   3   4
ENDBRANCH   2   3
BRANCH   2  17
HETATM   17  C   UNL     1      -9.806   8.132  70.968  1.00  0.00    -0.179 C  
BRANCH  17  18
HETATM   18  C   UNL     1      -9.459   9.028  69.768  1.00  0.00    -0.175 C  
BRANCH  18  19
HETATM   19  O   UNL     1     -10.572   9.067  68.866  1.00  0.00    -0.222 OA 
BRANCH  19  20
HETATM   20  C   UNL     1     -10.956  10.313  68.443  1.00  0.00    -0.260 A  
HETATM   21  C   UNL     1     -10.822  10.803  67.142  1.00  0.00    -0.335 A  
HETATM   22  C   UNL     1     -11.522  11.131  69.425  1.00  0.00    -0.368 A  
HETATM   23  C   UNL     1     -11.755  12.924  67.826  1.00  0.00    -0.362 A  
HETATM   24  C   UNL     1     -11.927  12.434  69.119  1.00  0.00    -0.291 A  
HETATM   25  C   UNL     1     -11.223  12.105  66.835  1.00  0.00    -0.375 A  
BRANCH  23  26
HETATM   26  N   UNL     1     -12.145  14.251  67.488  1.00  0.00    -0.570 N  
HETATM   27  H   UNL     1     -12.906  14.427  66.831  1.00  0.00     0.000 HD 
BRANCH  26  28
HETATM   28  S   UNL     1     -11.304  15.525  68.210  1.00  0.00    -0.353 S  
HETATM   29  O   UNL     1     -10.967  16.523  67.223  1.00  0.00    -0.225 OA 
HETATM   30  C   UNL     1      -9.817  14.711  68.758  1.00  0.00    -0.227 C  
HETATM   31  O   UNL     1     -12.072  15.868  69.391  1.00  0.00    -0.330 OA 
ENDBRANCH  26  28
ENDBRANCH  23  26
ENDBRANCH  19  20
ENDBRANCH  18  19
ENDBRANCH  17  18
ENDBRANCH   2  17
TORSDOF 11
ENDMDL
MODEL      187
REMARK 921   NORMALIZED FREE ENERGY PREDICTED BY IDOCK:   -3.89 KCAL/MOL
REMARK 922        TOTAL FREE ENERGY PREDICTED BY IDOCK:   -7.95 KCAL/MOL
REMARK 923 INTER-LIGAND FREE ENERGY PREDICTED BY IDOCK:   -7.26 KCAL/MOL
REMARK 924 INTRA-LIGAND FREE ENERGY PREDICTED BY IDOCK:   -0.68 KCAL/MOL
REMARK 927      BINDING AFFINITY PREDICTED BY RF-SCORE:    0.00 PKD
ROOT
HETATM    1  C   UNL     1      -7.484  11.548  68.841  1.00  0.00    -0.106 C  
HETATM    2  N   UNL     1      -8.835  11.303  68.324  1.00  0.00    -0.152 NA 
ENDROOT
BRANCH   2   3
HETATM    3  C   UNL     1      -9.257   9.904  68.549  1.00  0.00    -0.136 C  
BRANCH   3   4
HETATM    4  C   UNL     1      -9.911   9.604  69.917  1.00  0.00    -0.273 C  
BRANCH   4   5
HETATM    5  C   UNL     1      -9.691   8.191  70.409  1.00  0.00    -0.179 A  
HETATM    6  C   UNL     1      -9.311   5.597  71.401  1.00  0.00    -0.147 A  
HETATM    7  C   UNL     1      -8.491   7.839  71.045  1.00  0.00    -0.122 A  
HETATM    8  C   UNL     1     -10.682   7.214  70.244  1.00  0.00    -0.258 A  
HETATM    9  C   UNL     1      -8.300   6.546  71.538  1.00  0.00    -0.121 A  
HETATM   10  C   UNL     1     -10.492   5.921  70.738  1.00  0.00    -0.311 A  
BRANCH   6  11
HETATM   11  N   UNL     1      -9.142   4.277  71.907  1.00  0.00    -0.119 N  
HETATM   12  H   UNL     1      -8.739   3.538  71.330  1.00  0.00     0.000 HD 
BRANCH  11  13
HETATM   13  S   UNL     1      -9.633   3.979  73.496  1.00  0.00    -0.110 S  
HETATM   14  O   UNL     1     -10.003   5.273  74.032  1.00  0.00    -0.166 OA 
HETATM   15  O   UNL     1      -8.670   3.139  74.171  1.00  0.00    -0.079 OA 
HETATM   16  C   UNL     1     -11.134   3.060  73.235  1.00  0.00    -0.127 C  
ENDBRANCH  11  13
ENDBRANCH   6  11
ENDBRANCH   4   5
ENDBRANCH   3   4
ENDBRANCH   2   3
BRANCH   2  17
HETATM   17  C   UNL     1      -8.876  11.674  66.890  1.00  0.00    -0.190 C  
BRANCH  17  18
HETATM   18  C   UNL     1     -10.085  12.531  66.484  1.00  0.00    -0.238 C  
BRANCH  18  19
HETATM   19  O   UNL     1      -9.826  13.902  66.807  1.00  0.00    -0.258 OA 
BRANCH  19  20
HETATM   20  C   UNL     1     -10.641  14.457  67.760  1.00  0.00    -0.246 A  
HETATM   21  C   UNL     1     -10.540  15.760  68.253  1.00  0.00    -0.271 A  
HETATM   22  C   UNL     1     -11.642  13.617  68.253  1.00  0.00    -0.374 A  
HETATM   23  C   UNL     1     -12.385  15.352  69.758  1.00  0.00    -0.255 A  
HETATM   24  C   UNL     1     -12.519  14.062  69.249  1.00  0.00    -0.046 A  
HETATM   25  C   UNL     1     -11.412  16.206  69.248  1.00  0.00    -0.304 A  
BRANCH  23  26
HETATM   26  N   UNL     1     -13.253  15.829  70.781  1.00  0.00    -0.739 N  
HETATM   27  H   UNL     1     -14.007  16.483  70.571  1.00  0.00     0.000 HD 
BRANCH  26  28
HETATM   28  S   UNL     1     -12.991  15.274  72.355  1.00  0.00    -0.423 S  
HETATM   29  O   UNL     1     -11.584  15.028  72.569  1.00  0.00    -0.363 OA 
HETATM   30  C   UNL     1     -13.866  13.723  72.342  1.00  0.00    -0.579 C  
HETATM   31  O   UNL     1     -13.731  16.183  73.208  1.00  0.00    -0.568 OA 
ENDBRANCH  26  28
ENDBRANCH  23  26
ENDBRANCH  19  20
ENDBRANCH  18  19
ENDBRANCH  17  18
ENDBRANCH   2  17
TORSDOF 11
ENDMDL
MODEL      188
REMARK 921   NORMALIZED FREE ENERGY PREDICTED BY IDOCK:   -3.88 KCAL/MOL
REMARK 922        TOTAL FREE ENERGY PREDICTED BY IDOCK:   -7.93 KCAL/MOL
REMARK 923 INTER-LIGAND FREE ENERGY PREDICTED BY IDOCK:   -6.54 KCAL/MOL
REMARK 924 INTRA-LIGAND FREE ENERGY PREDICTED BY IDOCK:   -1.39 KCAL/MOL
REMARK 927      BINDING AFFINITY PREDICTED BY RF-SCORE:    0.00 PKD
ROOT
HETATM    1  C   UNL     1      -6.556  18.148  65.723  1.00  0.00    -0.278 C  
HETATM    2  N   UNL     1      -6.419  17.658  67.099  1.00  0.00    -0.154 NA 
ENDROOT
BRANCH   2   3
HETATM    3  C   UNL     1      -6.251  16.189  67.138  1.00  0.00    -0.099 C  
BRANCH   3   4
HETATM    4  C   UNL     1      -7.328  15.403  67.920  1.00  0.00    -0.155 C  
BRANCH   4   5
HETATM    5  C   UNL     1      -7.301  13.911  67.676  1.00  0.00    -0.186 A  
HETATM    6  C   UNL     1      -7.261  11.161  67.137  1.00  0.00    -0.120 A  
HETATM    7  C   UNL     1      -8.497  13.181  67.604  1.00  0.00    -0.194 A  
HETATM    8  C   UNL     1      -6.084  13.235  67.511  1.00  0.00    -0.098 A  
HETATM    9  C   UNL     1      -8.478  11.810  67.336  1.00  0.00    -0.158 A  
HETATM   10  C   UNL     1      -6.065  11.865  67.243  1.00  0.00    -0.141 A  
BRANCH   6  11
HETATM   11  N   UNL     1      -7.220   9.767  66.852  1.00  0.00    -0.090 N  
HETATM   12  H   UNL     1      -7.262   9.073  67.599  1.00  0.00     0.000 HD 
BRANCH  11  13
HETATM   13  S   UNL     1      -7.100   9.303  65.232  1.00  0.00    -0.092 S  
HETATM   14  O   UNL     1      -5.706   8.959  65.032  1.00  0.00    -0.053 OA 
HETATM   15  O   UNL     1      -7.759  10.267  64.381  1.00  0.00    -0.150 OA 
HETATM   16  C   UNL     1      -8.030   7.785  65.229  1.00  0.00    -0.127 C  
ENDBRANCH  11  13
ENDBRANCH   6  11
ENDBRANCH   4   5
ENDBRANCH   3   4
ENDBRANCH   2   3
BRANCH   2  17
HETATM   17  C   UNL     1      -7.589  18.107  67.889  1.00  0.00    -0.233 C  
BRANCH  17  18
HETATM   18  C   UNL     1      -8.764  18.635  67.051  1.00  0.00    -0.280 C  
BRANCH  18  19
HETATM   19  O   UNL     1      -9.996  18.163  67.610  1.00  0.00    -0.310 OA 
BRANCH  19  20
HETATM   20  C   UNL     1     -10.455  16.967  67.121  1.00  0.00    -0.291 A  
HETATM   21  C   UNL     1     -10.328  16.530  65.800  1.00  0.00    -0.359 A  
HETATM   22  C   UNL     1     -11.097  16.146  68.052  1.00  0.00    -0.317 A  
HETATM   23  C   UNL     1     -11.531  14.505  66.337  1.00  0.00    -0.360 A  
HETATM   24  C   UNL     1     -11.631  14.913  67.665  1.00  0.00    -0.357 A  
HETATM   25  C   UNL     1     -10.864  15.301  65.410  1.00  0.00    -0.399 A  
BRANCH  23  26
HETATM   26  N   UNL     1     -12.077  13.261  65.909  1.00  0.00    -0.421 N  
HETATM   27  H   UNL     1     -12.964  12.919  66.279  1.00  0.00     0.000 HD 
BRANCH  26  28
HETATM   28  S   UNL     1     -11.205  12.371  64.769  1.00  0.00    -0.323 S  
HETATM   29  O   UNL     1      -9.958  13.034  64.468  1.00  0.00    -0.251 OA 
HETATM   30  C   UNL     1     -12.276  12.455  63.348  1.00  0.00    -0.523 C  
HETATM   31  O   UNL     1     -11.230  11.004  65.251  1.00  0.00    -0.023 OA 
ENDBRANCH  26  28
ENDBRANCH  23  26
ENDBRANCH  19  20
ENDBRANCH  18  19
ENDBRANCH  17  18
ENDBRANCH   2  17
TORSDOF 11
ENDMDL
MODEL      189
REMARK 921   NORMALIZED FREE ENERGY PREDICTED BY IDOCK:   -3.86 KCAL/MOL
REMARK 922        TOTAL FREE ENERGY PREDICTED BY IDOCK:   -7.91 KCAL/MOL
REMARK 923 INTER-LIGAND FREE ENERGY PREDICTED BY IDOCK:   -7.74 KCAL/MOL
REMARK 924 INTRA-LIGAND FREE ENERGY PREDICTED BY IDOCK:   -0.16 KCAL/MOL
REMARK 927      BINDING AFFINITY PREDICTED BY RF-SCORE:    0.00 PKD
ROOT
HETATM    1  C   UNL     1      -8.496   9.570  65.588  1.00  0.00    -0.133 C  
HETATM    2  N   UNL     1      -7.634  10.529  66.288  1.00  0.00    -0.127 NA 
ENDROOT
BRANCH   2   3
HETATM    3  C   UNL     1      -7.129   9.974  67.562  1.00  0.00    -0.087 C  
BRANCH   3   4
HETATM    4  C   UNL     1      -7.534  10.739  68.843  1.00  0.00    -0.116 C  
BRANCH   4   5
HETATM    5  C   UNL     1      -8.427   9.952  69.775  1.00  0.00    -0.206 A  
HETATM    6  C   UNL     1     -10.084   8.562  71.557  1.00  0.00    -0.245 A  
HETATM    7  C   UNL     1      -7.876   9.218  70.836  1.00  0.00    -0.148 A  
HETATM    8  C   UNL     1      -9.817   9.948  69.599  1.00  0.00    -0.255 A  
HETATM    9  C   UNL     1      -8.701   8.523  71.724  1.00  0.00    -0.266 A  
HETATM   10  C   UNL     1     -10.642   9.254  70.487  1.00  0.00    -0.309 A  
BRANCH   6  11
HETATM   11  N   UNL     1     -10.943   7.870  72.458  1.00  0.00    -0.321 N  
HETATM   12  H   UNL     1     -10.986   8.121  73.445  1.00  0.00     0.000 HD 
BRANCH  11  13
HETATM   13  S   UNL     1     -11.890   6.619  71.831  1.00  0.00    -0.338 S  
HETATM   14  O   UNL     1     -13.058   7.265  71.267  1.00  0.00    -0.369 OA 
HETATM   15  O   UNL     1     -12.021   5.553  72.798  1.00  0.00    -0.237 OA 
HETATM   16  C   UNL     1     -10.882   6.060  70.474  1.00  0.00    -0.314 C  
ENDBRANCH  11  13
ENDBRANCH   6  11
ENDBRANCH   4   5
ENDBRANCH   3   4
ENDBRANCH   2   3
BRANCH   2  17
HETATM   17  C   UNL     1      -8.382  11.792  66.486  1.00  0.00    -0.093 C  
BRANCH  17  18
HETATM   18  C   UNL     1      -9.911  11.642  66.469  1.00  0.00    -0.204 C  
BRANCH  18  19
HETATM   19  O   UNL     1     -10.469  12.573  65.533  1.00  0.00    -0.268 OA 
BRANCH  19  20
HETATM   20  C   UNL     1     -10.482  13.885  65.931  1.00  0.00    -0.305 A  
HETATM   21  C   UNL     1     -10.310  14.336  67.243  1.00  0.00    -0.260 A  
HETATM   22  C   UNL     1     -10.687  14.818  64.911  1.00  0.00    -0.438 A  
HETATM   23  C   UNL     1     -10.611  16.620  66.516  1.00  0.00    -0.203 A  
HETATM   24  C   UNL     1     -10.748  16.186  65.199  1.00  0.00    -0.391 A  
HETATM   25  C   UNL     1     -10.373  15.700  67.533  1.00  0.00    -0.277 A  
BRANCH  23  26
HETATM   26  N   UNL     1     -10.681  18.004  66.842  1.00  0.00    -0.268 N  
HETATM   27  H   UNL     1     -11.563  18.438  67.116  1.00  0.00     0.000 HD 
BRANCH  26  28
HETATM   28  S   UNL     1      -9.254  18.904  66.758  1.00  0.00    -0.329 S  
HETATM   29  O   UNL     1      -8.262  18.193  65.987  1.00  0.00    -0.482 OA 
HETATM   30  C   UNL     1      -8.753  18.947  68.467  1.00  0.00    -0.347 C  
HETATM   31  O   UNL     1      -9.669  20.244  66.393  1.00  0.00    -0.404 OA 
ENDBRANCH  26  28
ENDBRANCH  23  26
ENDBRANCH  19  20
ENDBRANCH  18  19
ENDBRANCH  17  18
ENDBRANCH   2  17
TORSDOF 11
ENDMDL
MODEL      190
REMARK 921   NORMALIZED FREE ENERGY PREDICTED BY IDOCK:   -3.85 KCAL/MOL
REMARK 922        TOTAL FREE ENERGY PREDICTED BY IDOCK:   -7.89 KCAL/MOL
REMARK 923 INTER-LIGAND FREE ENERGY PREDICTED BY IDOCK:   -6.90 KCAL/MOL
REMARK 924 INTRA-LIGAND FREE ENERGY PREDICTED BY IDOCK:   -0.99 KCAL/MOL
REMARK 927      BINDING AFFINITY PREDICTED BY RF-SCORE:    0.00 PKD
ROOT
HETATM    1  C   UNL     1      -7.626  11.217  68.512  1.00  0.00    -0.123 C  
HETATM    2  N   UNL     1      -7.926  11.627  67.136  1.00  0.00    -0.156 NA 
ENDROOT
BRANCH   2   3
HETATM    3  C   UNL     1      -9.338  12.038  66.988  1.00  0.00    -0.191 C  
BRANCH   3   4
HETATM    4  C   UNL     1     -10.033  12.555  68.269  1.00  0.00    -0.229 C  
BRANCH   4   5
HETATM    5  C   UNL     1     -10.040  14.062  68.401  1.00  0.00    -0.236 A  
HETATM    6  C   UNL     1     -10.012  16.859  68.567  1.00  0.00    -0.275 A  
HETATM    7  C   UNL     1      -8.938  14.732  68.953  1.00  0.00    -0.167 A  
HETATM    8  C   UNL     1     -11.142  14.812  67.969  1.00  0.00    -0.294 A  
HETATM    9  C   UNL     1      -8.924  16.126  69.037  1.00  0.00    -0.247 A  
HETATM   10  C   UNL     1     -11.128  16.206  68.052  1.00  0.00    -0.317 A  
BRANCH   6  11
HETATM   11  N   UNL     1     -10.012  18.281  68.634  1.00  0.00    -0.379 N  
HETATM   12  H   UNL     1     -10.673  18.782  69.229  1.00  0.00     0.000 HD 
BRANCH  11  13
HETATM   13  S   UNL     1      -8.880  19.109  67.692  1.00  0.00    -0.301 S  
HETATM   14  O   UNL     1      -8.653  18.267  66.535  1.00  0.00    -0.263 OA 
HETATM   15  O   UNL     1      -7.779  19.563  68.511  1.00  0.00    -0.334 OA 
HETATM   16  C   UNL     1      -9.829  20.514  67.152  1.00  0.00    -0.426 C  
ENDBRANCH  11  13
ENDBRANCH   6  11
ENDBRANCH   4   5
ENDBRANCH   3   4
ENDBRANCH   2   3
BRANCH   2  17
HETATM   17  C   UNL     1      -7.567  10.523  66.215  1.00  0.00    -0.133 C  
BRANCH  17  18
HETATM   18  C   UNL     1      -8.761   9.702  65.703  1.00  0.00    -0.141 C  
BRANCH  18  19
HETATM   19  O   UNL     1      -8.473   8.305  65.844  1.00  0.00    -0.123 OA 
BRANCH  19  20
HETATM   20  C   UNL     1      -8.950   7.708  66.983  1.00  0.00    -0.133 A  
HETATM   21  C   UNL     1      -8.173   7.295  68.068  1.00  0.00    -0.120 A  
HETATM   22  C   UNL     1     -10.333   7.514  67.022  1.00  0.00    -0.395 A  
HETATM   23  C   UNL     1     -10.143   6.450  69.180  1.00  0.00    -0.165 A  
HETATM   24  C   UNL     1     -10.934   6.890  68.120  1.00  0.00    -0.220 A  
HETATM   25  C   UNL     1      -8.769   6.669  69.164  1.00  0.00    -0.130 A  
BRANCH  23  26
HETATM   26  N   UNL     1     -10.724   5.799  70.306  1.00  0.00    -0.300 N  
HETATM   27  H   UNL     1     -10.680   4.785  70.410  1.00  0.00     0.000 HD 
BRANCH  26  28
HETATM   28  S   UNL     1     -11.487   6.763  71.463  1.00  0.00    -0.305 S  
HETATM   29  O   UNL     1     -10.695   7.940  71.732  1.00  0.00    -0.220 OA 
HETATM   30  C   UNL     1     -11.465   5.699  72.892  1.00  0.00    -0.243 C  
HETATM   31  O   UNL     1     -12.864   6.871  71.022  1.00  0.00    -0.333 OA 
ENDBRANCH  26  28
ENDBRANCH  23  26
ENDBRANCH  19  20
ENDBRANCH  18  19
ENDBRANCH  17  18
ENDBRANCH   2  17
TORSDOF 11
ENDMDL
MODEL      191
REMARK 921   NORMALIZED FREE ENERGY PREDICTED BY IDOCK:   -3.85 KCAL/MOL
REMARK 922        TOTAL FREE ENERGY PREDICTED BY IDOCK:   -7.89 KCAL/MOL
REMARK 923 INTER-LIGAND FREE ENERGY PREDICTED BY IDOCK:   -7.19 KCAL/MOL
REMARK 924 INTRA-LIGAND FREE ENERGY PREDICTED BY IDOCK:   -0.69 KCAL/MOL
REMARK 927      BINDING AFFINITY PREDICTED BY RF-SCORE:    0.00 PKD
ROOT
HETATM    1  C   UNL     1      -8.348   9.260  64.857  1.00  0.00    -0.158 C  
HETATM    2  N   UNL     1      -8.775  10.205  65.894  1.00  0.00    -0.141 NA 
ENDROOT
BRANCH   2   3
HETATM    3  C   UNL     1      -8.405   9.731  67.245  1.00  0.00    -0.121 C  
BRANCH   3   4
HETATM    4  C   UNL     1      -8.591   8.219  67.510  1.00  0.00    -0.129 C  
BRANCH   4   5
HETATM    5  C   UNL     1      -8.814   7.871  68.964  1.00  0.00    -0.145 A  
HETATM    6  C   UNL     1      -9.271   7.153  71.634  1.00  0.00    -0.144 A  
HETATM    7  C   UNL     1     -10.005   8.240  69.608  1.00  0.00    -0.193 A  
HETATM    8  C   UNL     1      -7.842   7.170  69.689  1.00  0.00    -0.118 A  
HETATM    9  C   UNL     1     -10.233   7.884  70.940  1.00  0.00    -0.213 A  
HETATM   10  C   UNL     1      -8.070   6.813  71.020  1.00  0.00    -0.115 A  
BRANCH   6  11
HETATM   11  N   UNL     1      -9.489   6.770  72.988  1.00  0.00    -0.138 N  
HETATM   12  H   UNL     1      -9.405   7.444  73.749  1.00  0.00     0.000 HD 
BRANCH  11  13
HETATM   13  S   UNL     1      -9.891   5.157  73.289  1.00  0.00    -0.157 S  
HETATM   14  O   UNL     1     -10.154   4.576  71.988  1.00  0.00    -0.186 OA 
HETATM   15  O   UNL     1     -10.864   5.070  74.355  1.00  0.00    -0.340 OA 
HETATM   16  C   UNL     1      -8.336   4.505  73.860  1.00  0.00    -0.104 C  
ENDBRANCH  11  13
ENDBRANCH   6  11
ENDBRANCH   4   5
ENDBRANCH   3   4
ENDBRANCH   2   3
BRANCH   2  17
HETATM   17  C   UNL     1     -10.232  10.436  65.764  1.00  0.00    -0.235 C  
BRANCH  17  18
HETATM   18  C   UNL     1     -10.898  11.044  67.009  1.00  0.00    -0.279 C  
BRANCH  18  19
HETATM   19  O   UNL     1     -11.926  11.955  66.600  1.00  0.00    -0.601 OA 
BRANCH  19  20
HETATM   20  C   UNL     1     -11.540  13.262  66.447  1.00  0.00    -0.347 A  
HETATM   21  C   UNL     1     -11.279  13.891  65.227  1.00  0.00    -0.313 A  
HETATM   22  C   UNL     1     -11.409  13.990  67.632  1.00  0.00    -0.336 A  
HETATM   23  C   UNL     1     -10.701  15.932  66.384  1.00  0.00    -0.256 A  
HETATM   24  C   UNL     1     -10.994  15.326  67.604  1.00  0.00    -0.311 A  
HETATM   25  C   UNL     1     -10.862  15.223  65.197  1.00  0.00    -0.441 A  
BRANCH  23  26
HETATM   26  N   UNL     1     -10.264  17.286  66.325  1.00  0.00    -0.339 N  
HETATM   27  H   UNL     1     -10.917  18.043  66.121  1.00  0.00     0.000 HD 
BRANCH  26  28
HETATM   28  S   UNL     1      -8.627  17.595  66.603  1.00  0.00    -0.263 S  
HETATM   29  O   UNL     1      -7.854  16.390  66.416  1.00  0.00    -0.289 OA 
HETATM   30  C   UNL     1      -8.631  18.033  68.330  1.00  0.00    -0.290 C  
HETATM   31  O   UNL     1      -8.333  18.799  65.851  1.00  0.00    -0.490 OA 
ENDBRANCH  26  28
ENDBRANCH  23  26
ENDBRANCH  19  20
ENDBRANCH  18  19
ENDBRANCH  17  18
ENDBRANCH   2  17
TORSDOF 11
ENDMDL
MODEL      192
REMARK 921   NORMALIZED FREE ENERGY PREDICTED BY IDOCK:   -3.85 KCAL/MOL
REMARK 922        TOTAL FREE ENERGY PREDICTED BY IDOCK:   -7.88 KCAL/MOL
REMARK 923 INTER-LIGAND FREE ENERGY PREDICTED BY IDOCK:   -7.82 KCAL/MOL
REMARK 924 INTRA-LIGAND FREE ENERGY PREDICTED BY IDOCK:   -0.06 KCAL/MOL
REMARK 927      BINDING AFFINITY PREDICTED BY RF-SCORE:    0.00 PKD
ROOT
HETATM    1  C   UNL     1     -11.463  15.307  72.293  1.00  0.00    -0.385 C  
HETATM    2  N   UNL     1     -11.832  15.093  70.890  1.00  0.00    -0.297 NA 
ENDROOT
BRANCH   2   3
HETATM    3  C   UNL     1     -11.190  16.088  70.003  1.00  0.00    -0.362 C  
BRANCH   3   4
HETATM    4  C   UNL     1     -11.581  16.018  68.509  1.00  0.00    -0.316 C  
BRANCH   4   5
HETATM    5  C   UNL     1     -10.943  14.872  67.758  1.00  0.00    -0.294 A  
HETATM    6  C   UNL     1      -9.728  12.805  66.306  1.00  0.00    -0.262 A  
HETATM    7  C   UNL     1     -11.612  14.266  66.684  1.00  0.00    -0.397 A  
HETATM    8  C   UNL     1      -9.672  14.401  68.116  1.00  0.00    -0.223 A  
HETATM    9  C   UNL     1     -11.008  13.234  65.961  1.00  0.00    -0.292 A  
HETATM   10  C   UNL     1      -9.068  13.371  67.393  1.00  0.00    -0.216 A  
BRANCH   6  11
HETATM   11  N   UNL     1      -9.090  11.763  65.575  1.00  0.00    -0.415 N  
HETATM   12  H   UNL     1      -8.901  11.857  64.577  1.00  0.00     0.000 HD 
BRANCH  11  13
HETATM   13  S   UNL     1      -8.657  10.366  66.420  1.00  0.00    -0.136 S  
HETATM   14  O   UNL     1      -9.811  10.035  67.233  1.00  0.00    -0.168 OA 
HETATM   15  O   UNL     1      -7.348  10.520  67.011  1.00  0.00    -0.093 OA 
HETATM   16  C   UNL     1      -8.571   9.170  65.105  1.00  0.00    -0.176 C  
ENDBRANCH  11  13
ENDBRANCH   6  11
ENDBRANCH   4   5
ENDBRANCH   3   4
ENDBRANCH   2   3
BRANCH   2  17
HETATM   17  C   UNL     1     -13.308  15.111  70.771  1.00  0.00    -0.341 C  
BRANCH  17  18
HETATM   18  C   UNL     1     -14.032  14.047  71.612  1.00  0.00    -0.310 C  
BRANCH  18  19
HETATM   19  O   UNL     1     -13.063  13.252  72.306  1.00  0.00    -0.396 OA 
BRANCH  19  20
HETATM   20  C   UNL     1     -12.881  11.980  71.828  1.00  0.00    -0.272 A  
HETATM   21  C   UNL     1     -13.570  10.844  72.262  1.00  0.00     0.047 A  
HETATM   22  C   UNL     1     -11.917  11.850  70.824  1.00  0.00    -0.189 A  
HETATM   23  C   UNL     1     -12.292   9.467  70.744  1.00  0.00    -0.162 A  
HETATM   24  C   UNL     1     -11.623  10.597  70.277  1.00  0.00    -0.424 A  
HETATM   25  C   UNL     1     -13.276   9.592  71.719  1.00  0.00    -0.505 A  
BRANCH  23  26
HETATM   26  N   UNL     1     -12.005   8.176  70.216  1.00  0.00    -0.410 N  
HETATM   27  H   UNL     1     -12.640   7.720  69.561  1.00  0.00     0.000 HD 
BRANCH  26  28
HETATM   28  S   UNL     1     -10.575   7.425  70.711  1.00  0.00    -0.227 S  
HETATM   29  O   UNL     1     -10.155   6.455  69.728  1.00  0.00    -0.169 OA 
HETATM   30  C   UNL     1     -11.105   6.578  72.187  1.00  0.00    -0.260 C  
HETATM   31  O   UNL     1      -9.699   8.505  71.121  1.00  0.00    -0.174 OA 
ENDBRANCH  26  28
ENDBRANCH  23  26
ENDBRANCH  19  20
ENDBRANCH  18  19
ENDBRANCH  17  18
ENDBRANCH   2  17
TORSDOF 11
ENDMDL
MODEL      193
REMARK 921   NORMALIZED FREE ENERGY PREDICTED BY IDOCK:   -3.84 KCAL/MOL
REMARK 922        TOTAL FREE ENERGY PREDICTED BY IDOCK:   -7.88 KCAL/MOL
REMARK 923 INTER-LIGAND FREE ENERGY PREDICTED BY IDOCK:   -7.47 KCAL/MOL
REMARK 924 INTRA-LIGAND FREE ENERGY PREDICTED BY IDOCK:   -0.40 KCAL/MOL
REMARK 927      BINDING AFFINITY PREDICTED BY RF-SCORE:    0.00 PKD
ROOT
HETATM    1  C   UNL     1     -11.611  11.652  68.269  1.00  0.00    -0.310 C  
HETATM    2  N   UNL     1     -10.485  12.365  67.656  1.00  0.00    -0.213 NA 
ENDROOT
BRANCH   2   3
HETATM    3  C   UNL     1     -10.891  13.700  67.166  1.00  0.00    -0.285 C  
BRANCH   3   4
HETATM    4  C   UNL     1     -11.328  14.716  68.246  1.00  0.00    -0.317 C  
BRANCH   4   5
HETATM    5  C   UNL     1     -10.458  15.952  68.316  1.00  0.00    -0.257 A  
HETATM    6  C   UNL     1      -8.819  18.224  68.364  1.00  0.00    -0.305 A  
HETATM    7  C   UNL     1      -9.116  15.855  68.712  1.00  0.00    -0.219 A  
HETATM    8  C   UNL     1     -10.976  17.211  67.982  1.00  0.00    -0.229 A  
HETATM    9  C   UNL     1      -8.299  16.987  68.737  1.00  0.00    -0.237 A  
HETATM   10  C   UNL     1     -10.159  18.343  68.007  1.00  0.00    -0.392 A  
BRANCH   6  11
HETATM   11  N   UNL     1      -8.000  19.389  68.373  1.00  0.00    -0.330 N  
HETATM   12  H   UNL     1      -7.901  19.960  69.212  1.00  0.00     0.000 HD 
BRANCH  11  13
HETATM   13  S   UNL     1      -7.198  19.792  66.941  1.00  0.00    -0.224 S  
HETATM   14  O   UNL     1      -6.964  21.219  67.020  1.00  0.00    -0.456 OA 
HETATM   15  O   UNL     1      -7.873  19.208  65.804  1.00  0.00    -0.450 OA 
HETATM   16  C   UNL     1      -5.631  18.980  67.174  1.00  0.00    -0.163 C  
ENDBRANCH  11  13
ENDBRANCH   6  11
ENDBRANCH   4   5
ENDBRANCH   3   4
ENDBRANCH   2   3
BRANCH   2  17
HETATM   17  C   UNL     1      -9.913  11.526  66.578  1.00  0.00    -0.210 C  
BRANCH  17  18
HETATM   18  C   UNL     1     -10.556  10.136  66.438  1.00  0.00    -0.085 C  
BRANCH  18  19
HETATM   19  O   UNL     1      -9.550   9.129  66.603  1.00  0.00    -0.170 OA 
BRANCH  19  20
HETATM   20  C   UNL     1      -9.630   8.387  67.754  1.00  0.00    -0.156 A  
HETATM   21  C   UNL     1      -8.900   8.622  68.922  1.00  0.00    -0.138 A  
HETATM   22  C   UNL     1     -10.528   7.317  67.714  1.00  0.00    -0.292 A  
HETATM   23  C   UNL     1      -9.917   6.695  69.965  1.00  0.00    -0.172 A  
HETATM   24  C   UNL     1     -10.677   6.472  68.819  1.00  0.00    -0.320 A  
HETATM   25  C   UNL     1      -9.045   7.778  70.024  1.00  0.00    -0.150 A  
BRANCH  23  26
HETATM   26  N   UNL     1     -10.036   5.843  71.100  1.00  0.00    -0.184 N  
HETATM   27  H   UNL     1      -9.530   4.959  71.153  1.00  0.00     0.000 HD 
BRANCH  26  28
HETATM   28  S   UNL     1     -11.045   6.348  72.357  1.00  0.00    -0.281 S  
HETATM   29  O   UNL     1     -11.540   5.206  73.088  1.00  0.00    -0.316 OA 
HETATM   30  C   UNL     1     -12.387   7.104  71.462  1.00  0.00    -0.370 C  
HETATM   31  O   UNL     1     -10.318   7.409  73.027  1.00  0.00    -0.241 OA 
ENDBRANCH  26  28
ENDBRANCH  23  26
ENDBRANCH  19  20
ENDBRANCH  18  19
ENDBRANCH  17  18
ENDBRANCH   2  17
TORSDOF 11
ENDMDL
MODEL      194
REMARK 921   NORMALIZED FREE ENERGY PREDICTED BY IDOCK:   -3.82 KCAL/MOL
REMARK 922        TOTAL FREE ENERGY PREDICTED BY IDOCK:   -7.84 KCAL/MOL
REMARK 923 INTER-LIGAND FREE ENERGY PREDICTED BY IDOCK:   -6.44 KCAL/MOL
REMARK 924 INTRA-LIGAND FREE ENERGY PREDICTED BY IDOCK:   -1.40 KCAL/MOL
REMARK 927      BINDING AFFINITY PREDICTED BY RF-SCORE:    0.00 PKD
ROOT
HETATM    1  C   UNL     1      -5.350   4.776  72.530  1.00  0.00    -0.008 C  
HETATM    2  N   UNL     1      -5.790   5.108  71.171  1.00  0.00    -0.019 NA 
ENDROOT
BRANCH   2   3
HETATM    3  C   UNL     1      -6.564   6.368  71.144  1.00  0.00    -0.051 C  
BRANCH   3   4
HETATM    4  C   UNL     1      -5.912   7.550  70.392  1.00  0.00    -0.027 C  
BRANCH   4   5
HETATM    5  C   UNL     1      -6.898   8.582  69.892  1.00  0.00    -0.042 A  
HETATM    6  C   UNL     1      -8.761  10.432  68.913  1.00  0.00    -0.157 A  
HETATM    7  C   UNL     1      -6.635   9.306  68.720  1.00  0.00    -0.052 A  
HETATM    8  C   UNL     1      -8.091   8.825  70.585  1.00  0.00    -0.145 A  
HETATM    9  C   UNL     1      -7.563  10.230  68.232  1.00  0.00    -0.091 A  
HETATM   10  C   UNL     1      -9.019   9.748  70.098  1.00  0.00    -0.235 A  
BRANCH   6  11
HETATM   11  N   UNL     1      -9.726  11.360  68.427  1.00  0.00    -0.198 N  
HETATM   12  H   UNL     1      -9.827  12.285  68.845  1.00  0.00     0.000 HD 
BRANCH  11  13
HETATM   13  S   UNL     1     -10.696  10.873  67.132  1.00  0.00    -0.274 S  
HETATM   14  O   UNL     1     -11.994  11.468  67.379  1.00  0.00    -0.623 OA 
HETATM   15  O   UNL     1     -10.557   9.453  66.904  1.00  0.00    -0.231 OA 
HETATM   16  C   UNL     1      -9.951  11.760  65.780  1.00  0.00    -0.238 C  
ENDBRANCH  11  13
ENDBRANCH   6  11
ENDBRANCH   4   5
ENDBRANCH   3   4
ENDBRANCH   2   3
BRANCH   2  17
HETATM   17  C   UNL     1      -6.560   3.968  70.622  1.00  0.00    -0.032 C  
BRANCH  17  18
HETATM   18  C   UNL     1      -7.660   4.360  69.622  1.00  0.00    -0.054 C  
BRANCH  18  19
HETATM   19  O   UNL     1      -8.919   3.852  70.078  1.00  0.00    -0.082 OA 
BRANCH  19  20
HETATM   20  C   UNL     1      -9.886   4.791  70.332  1.00  0.00    -0.239 A  
HETATM   21  C   UNL     1     -10.536   4.974  71.555  1.00  0.00    -0.225 A  
HETATM   22  C   UNL     1     -10.220   5.613  69.253  1.00  0.00    -0.309 A  
HETATM   23  C   UNL     1     -11.878   6.740  70.597  1.00  0.00    -0.387 A  
HETATM   24  C   UNL     1     -11.212   6.591  69.383  1.00  0.00    -0.418 A  
HETATM   25  C   UNL     1     -11.528   5.947  71.687  1.00  0.00    -0.238 A  
BRANCH  23  26
HETATM   26  N   UNL     1     -12.902   7.717  70.757  1.00  0.00    -0.546 N  
HETATM   27  H   UNL     1     -13.800   7.623  70.282  1.00  0.00     0.000 HD 
BRANCH  26  28
HETATM   28  S   UNL     1     -12.578   9.037  71.759  1.00  0.00    -0.394 S  
HETATM   29  O   UNL     1     -13.588   9.143  72.785  1.00  0.00    -0.430 OA 
HETATM   30  C   UNL     1     -12.743  10.401  70.625  1.00  0.00    -0.333 C  
HETATM   31  O   UNL     1     -11.173   8.922  72.098  1.00  0.00    -0.360 OA 
ENDBRANCH  26  28
ENDBRANCH  23  26
ENDBRANCH  19  20
ENDBRANCH  18  19
ENDBRANCH  17  18
ENDBRANCH   2  17
TORSDOF 11
ENDMDL
MODEL      195
REMARK 921   NORMALIZED FREE ENERGY PREDICTED BY IDOCK:   -3.80 KCAL/MOL
REMARK 922        TOTAL FREE ENERGY PREDICTED BY IDOCK:   -7.81 KCAL/MOL
REMARK 923 INTER-LIGAND FREE ENERGY PREDICTED BY IDOCK:   -7.35 KCAL/MOL
REMARK 924 INTRA-LIGAND FREE ENERGY PREDICTED BY IDOCK:   -0.46 KCAL/MOL
REMARK 927      BINDING AFFINITY PREDICTED BY RF-SCORE:    0.00 PKD
ROOT
HETATM    1  C   UNL     1     -11.902  12.490  68.310  1.00  0.00    -0.309 C  
HETATM    2  N   UNL     1     -11.749  11.788  67.031  1.00  0.00    -0.594 NA 
ENDROOT
BRANCH   2   3
HETATM    3  C   UNL     1     -10.452  11.083  66.952  1.00  0.00    -0.246 C  
BRANCH   3   4
HETATM    4  C   UNL     1     -10.360   9.945  65.910  1.00  0.00    -0.184 C  
BRANCH   4   5
HETATM    5  C   UNL     1      -9.732   8.674  66.438  1.00  0.00    -0.333 A  
HETATM    6  C   UNL     1      -8.509   6.370  67.460  1.00  0.00    -0.116 A  
HETATM    7  C   UNL     1      -8.655   8.081  65.764  1.00  0.00    -0.174 A  
HETATM    8  C   UNL     1     -10.211   8.075  67.611  1.00  0.00    -0.291 A  
HETATM    9  C   UNL     1      -8.045   6.931  66.272  1.00  0.00    -0.112 A  
HETATM   10  C   UNL     1      -9.601   6.926  68.119  1.00  0.00    -0.124 A  
BRANCH   6  11
HETATM   11  N   UNL     1      -7.894   5.204  68.000  1.00  0.00    -0.087 N  
HETATM   12  H   UNL     1      -7.133   5.274  68.676  1.00  0.00     0.000 HD 
BRANCH  11  13
HETATM   13  S   UNL     1      -8.472   3.703  67.483  1.00  0.00    -0.099 S  
HETATM   14  O   UNL     1      -7.462   3.195  66.575  1.00  0.00    -0.073 OA 
HETATM   15  O   UNL     1      -9.855   3.809  67.077  1.00  0.00    -0.179 OA 
HETATM   16  C   UNL     1      -8.370   2.750  68.982  1.00  0.00    -0.060 C  
ENDBRANCH  11  13
ENDBRANCH   6  11
ENDBRANCH   4   5
ENDBRANCH   3   4
ENDBRANCH   2   3
BRANCH   2  17
HETATM   17  C   UNL     1     -11.925  12.758  65.925  1.00  0.00    -0.449 C  
BRANCH  17  18
HETATM   18  C   UNL     1     -12.212  14.199  66.376  1.00  0.00    -0.446 C  
BRANCH  18  19
HETATM   19  O   UNL     1     -11.323  15.095  65.698  1.00  0.00    -0.332 OA 
BRANCH  19  20
HETATM   20  C   UNL     1     -10.710  16.038  66.483  1.00  0.00    -0.238 A  
HETATM   21  C   UNL     1     -10.328  15.858  67.815  1.00  0.00    -0.278 A  
HETATM   22  C   UNL     1     -10.465  17.265  65.863  1.00  0.00    -0.267 A  
HETATM   23  C   UNL     1      -9.527  18.135  67.910  1.00  0.00    -0.281 A  
HETATM   24  C   UNL     1      -9.869  18.315  66.571  1.00  0.00    -0.363 A  
HETATM   25  C   UNL     1      -9.737  16.905  68.525  1.00  0.00    -0.264 A  
BRANCH  23  26
HETATM   26  N   UNL     1      -8.932  19.188  68.661  1.00  0.00    -0.366 N  
HETATM   27  H   UNL     1      -9.444  19.660  69.406  1.00  0.00     0.000 HD 
BRANCH  26  28
HETATM   28  S   UNL     1      -7.347  19.629  68.277  1.00  0.00    -0.322 S  
HETATM   29  O   UNL     1      -7.332  20.444  67.085  1.00  0.00    -0.276 OA 
HETATM   30  C   UNL     1      -6.609  18.048  67.919  1.00  0.00    -0.193 C  
HETATM   31  O   UNL     1      -6.772  20.106  69.519  1.00  0.00    -0.292 OA 
ENDBRANCH  26  28
ENDBRANCH  23  26
ENDBRANCH  19  20
ENDBRANCH  18  19
ENDBRANCH  17  18
ENDBRANCH   2  17
TORSDOF 11
ENDMDL
MODEL      196
REMARK 921   NORMALIZED FREE ENERGY PREDICTED BY IDOCK:   -3.75 KCAL/MOL
REMARK 922        TOTAL FREE ENERGY PREDICTED BY IDOCK:   -7.73 KCAL/MOL
REMARK 923 INTER-LIGAND FREE ENERGY PREDICTED BY IDOCK:   -6.86 KCAL/MOL
REMARK 924 INTRA-LIGAND FREE ENERGY PREDICTED BY IDOCK:   -0.87 KCAL/MOL
REMARK 927      BINDING AFFINITY PREDICTED BY RF-SCORE:    0.00 PKD
ROOT
HETATM    1  C   UNL     1      -8.633   3.936  71.074  1.00  0.00    -0.076 C  
HETATM    2  N   UNL     1      -9.582   3.747  69.971  1.00  0.00    -0.197 NA 
ENDROOT
BRANCH   2   3
HETATM    3  C   UNL     1      -8.901   3.279  68.745  1.00  0.00    -0.115 C  
BRANCH   3   4
HETATM    4  C   UNL     1      -7.600   4.022  68.365  1.00  0.00    -0.066 C  
BRANCH   4   5
HETATM    5  C   UNL     1      -7.805   5.175  67.408  1.00  0.00    -0.096 A  
HETATM    6  C   UNL     1      -8.252   7.341  65.687  1.00  0.00    -0.138 A  
HETATM    7  C   UNL     1      -8.755   5.084  66.380  1.00  0.00    -0.114 A  
HETATM    8  C   UNL     1      -7.057   6.353  67.536  1.00  0.00    -0.080 A  
HETATM    9  C   UNL     1      -8.978   6.163  65.520  1.00  0.00    -0.004 A  
HETATM   10  C   UNL     1      -7.279   7.431  66.678  1.00  0.00    -0.080 A  
BRANCH   6  11
HETATM   11  N   UNL     1      -8.472   8.456  64.829  1.00  0.00    -0.313 N  
HETATM   12  H   UNL     1      -8.180   8.436  63.851  1.00  0.00     0.000 HD 
BRANCH  11  13
HETATM   13  S   UNL     1      -9.233   9.812  65.488  1.00  0.00    -0.235 S  
HETATM   14  O   UNL     1      -9.916  10.447  64.379  1.00  0.00    -0.335 OA 
HETATM   15  O   UNL     1      -8.311  10.553  66.319  1.00  0.00    -0.140 OA 
HETATM   16  C   UNL     1     -10.473   9.056  66.517  1.00  0.00    -0.122 C  
ENDBRANCH  11  13
ENDBRANCH   6  11
ENDBRANCH   4   5
ENDBRANCH   3   4
ENDBRANCH   2   3
BRANCH   2  17
HETATM   17  C   UNL     1     -10.321   5.011  69.751  1.00  0.00    -0.216 C  
BRANCH  17  18
HETATM   18  C   UNL     1     -10.315   5.975  70.948  1.00  0.00    -0.222 C  
BRANCH  18  19
HETATM   19  O   UNL     1     -11.608   6.579  71.078  1.00  0.00    -0.318 OA 
BRANCH  19  20
HETATM   20  C   UNL     1     -11.648   7.942  70.939  1.00  0.00    -0.273 A  
HETATM   21  C   UNL     1     -12.658   8.777  71.425  1.00  0.00    -0.337 A  
HETATM   22  C   UNL     1     -10.573   8.505  70.247  1.00  0.00    -0.238 A  
HETATM   23  C   UNL     1     -11.548  10.701  70.476  1.00  0.00    -0.350 A  
HETATM   24  C   UNL     1     -10.517   9.884  70.018  1.00  0.00    -0.331 A  
HETATM   25  C   UNL     1     -12.606  10.153  71.195  1.00  0.00    -0.486 A  
BRANCH  23  26
HETATM   26  N   UNL     1     -11.526  12.106  70.246  1.00  0.00    -0.492 N  
HETATM   27  H   UNL     1     -11.437  12.766  71.019  1.00  0.00     0.000 HD 
BRANCH  26  28
HETATM   28  S   UNL     1     -11.653  12.643  68.650  1.00  0.00    -0.335 S  
HETATM   29  O   UNL     1     -12.072  11.560  67.792  1.00  0.00    -0.626 OA 
HETATM   30  C   UNL     1      -9.965  13.072  68.277  1.00  0.00    -0.235 C  
HETATM   31  O   UNL     1     -12.409  13.878  68.722  1.00  0.00    -0.288 OA 
ENDBRANCH  26  28
ENDBRANCH  23  26
ENDBRANCH  19  20
ENDBRANCH  18  19
ENDBRANCH  17  18
ENDBRANCH   2  17
TORSDOF 11
ENDMDL
MODEL      197
REMARK 921   NORMALIZED FREE ENERGY PREDICTED BY IDOCK:   -3.72 KCAL/MOL
REMARK 922        TOTAL FREE ENERGY PREDICTED BY IDOCK:   -7.67 KCAL/MOL
REMARK 923 INTER-LIGAND FREE ENERGY PREDICTED BY IDOCK:   -6.31 KCAL/MOL
REMARK 924 INTRA-LIGAND FREE ENERGY PREDICTED BY IDOCK:   -1.36 KCAL/MOL
REMARK 927      BINDING AFFINITY PREDICTED BY RF-SCORE:    0.00 PKD
ROOT
HETATM    1  C   UNL     1      -9.266   4.093  67.892  1.00  0.00    -0.151 C  
HETATM    2  N   UNL     1      -8.137   4.790  68.518  1.00  0.00    -0.084 NA 
ENDROOT
BRANCH   2   3
HETATM    3  C   UNL     1      -8.273   4.828  69.990  1.00  0.00    -0.068 C  
BRANCH   3   4
HETATM    4  C   UNL     1      -9.705   4.656  70.544  1.00  0.00    -0.284 C  
BRANCH   4   5
HETATM    5  C   UNL     1     -10.339   5.942  71.026  1.00  0.00    -0.281 A  
HETATM    6  C   UNL     1     -11.498   8.361  71.837  1.00  0.00    -0.318 A  
HETATM    7  C   UNL     1      -9.542   6.983  71.525  1.00  0.00    -0.159 A  
HETATM    8  C   UNL     1     -11.728   6.118  70.974  1.00  0.00    -0.188 A  
HETATM    9  C   UNL     1     -10.119   8.188  71.931  1.00  0.00    -0.285 A  
HETATM   10  C   UNL     1     -12.305   7.324  71.379  1.00  0.00    -0.403 A  
BRANCH   6  11
HETATM   11  N   UNL     1     -12.106   9.586  72.234  1.00  0.00    -0.150 N  
HETATM   12  H   UNL     1     -12.094   9.890  73.208  1.00  0.00     0.000 HD 
BRANCH  11  13
HETATM   13  S   UNL     1     -12.846  10.518  71.035  1.00  0.00    -0.411 S  
HETATM   14  O   UNL     1     -14.160   9.935  70.852  1.00  0.00     0.079 OA 
HETATM   15  O   UNL     1     -11.949  10.703  69.916  1.00  0.00    -0.288 OA 
HETATM   16  C   UNL     1     -13.062  12.070  71.877  1.00  0.00    -0.370 C  
ENDBRANCH  11  13
ENDBRANCH   6  11
ENDBRANCH   4   5
ENDBRANCH   3   4
ENDBRANCH   2   3
BRANCH   2  17
HETATM   17  C   UNL     1      -8.024   6.146  67.932  1.00  0.00    -0.110 C  
BRANCH  17  18
HETATM   18  C   UNL     1      -9.348   6.737  67.423  1.00  0.00    -0.130 C  
BRANCH  18  19
HETATM   19  O   UNL     1      -9.173   7.209  66.082  1.00  0.00    -0.155 OA 
BRANCH  19  20
HETATM   20  C   UNL     1      -9.171   8.571  65.923  1.00  0.00    -0.182 A  
HETATM   21  C   UNL     1      -8.239   9.298  65.178  1.00  0.00    -0.143 A  
HETATM   22  C   UNL     1     -10.203   9.251  66.574  1.00  0.00    -0.316 A  
HETATM   23  C   UNL     1      -9.334  11.362  65.792  1.00  0.00    -0.228 A  
HETATM   24  C   UNL     1     -10.291  10.646  66.507  1.00  0.00    -0.299 A  
HETATM   25  C   UNL     1      -8.322  10.690  65.112  1.00  0.00    -0.117 A  
BRANCH  23  26
HETATM   26  N   UNL     1      -9.388  12.784  65.716  1.00  0.00    -0.458 N  
HETATM   27  H   UNL     1      -9.544  13.259  64.828  1.00  0.00     0.000 HD 
BRANCH  26  28
HETATM   28  S   UNL     1      -9.183  13.654  67.149  1.00  0.00    -0.252 S  
HETATM   29  O   UNL     1     -10.461  13.878  67.783  1.00  0.00    -0.238 OA 
HETATM   30  C   UNL     1      -8.544  15.203  66.543  1.00  0.00    -0.191 C  
HETATM   31  O   UNL     1      -8.105  12.985  67.851  1.00  0.00    -0.132 OA 
ENDBRANCH  26  28
ENDBRANCH  23  26
ENDBRANCH  19  20
ENDBRANCH  18  19
ENDBRANCH  17  18
ENDBRANCH   2  17
TORSDOF 11
ENDMDL
MODEL      198
REMARK 921   NORMALIZED FREE ENERGY PREDICTED BY IDOCK:   -3.68 KCAL/MOL
REMARK 922        TOTAL FREE ENERGY PREDICTED BY IDOCK:   -7.61 KCAL/MOL
REMARK 923 INTER-LIGAND FREE ENERGY PREDICTED BY IDOCK:   -6.98 KCAL/MOL
REMARK 924 INTRA-LIGAND FREE ENERGY PREDICTED BY IDOCK:   -0.63 KCAL/MOL
REMARK 927      BINDING AFFINITY PREDICTED BY RF-SCORE:    0.00 PKD
ROOT
HETATM    1  C   UNL     1     -11.486  13.864  65.453  1.00  0.00    -0.312 C  
HETATM    2  N   UNL     1     -10.736  13.980  66.708  1.00  0.00    -0.284 NA 
ENDROOT
BRANCH   2   3
HETATM    3  C   UNL     1     -10.207  12.670  67.146  1.00  0.00    -0.225 C  
BRANCH   3   4
HETATM    4  C   UNL     1      -9.332  11.913  66.121  1.00  0.00    -0.228 C  
BRANCH   4   5
HETATM    5  C   UNL     1      -8.901  10.537  66.576  1.00  0.00    -0.155 A  
HETATM    6  C   UNL     1      -8.081   8.021  67.498  1.00  0.00    -0.123 A  
HETATM    7  C   UNL     1      -7.554  10.152  66.495  1.00  0.00    -0.109 A  
HETATM    8  C   UNL     1      -9.835   9.629  67.091  1.00  0.00    -0.238 A  
HETATM    9  C   UNL     1      -7.145   8.897  66.953  1.00  0.00    -0.082 A  
HETATM   10  C   UNL     1      -9.426   8.375  67.550  1.00  0.00    -0.182 A  
BRANCH   6  11
HETATM   11  N   UNL     1      -7.683   6.742  67.982  1.00  0.00    -0.110 N  
HETATM   12  H   UNL     1      -7.758   6.504  68.971  1.00  0.00     0.000 HD 
BRANCH  11  13
HETATM   13  S   UNL     1      -7.083   5.633  66.857  1.00  0.00    -0.071 S  
HETATM   14  O   UNL     1      -5.669   5.928  66.744  1.00  0.00    -0.016 OA 
HETATM   15  O   UNL     1      -7.932   5.590  65.689  1.00  0.00    -0.102 OA 
HETATM   16  C   UNL     1      -7.239   4.103  67.753  1.00  0.00    -0.064 C  
ENDBRANCH  11  13
ENDBRANCH   6  11
ENDBRANCH   4   5
ENDBRANCH   3   4
ENDBRANCH   2   3
BRANCH   2  17
HETATM   17  C   UNL     1     -11.606  14.601  67.733  1.00  0.00    -0.359 C  
BRANCH  17  18
HETATM   18  C   UNL     1     -10.876  15.526  68.719  1.00  0.00    -0.256 C  
BRANCH  18  19
HETATM   19  O   UNL     1     -11.341  16.870  68.543  1.00  0.00    -0.221 OA 
BRANCH  19  20
HETATM   20  C   UNL     1     -10.424  17.761  68.048  1.00  0.00    -0.394 A  
HETATM   21  C   UNL     1      -9.316  18.253  68.744  1.00  0.00    -0.273 A  
HETATM   22  C   UNL     1     -10.651  18.187  66.737  1.00  0.00    -0.310 A  
HETATM   23  C   UNL     1      -8.717  19.627  66.850  1.00  0.00    -0.324 A  
HETATM   24  C   UNL     1      -9.797  19.117  66.133  1.00  0.00    -0.397 A  
HETATM   25  C   UNL     1      -8.464  19.183  68.144  1.00  0.00    -0.355 A  
BRANCH  23  26
HETATM   26  N   UNL     1      -7.838  20.585  66.267  1.00  0.00    -0.521 N  
HETATM   27  H   UNL     1      -7.992  21.586  66.389  1.00  0.00     0.000 HD 
BRANCH  26  28
HETATM   28  S   UNL     1      -6.531  20.006  65.367  1.00  0.00    -0.280 S  
HETATM   29  O   UNL     1      -6.749  18.625  65.005  1.00  0.00    -0.526 OA 
HETATM   30  C   UNL     1      -5.204  20.103  66.552  1.00  0.00    -0.163 C  
HETATM   31  O   UNL     1      -6.287  21.016  64.356  1.00  0.00    -0.300 OA 
ENDBRANCH  26  28
ENDBRANCH  23  26
ENDBRANCH  19  20
ENDBRANCH  18  19
ENDBRANCH  17  18
ENDBRANCH   2  17
TORSDOF 11
ENDMDL
MODEL      199
REMARK 921   NORMALIZED FREE ENERGY PREDICTED BY IDOCK:   -3.68 KCAL/MOL
REMARK 922        TOTAL FREE ENERGY PREDICTED BY IDOCK:   -7.61 KCAL/MOL
REMARK 923 INTER-LIGAND FREE ENERGY PREDICTED BY IDOCK:   -7.02 KCAL/MOL
REMARK 924 INTRA-LIGAND FREE ENERGY PREDICTED BY IDOCK:   -0.59 KCAL/MOL
REMARK 927      BINDING AFFINITY PREDICTED BY RF-SCORE:    0.00 PKD
ROOT
HETATM    1  C   UNL     1      -7.457  11.709  68.774  1.00  0.00    -0.114 C  
HETATM    2  N   UNL     1      -8.720  11.242  68.193  1.00  0.00    -0.148 NA 
ENDROOT
BRANCH   2   3
HETATM    3  C   UNL     1      -9.841  12.141  68.539  1.00  0.00    -0.162 C  
BRANCH   3   4
HETATM    4  C   UNL     1     -10.332  13.079  67.413  1.00  0.00    -0.234 C  
BRANCH   4   5
HETATM    5  C   UNL     1     -10.014  14.540  67.645  1.00  0.00    -0.224 A  
HETATM    6  C   UNL     1      -9.446  17.235  68.159  1.00  0.00    -0.278 A  
HETATM    7  C   UNL     1     -11.031  15.505  67.594  1.00  0.00    -0.315 A  
HETATM    8  C   UNL     1      -8.703  14.951  67.920  1.00  0.00    -0.164 A  
HETATM    9  C   UNL     1     -10.748  16.849  67.849  1.00  0.00    -0.344 A  
HETATM   10  C   UNL     1      -8.420  16.294  68.175  1.00  0.00    -0.174 A  
BRANCH   6  11
HETATM   11  N   UNL     1      -9.139  18.598  68.434  1.00  0.00    -0.316 N  
HETATM   12  H   UNL     1      -9.125  18.955  69.390  1.00  0.00     0.000 HD 
BRANCH  11  13
HETATM   13  S   UNL     1      -8.797  19.603  67.120  1.00  0.00    -0.327 S  
HETATM   14  O   UNL     1      -9.733  20.704  67.224  1.00  0.00    -0.465 OA 
HETATM   15  O   UNL     1      -8.691  18.826  65.906  1.00  0.00    -0.471 OA 
HETATM   16  C   UNL     1      -7.189  20.226  67.560  1.00  0.00    -0.298 C  
ENDBRANCH  11  13
ENDBRANCH   6  11
ENDBRANCH   4   5
ENDBRANCH   3   4
ENDBRANCH   2   3
BRANCH   2  17
HETATM   17  C   UNL     1      -8.966   9.849  68.632  1.00  0.00    -0.128 C  
BRANCH  17  18
HETATM   18  C   UNL     1     -10.305   9.257  68.166  1.00  0.00    -0.215 C  
BRANCH  18  19
HETATM   19  O   UNL     1     -10.609   8.095  68.948  1.00  0.00    -0.212 OA 
BRANCH  19  20
HETATM   20  C   UNL     1     -10.327   6.888  68.360  1.00  0.00    -0.190 A  
HETATM   21  C   UNL     1      -9.441   5.931  68.862  1.00  0.00    -0.146 A  
HETATM   22  C   UNL     1     -11.002   6.633  67.164  1.00  0.00    -0.478 A  
HETATM   23  C   UNL     1      -9.862   4.516  66.950  1.00  0.00    -0.213 A  
HETATM   24  C   UNL     1     -10.775   5.446  66.458  1.00  0.00    -0.309 A  
HETATM   25  C   UNL     1      -9.211   4.748  68.158  1.00  0.00    -0.155 A  
BRANCH  23  26
HETATM   26  N   UNL     1      -9.600   3.305  66.248  1.00  0.00    -0.395 N  
HETATM   27  H   UNL     1      -9.822   2.398  66.659  1.00  0.00     0.000 HD 
BRANCH  26  28
HETATM   28  S   UNL     1      -8.909   3.422  64.711  1.00  0.00    -0.126 S  
HETATM   29  O   UNL     1      -8.354   4.740  64.514  1.00  0.00    -0.115 OA 
HETATM   30  C   UNL     1     -10.332   3.218  63.658  1.00  0.00    -0.223 C  
HETATM   31  O   UNL     1      -8.091   2.234  64.570  1.00  0.00    -0.076 OA 
ENDBRANCH  26  28
ENDBRANCH  23  26
ENDBRANCH  19  20
ENDBRANCH  18  19
ENDBRANCH  17  18
ENDBRANCH   2  17
TORSDOF 11
ENDMDL
MODEL      200
REMARK 921   NORMALIZED FREE ENERGY PREDICTED BY IDOCK:   -3.68 KCAL/MOL
REMARK 922        TOTAL FREE ENERGY PREDICTED BY IDOCK:   -7.60 KCAL/MOL
REMARK 923 INTER-LIGAND FREE ENERGY PREDICTED BY IDOCK:   -7.65 KCAL/MOL
REMARK 924 INTRA-LIGAND FREE ENERGY PREDICTED BY IDOCK:    0.05 KCAL/MOL
REMARK 927      BINDING AFFINITY PREDICTED BY RF-SCORE:    0.00 PKD
ROOT
HETATM    1  C   UNL     1      -9.191  14.519  68.643  1.00  0.00    -0.192 C  
HETATM    2  N   UNL     1     -10.056  14.611  67.462  1.00  0.00    -0.224 NA 
ENDROOT
BRANCH   2   3
HETATM    3  C   UNL     1     -11.201  15.518  67.697  1.00  0.00    -0.291 C  
BRANCH   3   4
HETATM    4  C   UNL     1     -10.933  16.722  68.629  1.00  0.00    -0.298 C  
BRANCH   4   5
HETATM    5  C   UNL     1     -10.031  17.777  68.028  1.00  0.00    -0.333 A  
HETATM    6  C   UNL     1      -8.410  19.794  66.954  1.00  0.00    -0.311 A  
HETATM    7  C   UNL     1     -10.371  18.395  66.815  1.00  0.00    -0.420 A  
HETATM    8  C   UNL     1      -8.848  18.158  68.674  1.00  0.00    -0.277 A  
HETATM    9  C   UNL     1      -9.563  19.400  66.279  1.00  0.00    -0.437 A  
HETATM   10  C   UNL     1      -8.040  19.163  68.138  1.00  0.00    -0.351 A  
BRANCH   6  11
HETATM   11  N   UNL     1      -7.578  20.825  66.430  1.00  0.00    -0.521 N  
HETATM   12  H   UNL     1      -7.697  21.797  66.715  1.00  0.00     0.000 HD 
BRANCH  11  13
HETATM   13  S   UNL     1      -6.386  20.378  65.319  1.00  0.00    -0.282 S  
HETATM   14  O   UNL     1      -5.132  20.800  65.910  1.00  0.00    -0.168 OA 
HETATM   15  O   UNL     1      -6.759  20.794  63.986  1.00  0.00    -0.204 OA 
HETATM   16  C   UNL     1      -6.455  18.603  65.422  1.00  0.00    -0.264 C  
ENDBRANCH  11  13
ENDBRANCH   6  11
ENDBRANCH   4   5
ENDBRANCH   3   4
ENDBRANCH   2   3
BRANCH   2  17
HETATM   17  C   UNL     1     -10.494  13.248  67.079  1.00  0.00    -0.249 C  
BRANCH  17  18
HETATM   18  C   UNL     1     -11.888  12.854  67.593  1.00  0.00    -0.346 C  
BRANCH  18  19
HETATM   19  O   UNL     1     -12.021  11.428  67.559  1.00  0.00    -0.626 OA 
BRANCH  19  20
HETATM   20  C   UNL     1     -11.036  10.720  68.197  1.00  0.00    -0.257 A  
HETATM   21  C   UNL     1     -10.804  10.716  69.575  1.00  0.00    -0.303 A  
HETATM   22  C   UNL     1     -10.217   9.952  67.366  1.00  0.00    -0.275 A  
HETATM   23  C   UNL     1      -8.917   9.240  69.271  1.00  0.00    -0.147 A  
HETATM   24  C   UNL     1      -9.160   9.207  67.899  1.00  0.00    -0.134 A  
HETATM   25  C   UNL     1      -9.748   9.976  70.110  1.00  0.00    -0.177 A  
BRANCH  23  26
HETATM   26  N   UNL     1      -7.840   8.503  69.842  1.00  0.00    -0.093 N  
HETATM   27  H   UNL     1      -7.820   7.484  69.807  1.00  0.00     0.000 HD 
BRANCH  26  28
HETATM   28  S   UNL     1      -6.595   9.376  70.579  1.00  0.00    -0.096 S  
HETATM   29  O   UNL     1      -6.714  10.779  70.259  1.00  0.00    -0.215 OA 
HETATM   30  C   UNL     1      -5.156   8.706  69.770  1.00  0.00    -0.030 C  
HETATM   31  O   UNL     1      -6.572   8.920  71.955  1.00  0.00    -0.129 OA 
ENDBRANCH  26  28
ENDBRANCH  23  26
ENDBRANCH  19  20
ENDBRANCH  18  19
ENDBRANCH  17  18
ENDBRANCH   2  17
TORSDOF 11
ENDMDL
MODEL      201
REMARK 921   NORMALIZED FREE ENERGY PREDICTED BY IDOCK:   -3.66 KCAL/MOL
REMARK 922        TOTAL FREE ENERGY PREDICTED BY IDOCK:   -7.58 KCAL/MOL
REMARK 923 INTER-LIGAND FREE ENERGY PREDICTED BY IDOCK:   -7.47 KCAL/MOL
REMARK 924 INTRA-LIGAND FREE ENERGY PREDICTED BY IDOCK:   -0.11 KCAL/MOL
REMARK 927      BINDING AFFINITY PREDICTED BY RF-SCORE:    0.00 PKD
ROOT
HETATM    1  C   UNL     1     -11.299  10.265  68.475  1.00  0.00    -0.168 C  
HETATM    2  N   UNL     1      -9.950  10.374  67.910  1.00  0.00    -0.163 NA 
ENDROOT
BRANCH   2   3
HETATM    3  C   UNL     1      -9.982  10.395  66.431  1.00  0.00    -0.221 C  
BRANCH   3   4
HETATM    4  C   UNL     1     -11.004  11.359  65.788  1.00  0.00    -0.256 C  
BRANCH   4   5
HETATM    5  C   UNL     1     -10.864  12.796  66.237  1.00  0.00    -0.299 A  
HETATM    6  C   UNL     1     -10.633  15.486  66.990  1.00  0.00    -0.311 A  
HETATM    7  C   UNL     1      -9.695  13.518  65.954  1.00  0.00    -0.199 A  
HETATM    8  C   UNL     1     -11.900  13.431  66.936  1.00  0.00    -0.453 A  
HETATM    9  C   UNL     1      -9.579  14.858  66.330  1.00  0.00    -0.317 A  
HETATM   10  C   UNL     1     -11.784  14.771  67.311  1.00  0.00    -0.366 A  
BRANCH   6  11
HETATM   11  N   UNL     1     -10.539  16.854  67.372  1.00  0.00    -0.320 N  
HETATM   12  H   UNL     1     -10.690  17.145  68.339  1.00  0.00     0.000 HD 
BRANCH  11  13
HETATM   13  S   UNL     1     -10.170  17.979  66.167  1.00  0.00    -0.311 S  
HETATM   14  O   UNL     1     -10.963  17.588  65.020  1.00  0.00    -0.754 OA 
HETATM   15  O   UNL     1      -8.739  18.152  66.061  1.00  0.00    -0.498 OA 
HETATM   16  C   UNL     1     -10.892  19.462  66.835  1.00  0.00    -0.404 C  
ENDBRANCH  11  13
ENDBRANCH   6  11
ENDBRANCH   4   5
ENDBRANCH   3   4
ENDBRANCH   2   3
BRANCH   2  17
HETATM   17  C   UNL     1      -9.118   9.266  68.434  1.00  0.00    -0.128 C  
BRANCH  17  18
HETATM   18  C   UNL     1      -9.253   9.022  69.945  1.00  0.00    -0.173 C  
BRANCH  18  19
HETATM   19  O   UNL     1     -10.122   7.904  70.170  1.00  0.00    -0.190 OA 
BRANCH  19  20
HETATM   20  C   UNL     1     -10.023   6.879  69.265  1.00  0.00    -0.159 A  
HETATM   21  C   UNL     1     -10.966   6.573  68.281  1.00  0.00    -0.362 A  
HETATM   22  C   UNL     1      -8.869   6.098  69.369  1.00  0.00    -0.126 A  
HETATM   23  C   UNL     1      -9.634   4.689  67.565  1.00  0.00    -0.163 A  
HETATM   24  C   UNL     1      -8.669   5.006  68.518  1.00  0.00    -0.103 A  
HETATM   25  C   UNL     1     -10.771   5.481  67.433  1.00  0.00    -0.224 A  
BRANCH  23  26
HETATM   26  N   UNL     1      -9.466   3.575  66.694  1.00  0.00    -0.306 N  
HETATM   27  H   UNL     1      -9.658   2.624  67.009  1.00  0.00     0.000 HD 
BRANCH  26  28
HETATM   28  S   UNL     1      -8.937   3.883  65.120  1.00  0.00    -0.140 S  
HETATM   29  O   UNL     1     -10.028   3.726  64.187  1.00  0.00    -0.168 OA 
HETATM   30  C   UNL     1      -7.755   2.572  64.872  1.00  0.00    -0.073 C  
HETATM   31  O   UNL     1      -8.195   5.126  65.203  1.00  0.00    -0.119 OA 
ENDBRANCH  26  28
ENDBRANCH  23  26
ENDBRANCH  19  20
ENDBRANCH  18  19
ENDBRANCH  17  18
ENDBRANCH   2  17
TORSDOF 11
ENDMDL
MODEL      202
REMARK 921   NORMALIZED FREE ENERGY PREDICTED BY IDOCK:   -3.65 KCAL/MOL
REMARK 922        TOTAL FREE ENERGY PREDICTED BY IDOCK:   -7.56 KCAL/MOL
REMARK 923 INTER-LIGAND FREE ENERGY PREDICTED BY IDOCK:   -6.86 KCAL/MOL
REMARK 924 INTRA-LIGAND FREE ENERGY PREDICTED BY IDOCK:   -0.70 KCAL/MOL
REMARK 927      BINDING AFFINITY PREDICTED BY RF-SCORE:    0.00 PKD
ROOT
HETATM    1  C   UNL     1     -12.584   7.507  71.455  1.00  0.00    -0.351 C  
HETATM    2  N   UNL     1     -11.187   7.939  71.563  1.00  0.00    -0.244 NA 
ENDROOT
BRANCH   2   3
HETATM    3  C   UNL     1     -11.073   9.414  71.547  1.00  0.00    -0.376 C  
BRANCH   3   4
HETATM    4  C   UNL     1     -12.385  10.194  71.309  1.00  0.00    -0.501 C  
BRANCH   4   5
HETATM    5  C   UNL     1     -12.232  11.399  70.408  1.00  0.00    -0.450 A  
HETATM    6  C   UNL     1     -12.031  13.622  68.713  1.00  0.00    -0.359 A  
HETATM    7  C   UNL     1     -11.893  11.237  69.057  1.00  0.00    -0.421 A  
HETATM    8  C   UNL     1     -12.430  12.694  70.906  1.00  0.00    -0.368 A  
HETATM    9  C   UNL     1     -11.792  12.344  68.211  1.00  0.00    -0.364 A  
HETATM   10  C   UNL     1     -12.330  13.801  70.061  1.00  0.00    -0.364 A  
BRANCH   6  11
HETATM   11  N   UNL     1     -11.944  14.763  67.866  1.00  0.00    -0.548 N  
HETATM   12  H   UNL     1     -12.743  15.382  67.730  1.00  0.00     0.000 HD 
BRANCH  11  13
HETATM   13  S   UNL     1     -10.469  15.053  67.094  1.00  0.00    -0.282 S  
HETATM   14  O   UNL     1     -10.417  16.487  66.891  1.00  0.00    -0.303 OA 
HETATM   15  O   UNL     1     -10.288  14.137  65.991  1.00  0.00    -0.290 OA 
HETATM   16  C   UNL     1      -9.310  14.654  68.385  1.00  0.00    -0.201 C  
ENDBRANCH  11  13
ENDBRANCH   6  11
ENDBRANCH   4   5
ENDBRANCH   3   4
ENDBRANCH   2   3
BRANCH   2  17
HETATM   17  C   UNL     1     -10.402   7.308  70.476  1.00  0.00    -0.206 C  
BRANCH  17  18
HETATM   18  C   UNL     1      -9.225   8.151  69.962  1.00  0.00    -0.155 C  
BRANCH  18  19
HETATM   19  O   UNL     1      -9.428   8.455  68.576  1.00  0.00    -0.145 OA 
BRANCH  19  20
HETATM   20  C   UNL     1      -8.849   7.590  67.684  1.00  0.00    -0.128 A  
HETATM   21  C   UNL     1      -9.538   6.778  66.779  1.00  0.00    -0.210 A  
HETATM   22  C   UNL     1      -7.453   7.546  67.713  1.00  0.00    -0.101 A  
HETATM   23  C   UNL     1      -7.450   5.850  65.995  1.00  0.00    -0.085 A  
HETATM   24  C   UNL     1      -6.750   6.681  66.867  1.00  0.00    -0.056 A  
HETATM   25  C   UNL     1      -8.839   5.912  65.936  1.00  0.00    -0.154 A  
BRANCH  23  26
HETATM   26  N   UNL     1      -6.764   4.950  65.131  1.00  0.00    -0.047 N  
HETATM   27  H   UNL     1      -6.293   4.122  65.498  1.00  0.00     0.000 HD 
BRANCH  26  28
HETATM   28  S   UNL     1      -6.755   5.299  63.479  1.00  0.00    -0.038 S  
HETATM   29  O   UNL     1      -7.896   4.692  62.835  1.00  0.00    -0.064 OA 
HETATM   30  C   UNL     1      -5.268   4.477  62.943  1.00  0.00    -0.009 C  
HETATM   31  O   UNL     1      -6.518   6.726  63.392  1.00  0.00    -0.041 OA 
ENDBRANCH  26  28
ENDBRANCH  23  26
ENDBRANCH  19  20
ENDBRANCH  18  19
ENDBRANCH  17  18
ENDBRANCH   2  17
TORSDOF 11
ENDMDL
MODEL      203
REMARK 921   NORMALIZED FREE ENERGY PREDICTED BY IDOCK:   -3.64 KCAL/MOL
REMARK 922        TOTAL FREE ENERGY PREDICTED BY IDOCK:   -7.54 KCAL/MOL
REMARK 923 INTER-LIGAND FREE ENERGY PREDICTED BY IDOCK:   -7.17 KCAL/MOL
REMARK 924 INTRA-LIGAND FREE ENERGY PREDICTED BY IDOCK:   -0.37 KCAL/MOL
REMARK 927      BINDING AFFINITY PREDICTED BY RF-SCORE:    0.00 PKD
ROOT
HETATM    1  C   UNL     1      -8.867   9.141  70.776  1.00  0.00    -0.239 C  
HETATM    2  N   UNL     1      -9.102   9.796  69.485  1.00  0.00    -0.200 NA 
ENDROOT
BRANCH   2   3
HETATM    3  C   UNL     1     -10.250   9.195  68.772  1.00  0.00    -0.210 C  
BRANCH   3   4
HETATM    4  C   UNL     1     -10.099   9.052  67.241  1.00  0.00    -0.297 C  
BRANCH   4   5
HETATM    5  C   UNL     1     -10.268  10.349  66.481  1.00  0.00    -0.289 A  
HETATM    6  C   UNL     1     -10.504  12.781  65.109  1.00  0.00    -0.300 A  
HETATM    7  C   UNL     1     -10.855  11.463  67.100  1.00  0.00    -0.316 A  
HETATM    8  C   UNL     1      -9.836  10.462  65.153  1.00  0.00    -0.378 A  
HETATM    9  C   UNL     1     -10.975  12.675  66.416  1.00  0.00    -0.304 A  
HETATM   10  C   UNL     1      -9.954  11.674  64.469  1.00  0.00    -0.290 A  
BRANCH   6  11
HETATM   11  N   UNL     1     -10.606  14.011  64.398  1.00  0.00    -0.596 N  
HETATM   12  H   UNL     1      -9.774  14.542  64.140  1.00  0.00     0.000 HD 
BRANCH  11  13
HETATM   13  S   UNL     1     -12.153  14.557  63.997  1.00  0.00    -0.075 S  
HETATM   14  O   UNL     1     -12.673  13.584  63.058  1.00  0.00    -0.668 OA 
HETATM   15  O   UNL     1     -12.122  15.965  63.672  1.00  0.00    -0.682 OA 
HETATM   16  C   UNL     1     -13.018  14.328  65.536  1.00  0.00    -0.211 C  
ENDBRANCH  11  13
ENDBRANCH   6  11
ENDBRANCH   4   5
ENDBRANCH   3   4
ENDBRANCH   2   3
BRANCH   2  17
HETATM   17  C   UNL     1      -7.858   9.742  68.683  1.00  0.00    -0.081 C  
BRANCH  17  18
HETATM   18  C   UNL     1      -7.015  11.027  68.720  1.00  0.00    -0.081 C  
BRANCH  18  19
HETATM   19  O   UNL     1      -7.348  11.845  67.591  1.00  0.00    -0.105 OA 
BRANCH  19  20
HETATM   20  C   UNL     1      -7.506  13.183  67.848  1.00  0.00    -0.136 A  
HETATM   21  C   UNL     1      -8.052  14.118  66.965  1.00  0.00    -0.044 A  
HETATM   22  C   UNL     1      -7.074  13.606  69.108  1.00  0.00    -0.036 A  
HETATM   23  C   UNL     1      -7.672  15.882  68.572  1.00  0.00    -0.147 A  
HETATM   24  C   UNL     1      -7.160  14.953  69.475  1.00  0.00    -0.184 A  
HETATM   25  C   UNL     1      -8.136  15.464  67.328  1.00  0.00    -0.228 A  
BRANCH  23  26
HETATM   26  N   UNL     1      -7.760  17.262  68.911  1.00  0.00    -0.249 N  
HETATM   27  H   UNL     1      -8.656  17.695  69.137  1.00  0.00     0.000 HD 
BRANCH  26  28
HETATM   28  S   UNL     1      -6.329  18.159  68.926  1.00  0.00    -0.232 S  
HETATM   29  O   UNL     1      -5.973  18.508  70.281  1.00  0.00    -0.206 OA 
HETATM   30  C   UNL     1      -6.815  19.630  68.046  1.00  0.00    -0.253 C  
HETATM   31  O   UNL     1      -5.411  17.427  68.075  1.00  0.00    -0.129 OA 
ENDBRANCH  26  28
ENDBRANCH  23  26
ENDBRANCH  19  20
ENDBRANCH  18  19
ENDBRANCH  17  18
ENDBRANCH   2  17
TORSDOF 11
ENDMDL
MODEL      204
REMARK 921   NORMALIZED FREE ENERGY PREDICTED BY IDOCK:   -3.60 KCAL/MOL
REMARK 922        TOTAL FREE ENERGY PREDICTED BY IDOCK:   -7.48 KCAL/MOL
REMARK 923 INTER-LIGAND FREE ENERGY PREDICTED BY IDOCK:   -6.96 KCAL/MOL
REMARK 924 INTRA-LIGAND FREE ENERGY PREDICTED BY IDOCK:   -0.51 KCAL/MOL
REMARK 927      BINDING AFFINITY PREDICTED BY RF-SCORE:    0.00 PKD
ROOT
HETATM    1  C   UNL     1     -12.180  13.401  69.999  1.00  0.00    -0.298 C  
HETATM    2  N   UNL     1     -11.186  12.686  69.191  1.00  0.00    -0.258 NA 
ENDROOT
BRANCH   2   3
HETATM    3  C   UNL     1     -10.657  13.538  68.104  1.00  0.00    -0.245 C  
BRANCH   3   4
HETATM    4  C   UNL     1     -11.615  14.624  67.564  1.00  0.00    -0.396 C  
BRANCH   4   5
HETATM    5  C   UNL     1     -10.967  15.975  67.367  1.00  0.00    -0.237 A  
HETATM    6  C   UNL     1      -9.843  18.512  66.975  1.00  0.00    -0.325 A  
HETATM    7  C   UNL     1     -10.492  16.358  66.103  1.00  0.00    -0.321 A  
HETATM    8  C   UNL     1     -10.835  16.869  68.438  1.00  0.00    -0.347 A  
HETATM    9  C   UNL     1      -9.931  17.622  65.907  1.00  0.00    -0.139 A  
HETATM   10  C   UNL     1     -10.274  18.133  68.242  1.00  0.00    -0.402 A  
BRANCH   6  11
HETATM   11  N   UNL     1      -9.284  19.810  66.794  1.00  0.00    -0.346 N  
HETATM   12  H   UNL     1      -9.868  20.605  66.533  1.00  0.00     0.000 HD 
BRANCH  11  13
HETATM   13  S   UNL     1      -7.620  19.984  67.026  1.00  0.00    -0.294 S  
HETATM   14  O   UNL     1      -7.223  18.848  67.833  1.00  0.00    -0.233 OA 
HETATM   15  O   UNL     1      -7.307  21.335  67.435  1.00  0.00    -0.484 OA 
HETATM   16  C   UNL     1      -7.003  19.712  65.379  1.00  0.00    -0.244 C  
ENDBRANCH  11  13
ENDBRANCH   6  11
ENDBRANCH   4   5
ENDBRANCH   3   4
ENDBRANCH   2   3
BRANCH   2  17
HETATM   17  C   UNL     1     -11.792  11.436  68.676  1.00  0.00    -0.310 C  
BRANCH  17  18
HETATM   18  C   UNL     1     -10.808  10.492  67.966  1.00  0.00    -0.263 C  
BRANCH  18  19
HETATM   19  O   UNL     1      -9.702  10.218  68.835  1.00  0.00    -0.171 OA 
BRANCH  19  20
HETATM   20  C   UNL     1      -9.759   9.031  69.520  1.00  0.00    -0.170 A  
HETATM   21  C   UNL     1     -10.253   8.867  70.816  1.00  0.00    -0.282 A  
HETATM   22  C   UNL     1      -9.274   7.918  68.829  1.00  0.00    -0.143 A  
HETATM   23  C   UNL     1      -9.716   6.513  70.741  1.00  0.00    -0.179 A  
HETATM   24  C   UNL     1      -9.255   6.657  69.434  1.00  0.00    -0.142 A  
HETATM   25  C   UNL     1     -10.233   7.610  71.424  1.00  0.00    -0.208 A  
BRANCH  23  26
HETATM   26  N   UNL     1      -9.698   5.245  71.389  1.00  0.00    -0.158 N  
HETATM   27  H   UNL     1     -10.520   4.642  71.393  1.00  0.00     0.000 HD 
BRANCH  26  28
HETATM   28  S   UNL     1      -8.266   4.774  72.151  1.00  0.00    -0.112 S  
HETATM   29  O   UNL     1      -7.956   3.402  71.825  1.00  0.00    -0.059 OA 
HETATM   30  C   UNL     1      -8.718   4.885  73.871  1.00  0.00    -0.108 C  
HETATM   31  O   UNL     1      -7.321   5.840  71.880  1.00  0.00    -0.089 OA 
ENDBRANCH  26  28
ENDBRANCH  23  26
ENDBRANCH  19  20
ENDBRANCH  18  19
ENDBRANCH  17  18
ENDBRANCH   2  17
TORSDOF 11
ENDMDL
MODEL      205
REMARK 921   NORMALIZED FREE ENERGY PREDICTED BY IDOCK:   -3.58 KCAL/MOL
REMARK 922        TOTAL FREE ENERGY PREDICTED BY IDOCK:   -7.44 KCAL/MOL
REMARK 923 INTER-LIGAND FREE ENERGY PREDICTED BY IDOCK:   -6.83 KCAL/MOL
REMARK 924 INTRA-LIGAND FREE ENERGY PREDICTED BY IDOCK:   -0.61 KCAL/MOL
REMARK 927      BINDING AFFINITY PREDICTED BY RF-SCORE:    0.00 PKD
ROOT
HETATM    1  C   UNL     1      -8.758   7.920  66.005  1.00  0.00    -0.158 C  
HETATM    2  N   UNL     1      -8.764   9.270  65.433  1.00  0.00    -0.167 NA 
ENDROOT
BRANCH   2   3
HETATM    3  C   UNL     1      -7.873  10.181  66.183  1.00  0.00    -0.116 C  
BRANCH   3   4
HETATM    4  C   UNL     1      -7.255   9.610  67.480  1.00  0.00    -0.090 C  
BRANCH   4   5
HETATM    5  C   UNL     1      -8.194   9.618  68.666  1.00  0.00    -0.105 A  
HETATM    6  C   UNL     1      -9.992   9.584  70.815  1.00  0.00    -0.264 A  
HETATM    7  C   UNL     1      -9.217  10.574  68.755  1.00  0.00    -0.177 A  
HETATM    8  C   UNL     1      -8.063   8.669  69.688  1.00  0.00    -0.112 A  
HETATM    9  C   UNL     1     -10.113  10.559  69.827  1.00  0.00    -0.126 A  
HETATM   10  C   UNL     1      -8.958   8.653  70.760  1.00  0.00    -0.209 A  
BRANCH   6  11
HETATM   11  N   UNL     1     -10.901   9.544  71.910  1.00  0.00    -0.059 N  
HETATM   12  H   UNL     1     -10.614   9.829  72.847  1.00  0.00     0.000 HD 
BRANCH  11  13
HETATM   13  S   UNL     1     -12.473   9.005  71.602  1.00  0.00    -0.373 S  
HETATM   14  O   UNL     1     -12.951   9.823  70.506  1.00  0.00    -0.112 OA 
HETATM   15  O   UNL     1     -13.219   8.899  72.835  1.00  0.00    -0.333 OA 
HETATM   16  C   UNL     1     -12.167   7.374  70.958  1.00  0.00    -0.282 C  
ENDBRANCH  11  13
ENDBRANCH   6  11
ENDBRANCH   4   5
ENDBRANCH   3   4
ENDBRANCH   2   3
BRANCH   2  17
HETATM   17  C   UNL     1     -10.158   9.767  65.385  1.00  0.00    -0.126 C  
BRANCH  17  18
HETATM   18  C   UNL     1     -10.320  11.162  64.761  1.00  0.00    -0.325 C  
BRANCH  18  19
HETATM   19  O   UNL     1     -11.194  11.950  65.579  1.00  0.00    -0.317 OA 
BRANCH  19  20
HETATM   20  C   UNL     1     -10.794  13.242  65.808  1.00  0.00    -0.274 A  
HETATM   21  C   UNL     1      -9.723  13.626  66.620  1.00  0.00    -0.287 A  
HETATM   22  C   UNL     1     -11.544  14.225  65.159  1.00  0.00    -0.355 A  
HETATM   23  C   UNL     1     -10.201  15.952  66.179  1.00  0.00    -0.324 A  
HETATM   24  C   UNL     1     -11.248  15.581  65.338  1.00  0.00    -0.228 A  
HETATM   25  C   UNL     1      -9.428  14.978  66.803  1.00  0.00    -0.263 A  
BRANCH  23  26
HETATM   26  N   UNL     1      -9.884  17.324  66.392  1.00  0.00    -0.289 N  
HETATM   27  H   UNL     1      -9.576  17.920  65.624  1.00  0.00     0.000 HD 
BRANCH  26  28
HETATM   28  S   UNL     1     -10.037  17.931  67.961  1.00  0.00    -0.379 S  
HETATM   29  O   UNL     1     -11.021  17.170  68.695  1.00  0.00    -0.295 OA 
HETATM   30  C   UNL     1     -10.667  19.569  67.655  1.00  0.00    -0.401 C  
HETATM   31  O   UNL     1      -8.680  18.071  68.449  1.00  0.00    -0.282 OA 
ENDBRANCH  26  28
ENDBRANCH  23  26
ENDBRANCH  19  20
ENDBRANCH  18  19
ENDBRANCH  17  18
ENDBRANCH   2  17
TORSDOF 11
ENDMDL
MODEL      206
REMARK 921   NORMALIZED FREE ENERGY PREDICTED BY IDOCK:   -3.57 KCAL/MOL
REMARK 922        TOTAL FREE ENERGY PREDICTED BY IDOCK:   -7.43 KCAL/MOL
REMARK 923 INTER-LIGAND FREE ENERGY PREDICTED BY IDOCK:   -6.37 KCAL/MOL
REMARK 924 INTRA-LIGAND FREE ENERGY PREDICTED BY IDOCK:   -1.06 KCAL/MOL
REMARK 927      BINDING AFFINITY PREDICTED BY RF-SCORE:    0.00 PKD
ROOT
HETATM    1  C   UNL     1     -13.967  13.763  72.244  1.00  0.00    -0.573 C  
HETATM    2  N   UNL     1     -13.399  12.795  71.300  1.00  0.00    -0.049 NA 
ENDROOT
BRANCH   2   3
HETATM    3  C   UNL     1     -13.204  11.472  71.930  1.00  0.00    -0.374 C  
BRANCH   3   4
HETATM    4  C   UNL     1     -13.175  10.260  70.971  1.00  0.00    -0.399 C  
BRANCH   4   5
HETATM    5  C   UNL     1     -12.080   9.261  71.274  1.00  0.00    -0.412 A  
HETATM    6  C   UNL     1     -10.070   7.419  71.921  1.00  0.00    -0.178 A  
HETATM    7  C   UNL     1     -10.786   9.700  71.591  1.00  0.00    -0.076 A  
HETATM    8  C   UNL     1     -12.341   7.885  71.249  1.00  0.00    -0.300 A  
HETATM    9  C   UNL     1      -9.783   8.782  71.913  1.00  0.00    -0.386 A  
HETATM   10  C   UNL     1     -11.339   6.967  71.571  1.00  0.00    -0.302 A  
BRANCH   6  11
HETATM   11  N   UNL     1      -9.066   6.467  72.257  1.00  0.00    -0.139 N  
HETATM   12  H   UNL     1      -8.336   6.211  71.591  1.00  0.00     0.000 HD 
BRANCH  11  13
HETATM   13  S   UNL     1      -9.125   5.778  73.798  1.00  0.00    -0.126 S  
HETATM   14  O   UNL     1     -10.148   6.517  74.511  1.00  0.00    -0.344 OA 
HETATM   15  O   UNL     1      -7.793   5.637  74.340  1.00  0.00    -0.098 OA 
HETATM   16  C   UNL     1      -9.786   4.165  73.438  1.00  0.00    -0.123 C  
ENDBRANCH  11  13
ENDBRANCH   6  11
ENDBRANCH   4   5
ENDBRANCH   3   4
ENDBRANCH   2   3
BRANCH   2  17
HETATM   17  C   UNL     1     -12.136  13.342  70.751  1.00  0.00    -0.250 C  
BRANCH  17  18
HETATM   18  C   UNL     1     -12.155  13.603  69.237  1.00  0.00    -0.314 C  
BRANCH  18  19
HETATM   19  O   UNL     1     -10.844  13.987  68.804  1.00  0.00    -0.250 OA 
BRANCH  19  20
HETATM   20  C   UNL     1     -10.119  13.017  68.160  1.00  0.00    -0.237 A  
HETATM   21  C   UNL     1      -9.805  11.760  68.681  1.00  0.00    -0.153 A  
HETATM   22  C   UNL     1      -9.677  13.354  66.878  1.00  0.00    -0.253 A  
HETATM   23  C   UNL     1      -8.568  11.220  66.678  1.00  0.00    -0.167 A  
HETATM   24  C   UNL     1      -8.905  12.456  66.132  1.00  0.00     0.108 A  
HETATM   25  C   UNL     1      -9.032  10.864  67.941  1.00  0.00    -0.141 A  
BRANCH  23  26
HETATM   26  N   UNL     1      -7.772  10.290  65.949  1.00  0.00    -0.131 N  
HETATM   27  H   UNL     1      -6.753  10.340  65.966  1.00  0.00     0.000 HD 
BRANCH  26  28
HETATM   28  S   UNL     1      -8.573   9.101  65.057  1.00  0.00    -0.185 S  
HETATM   29  O   UNL     1      -9.034   8.048  65.930  1.00  0.00    -0.170 OA 
HETATM   30  C   UNL     1      -7.262   8.479  64.023  1.00  0.00    -0.093 C  
HETATM   31  O   UNL     1      -9.495   9.823  64.202  1.00  0.00    -0.253 OA 
ENDBRANCH  26  28
ENDBRANCH  23  26
ENDBRANCH  19  20
ENDBRANCH  18  19
ENDBRANCH  17  18
ENDBRANCH   2  17
TORSDOF 11
ENDMDL
MODEL      207
REMARK 921   NORMALIZED FREE ENERGY PREDICTED BY IDOCK:   -3.57 KCAL/MOL
REMARK 922        TOTAL FREE ENERGY PREDICTED BY IDOCK:   -7.42 KCAL/MOL
REMARK 923 INTER-LIGAND FREE ENERGY PREDICTED BY IDOCK:   -7.26 KCAL/MOL
REMARK 924 INTRA-LIGAND FREE ENERGY PREDICTED BY IDOCK:   -0.16 KCAL/MOL
REMARK 927      BINDING AFFINITY PREDICTED BY RF-SCORE:    0.00 PKD
ROOT
HETATM    1  C   UNL     1     -11.637   7.254  70.321  1.00  0.00    -0.174 C  
HETATM    2  N   UNL     1     -10.701   7.733  71.343  1.00  0.00    -0.221 NA 
ENDROOT
BRANCH   2   3
HETATM    3  C   UNL     1     -11.048   9.097  71.798  1.00  0.00    -0.367 C  
BRANCH   3   4
HETATM    4  C   UNL     1     -12.409   9.648  71.317  1.00  0.00    -0.449 C  
BRANCH   4   5
HETATM    5  C   UNL     1     -12.329  11.015  70.673  1.00  0.00    -0.480 A  
HETATM    6  C   UNL     1     -12.262  13.535  69.450  1.00  0.00    -0.228 A  
HETATM    7  C   UNL     1     -11.943  11.145  69.331  1.00  0.00    -0.420 A  
HETATM    8  C   UNL     1     -12.644  12.169  71.403  1.00  0.00    -0.314 A  
HETATM    9  C   UNL     1     -11.908  12.401  68.721  1.00  0.00    -0.358 A  
HETATM   10  C   UNL     1     -12.609  13.424  70.793  1.00  0.00    -0.369 A  
BRANCH   6  11
HETATM   11  N   UNL     1     -12.244  14.823  68.843  1.00  0.00    -0.574 N  
HETATM   12  H   UNL     1     -13.088  15.393  68.787  1.00  0.00     0.000 HD 
BRANCH  11  13
HETATM   13  S   UNL     1     -10.773  15.374  68.220  1.00  0.00    -0.270 S  
HETATM   14  O   UNL     1      -9.752  14.755  69.041  1.00  0.00    -0.218 OA 
HETATM   15  O   UNL     1     -10.811  16.806  68.031  1.00  0.00    -0.355 OA 
HETATM   16  C   UNL     1     -10.740  14.572  66.632  1.00  0.00    -0.305 C  
ENDBRANCH  11  13
ENDBRANCH   6  11
ENDBRANCH   4   5
ENDBRANCH   3   4
ENDBRANCH   2   3
BRANCH   2  17
HETATM   17  C   UNL     1      -9.322   7.658  70.807  1.00  0.00    -0.162 C  
BRANCH  17  18
HETATM   18  C   UNL     1      -8.288   8.494  71.577  1.00  0.00    -0.162 C  
BRANCH  18  19
HETATM   19  O   UNL     1      -8.283   9.832  71.064  1.00  0.00    -0.189 OA 
BRANCH  19  20
HETATM   20  C   UNL     1      -8.008   9.959  69.726  1.00  0.00    -0.174 A  
HETATM   21  C   UNL     1      -6.875   9.456  69.081  1.00  0.00    -0.050 A  
HETATM   22  C   UNL     1      -8.965  10.653  68.982  1.00  0.00    -0.165 A  
HETATM   23  C   UNL     1      -7.630  10.395  66.988  1.00  0.00    -0.101 A  
HETATM   24  C   UNL     1      -8.782  10.869  67.612  1.00  0.00    -0.127 A  
HETATM   25  C   UNL     1      -6.688   9.674  67.715  1.00  0.00    -0.066 A  
BRANCH  23  26
HETATM   26  N   UNL     1      -7.408  10.612  65.597  1.00  0.00    -0.279 N  
HETATM   27  H   UNL     1      -6.926  11.446  65.263  1.00  0.00     0.000 HD 
BRANCH  26  28
HETATM   28  S   UNL     1      -7.971   9.438  64.521  1.00  0.00    -0.136 S  
HETATM   29  O   UNL     1      -6.983   9.186  63.498  1.00  0.00    -0.090 OA 
HETATM   30  C   UNL     1      -9.377  10.257  63.795  1.00  0.00    -0.295 C  
HETATM   31  O   UNL     1      -8.476   8.366  65.356  1.00  0.00    -0.161 OA 
ENDBRANCH  26  28
ENDBRANCH  23  26
ENDBRANCH  19  20
ENDBRANCH  18  19
ENDBRANCH  17  18
ENDBRANCH   2  17
TORSDOF 11
ENDMDL
MODEL      208
REMARK 921   NORMALIZED FREE ENERGY PREDICTED BY IDOCK:   -3.54 KCAL/MOL
REMARK 922        TOTAL FREE ENERGY PREDICTED BY IDOCK:   -7.38 KCAL/MOL
REMARK 923 INTER-LIGAND FREE ENERGY PREDICTED BY IDOCK:   -5.59 KCAL/MOL
REMARK 924 INTRA-LIGAND FREE ENERGY PREDICTED BY IDOCK:   -1.78 KCAL/MOL
REMARK 927      BINDING AFFINITY PREDICTED BY RF-SCORE:    0.00 PKD
ROOT
HETATM    1  C   UNL     1      -7.885   4.138  74.192  1.00  0.00    -0.087 C  
HETATM    2  N   UNL     1      -8.692   5.172  73.536  1.00  0.00    -0.114 NA 
ENDROOT
BRANCH   2   3
HETATM    3  C   UNL     1      -8.227   6.530  73.891  1.00  0.00    -0.107 C  
BRANCH   3   4
HETATM    4  C   UNL     1      -9.253   7.670  73.702  1.00  0.00    -0.339 C  
BRANCH   4   5
HETATM    5  C   UNL     1      -9.248   8.282  72.319  1.00  0.00    -0.297 A  
HETATM    6  C   UNL     1      -9.206   9.489  69.790  1.00  0.00    -0.208 A  
HETATM    7  C   UNL     1     -10.334   9.054  71.879  1.00  0.00    -0.357 A  
HETATM    8  C   UNL     1      -8.158   8.093  71.458  1.00  0.00    -0.141 A  
HETATM    9  C   UNL     1     -10.314   9.655  70.618  1.00  0.00    -0.365 A  
HETATM   10  C   UNL     1      -8.138   8.694  70.197  1.00  0.00    -0.113 A  
BRANCH   6  11
HETATM   11  N   UNL     1      -9.161  10.102  68.506  1.00  0.00    -0.139 N  
HETATM   12  H   UNL     1      -9.878   9.914  67.805  1.00  0.00     0.000 HD 
BRANCH  11  13
HETATM   13  S   UNL     1      -7.878  11.154  68.186  1.00  0.00    -0.124 S  
HETATM   14  O   UNL     1      -7.047  10.463  67.220  1.00  0.00    -0.085 OA 
HETATM   15  O   UNL     1      -7.323  11.662  69.420  1.00  0.00    -0.039 OA 
HETATM   16  C   UNL     1      -8.708  12.474  67.328  1.00  0.00    -0.193 C  
ENDBRANCH  11  13
ENDBRANCH   6  11
ENDBRANCH   4   5
ENDBRANCH   3   4
ENDBRANCH   2   3
BRANCH   2  17
HETATM   17  C   UNL     1     -10.117   4.962  73.881  1.00  0.00    -0.186 C  
BRANCH  17  18
HETATM   18  C   UNL     1     -11.018   4.594  72.692  1.00  0.00    -0.110 C  
BRANCH  18  19
HETATM   19  O   UNL     1     -11.065   5.693  71.774  1.00  0.00    -0.256 OA 
BRANCH  19  20
HETATM   20  C   UNL     1     -10.684   5.414  70.487  1.00  0.00    -0.196 A  
HETATM   21  C   UNL     1      -9.840   4.370  70.100  1.00  0.00    -0.288 A  
HETATM   22  C   UNL     1     -11.204   6.267  69.510  1.00  0.00    -0.500 A  
HETATM   23  C   UNL     1      -9.993   5.076  67.795  1.00  0.00    -0.147 A  
HETATM   24  C   UNL     1     -10.864   6.099  68.163  1.00  0.00    -0.389 A  
HETATM   25  C   UNL     1      -9.497   4.201  68.758  1.00  0.00    -0.231 A  
BRANCH  23  26
HETATM   26  N   UNL     1      -9.618   4.887  66.434  1.00  0.00    -0.155 N  
HETATM   27  H   UNL     1     -10.158   4.280  65.817  1.00  0.00     0.000 HD 
BRANCH  26  28
HETATM   28  S   UNL     1      -8.248   5.703  65.877  1.00  0.00    -0.124 S  
HETATM   29  O   UNL     1      -7.170   5.575  66.830  1.00  0.00    -0.075 OA 
HETATM   30  C   UNL     1      -8.817   7.391  65.853  1.00  0.00    -0.120 C  
HETATM   31  O   UNL     1      -8.085   5.279  64.500  1.00  0.00    -0.107 OA 
ENDBRANCH  26  28
ENDBRANCH  23  26
ENDBRANCH  19  20
ENDBRANCH  18  19
ENDBRANCH  17  18
ENDBRANCH   2  17
TORSDOF 11
ENDMDL
MODEL      209
REMARK 921   NORMALIZED FREE ENERGY PREDICTED BY IDOCK:   -3.53 KCAL/MOL
REMARK 922        TOTAL FREE ENERGY PREDICTED BY IDOCK:   -7.36 KCAL/MOL
REMARK 923 INTER-LIGAND FREE ENERGY PREDICTED BY IDOCK:   -5.93 KCAL/MOL
REMARK 924 INTRA-LIGAND FREE ENERGY PREDICTED BY IDOCK:   -1.43 KCAL/MOL
REMARK 927      BINDING AFFINITY PREDICTED BY RF-SCORE:    0.00 PKD
ROOT
HETATM    1  C   UNL     1      -7.318   5.404  67.909  1.00  0.00    -0.073 C  
HETATM    2  N   UNL     1      -6.829   6.600  68.602  1.00  0.00    -0.068 NA 
ENDROOT
BRANCH   2   3
HETATM    3  C   UNL     1      -6.348   7.622  67.647  1.00  0.00    -0.050 C  
BRANCH   3   4
HETATM    4  C   UNL     1      -6.054   9.020  68.238  1.00  0.00    -0.053 C  
BRANCH   4   5
HETATM    5  C   UNL     1      -7.067  10.076  67.855  1.00  0.00    -0.085 A  
HETATM    6  C   UNL     1      -9.006  11.971  67.148  1.00  0.00    -0.185 A  
HETATM    7  C   UNL     1      -7.436  10.252  66.513  1.00  0.00    -0.113 A  
HETATM    8  C   UNL     1      -7.656  10.890  68.832  1.00  0.00    -0.128 A  
HETATM    9  C   UNL     1      -8.402  11.198  66.160  1.00  0.00    -0.144 A  
HETATM   10  C   UNL     1      -8.622  11.835  68.479  1.00  0.00    -0.123 A  
BRANCH   6  11
HETATM   11  N   UNL     1     -10.001  12.933  66.811  1.00  0.00    -0.237 N  
HETATM   12  H   UNL     1      -9.747  13.843  66.425  1.00  0.00     0.000 HD 
BRANCH  11  13
HETATM   13  S   UNL     1     -11.616  12.512  67.072  1.00  0.00    -0.367 S  
HETATM   14  O   UNL     1     -12.147  13.545  67.939  1.00  0.00    -0.346 OA 
HETATM   15  O   UNL     1     -11.721  11.115  67.426  1.00  0.00    -0.564 OA 
HETATM   16  C   UNL     1     -12.312  12.763  65.454  1.00  0.00    -0.470 C  
ENDBRANCH  11  13
ENDBRANCH   6  11
ENDBRANCH   4   5
ENDBRANCH   3   4
ENDBRANCH   2   3
BRANCH   2  17
HETATM   17  C   UNL     1      -5.778   6.201  69.567  1.00  0.00    -0.017 C  
BRANCH  17  18
HETATM   18  C   UNL     1      -6.280   5.966  71.000  1.00  0.00    -0.039 C  
BRANCH  18  19
HETATM   19  O   UNL     1      -6.623   7.223  71.596  1.00  0.00    -0.047 OA 
BRANCH  19  20
HETATM   20  C   UNL     1      -7.954   7.416  71.861  1.00  0.00    -0.090 A  
HETATM   21  C   UNL     1      -8.606   8.652  71.877  1.00  0.00    -0.231 A  
HETATM   22  C   UNL     1      -8.685   6.257  72.133  1.00  0.00    -0.133 A  
HETATM   23  C   UNL     1     -10.677   7.572  72.492  1.00  0.00    -0.285 A  
HETATM   24  C   UNL     1     -10.047   6.330  72.444  1.00  0.00    -0.195 A  
HETATM   25  C   UNL     1      -9.964   8.728  72.190  1.00  0.00    -0.359 A  
BRANCH  23  26
HETATM   26  N   UNL     1     -12.059   7.680  72.819  1.00  0.00    -0.588 N  
HETATM   27  H   UNL     1     -12.367   7.766  73.788  1.00  0.00     0.000 HD 
BRANCH  26  28
HETATM   28  S   UNL     1     -13.170   7.662  71.548  1.00  0.00    -0.301 S  
HETATM   29  O   UNL     1     -12.545   7.160  70.347  1.00  0.00    -0.062 OA 
HETATM   30  C   UNL     1     -13.521   9.397  71.349  1.00  0.00    -0.332 C  
HETATM   31  O   UNL     1     -14.361   7.037  72.091  1.00  0.00    -0.247 OA 
ENDBRANCH  26  28
ENDBRANCH  23  26
ENDBRANCH  19  20
ENDBRANCH  18  19
ENDBRANCH  17  18
ENDBRANCH   2  17
TORSDOF 11
ENDMDL
MODEL      210
REMARK 921   NORMALIZED FREE ENERGY PREDICTED BY IDOCK:   -3.52 KCAL/MOL
REMARK 922        TOTAL FREE ENERGY PREDICTED BY IDOCK:   -7.35 KCAL/MOL
REMARK 923 INTER-LIGAND FREE ENERGY PREDICTED BY IDOCK:   -6.74 KCAL/MOL
REMARK 924 INTRA-LIGAND FREE ENERGY PREDICTED BY IDOCK:   -0.60 KCAL/MOL
REMARK 927      BINDING AFFINITY PREDICTED BY RF-SCORE:    0.00 PKD
ROOT
HETATM    1  C   UNL     1      -9.203   9.958  63.517  1.00  0.00    -0.238 C  
HETATM    2  N   UNL     1      -9.413  10.943  64.582  1.00  0.00    -0.230 NA 
ENDROOT
BRANCH   2   3
HETATM    3  C   UNL     1      -9.271  10.332  65.922  1.00  0.00    -0.167 C  
BRANCH   3   4
HETATM    4  C   UNL     1      -9.562   8.816  66.010  1.00  0.00    -0.297 C  
BRANCH   4   5
HETATM    5  C   UNL     1      -9.106   8.176  67.303  1.00  0.00    -0.156 A  
HETATM    6  C   UNL     1      -8.337   6.944  69.699  1.00  0.00    -0.133 A  
HETATM    7  C   UNL     1      -9.499   8.712  68.538  1.00  0.00    -0.146 A  
HETATM    8  C   UNL     1      -8.292   7.036  67.287  1.00  0.00    -0.122 A  
HETATM    9  C   UNL     1      -9.115   8.099  69.733  1.00  0.00    -0.148 A  
HETATM   10  C   UNL     1      -7.908   6.423  68.482  1.00  0.00    -0.105 A  
BRANCH   6  11
HETATM   11  N   UNL     1      -7.945   6.297  70.905  1.00  0.00    -0.110 N  
HETATM   12  H   UNL     1      -7.034   6.475  71.328  1.00  0.00     0.000 HD 
BRANCH  11  13
HETATM   13  S   UNL     1      -9.043   5.223  71.610  1.00  0.00    -0.139 S  
HETATM   14  O   UNL     1      -8.236   4.301  72.383  1.00  0.00    -0.096 OA 
HETATM   15  O   UNL     1      -9.984   4.745  70.624  1.00  0.00    -0.207 OA 
HETATM   16  C   UNL     1      -9.887   6.287  72.761  1.00  0.00    -0.166 C  
ENDBRANCH  11  13
ENDBRANCH   6  11
ENDBRANCH   4   5
ENDBRANCH   3   4
ENDBRANCH   2   3
BRANCH   2  17
HETATM   17  C   UNL     1     -10.738  11.579  64.397  1.00  0.00    -0.344 C  
BRANCH  17  18
HETATM   18  C   UNL     1     -11.429  12.013  65.699  1.00  0.00    -0.316 C  
BRANCH  18  19
HETATM   19  O   UNL     1     -12.083  13.271  65.494  1.00  0.00    -0.384 OA 
BRANCH  19  20
HETATM   20  C   UNL     1     -11.346  14.385  65.804  1.00  0.00    -0.330 A  
HETATM   21  C   UNL     1     -11.087  15.451  64.938  1.00  0.00    -0.435 A  
HETATM   22  C   UNL     1     -10.830  14.420  67.101  1.00  0.00    -0.292 A  
HETATM   23  C   UNL     1      -9.758  16.533  66.641  1.00  0.00    -0.260 A  
HETATM   24  C   UNL     1     -10.040  15.494  67.525  1.00  0.00    -0.241 A  
HETATM   25  C   UNL     1     -10.296  16.522  65.357  1.00  0.00    -0.246 A  
BRANCH  23  26
HETATM   26  N   UNL     1      -8.946  17.633  67.038  1.00  0.00    -0.244 N  
HETATM   27  H   UNL     1      -7.952  17.666  66.807  1.00  0.00     0.000 HD 
BRANCH  26  28
HETATM   28  S   UNL     1      -9.683  18.881  67.904  1.00  0.00    -0.344 S  
HETATM   29  O   UNL     1     -10.758  18.358  68.714  1.00  0.00    -0.015 OA 
HETATM   30  C   UNL     1     -10.363  19.878  66.594  1.00  0.00    -0.485 C  
HETATM   31  O   UNL     1      -8.592  19.629  68.498  1.00  0.00    -0.345 OA 
ENDBRANCH  26  28
ENDBRANCH  23  26
ENDBRANCH  19  20
ENDBRANCH  18  19
ENDBRANCH  17  18
ENDBRANCH   2  17
TORSDOF 11
ENDMDL
MODEL      211
REMARK 921   NORMALIZED FREE ENERGY PREDICTED BY IDOCK:   -3.50 KCAL/MOL
REMARK 922        TOTAL FREE ENERGY PREDICTED BY IDOCK:   -7.31 KCAL/MOL
REMARK 923 INTER-LIGAND FREE ENERGY PREDICTED BY IDOCK:   -5.47 KCAL/MOL
REMARK 924 INTRA-LIGAND FREE ENERGY PREDICTED BY IDOCK:   -1.84 KCAL/MOL
REMARK 927      BINDING AFFINITY PREDICTED BY RF-SCORE:    0.00 PKD
ROOT
HETATM    1  C   UNL     1     -11.430  13.405  68.659  1.00  0.00    -0.310 C  
HETATM    2  N   UNL     1     -10.908  13.190  67.305  1.00  0.00    -0.254 NA 
ENDROOT
BRANCH   2   3
HETATM    3  C   UNL     1     -11.255  11.846  66.797  1.00  0.00    -0.327 C  
BRANCH   3   4
HETATM    4  C   UNL     1     -10.399  11.322  65.621  1.00  0.00    -0.310 C  
BRANCH   4   5
HETATM    5  C   UNL     1      -9.932   9.893  65.787  1.00  0.00    -0.347 A  
HETATM    6  C   UNL     1      -9.124   7.221  66.030  1.00  0.00    -0.075 A  
HETATM    7  C   UNL     1     -10.631   9.010  66.623  1.00  0.00    -0.158 A  
HETATM    8  C   UNL     1      -8.800   9.427  65.105  1.00  0.00    -0.233 A  
HETATM    9  C   UNL     1     -10.228   7.678  66.746  1.00  0.00    -0.333 A  
HETATM   10  C   UNL     1      -8.398   8.096  65.227  1.00  0.00    -0.160 A  
BRANCH   6  11
HETATM   11  N   UNL     1      -8.703   5.865  66.132  1.00  0.00    -0.136 N  
HETATM   12  H   UNL     1      -8.766   5.230  65.336  1.00  0.00     0.000 HD 
BRANCH  11  13
HETATM   13  S   UNL     1      -8.095   5.344  67.620  1.00  0.00    -0.100 S  
HETATM   14  O   UNL     1      -7.791   3.939  67.441  1.00  0.00    -0.085 OA 
HETATM   15  O   UNL     1      -8.948   5.791  68.698  1.00  0.00    -0.113 OA 
HETATM   16  C   UNL     1      -6.547   6.220  67.695  1.00  0.00    -0.055 C  
ENDBRANCH  11  13
ENDBRANCH   6  11
ENDBRANCH   4   5
ENDBRANCH   3   4
ENDBRANCH   2   3
BRANCH   2  17
HETATM   17  C   UNL     1      -9.445  13.425  67.310  1.00  0.00    -0.234 C  
BRANCH  17  18
HETATM   18  C   UNL     1      -8.720  12.923  68.569  1.00  0.00    -0.038 C  
BRANCH  18  19
HETATM   19  O   UNL     1      -7.982  11.737  68.251  1.00  0.00    -0.132 OA 
BRANCH  19  20
HETATM   20  C   UNL     1      -8.283  10.627  68.998  1.00  0.00    -0.151 A  
HETATM   21  C   UNL     1      -9.541  10.321  69.522  1.00  0.00    -0.225 A  
HETATM   22  C   UNL     1      -7.216   9.757  69.233  1.00  0.00    -0.072 A  
HETATM   23  C   UNL     1      -8.645   8.328  70.553  1.00  0.00    -0.131 A  
HETATM   24  C   UNL     1      -7.394   8.604  70.006  1.00  0.00    -0.052 A  
HETATM   25  C   UNL     1      -9.721   9.173  70.297  1.00  0.00    -0.248 A  
BRANCH  23  26
HETATM   26  N   UNL     1      -8.855   7.170  71.356  1.00  0.00    -0.132 N  
HETATM   27  H   UNL     1      -8.912   6.242  70.937  1.00  0.00     0.000 HD 
BRANCH  26  28
HETATM   28  S   UNL     1      -9.005   7.388  73.024  1.00  0.00    -0.162 S  
HETATM   29  O   UNL     1      -8.546   6.211  73.723  1.00  0.00    -0.123 OA 
HETATM   30  C   UNL     1     -10.770   7.536  73.212  1.00  0.00    -0.382 C  
HETATM   31  O   UNL     1      -8.429   8.691  73.292  1.00  0.00    -0.395 OA 
ENDBRANCH  26  28
ENDBRANCH  23  26
ENDBRANCH  19  20
ENDBRANCH  18  19
ENDBRANCH  17  18
ENDBRANCH   2  17
TORSDOF 11
ENDMDL
MODEL      212
REMARK 921   NORMALIZED FREE ENERGY PREDICTED BY IDOCK:   -3.49 KCAL/MOL
REMARK 922        TOTAL FREE ENERGY PREDICTED BY IDOCK:   -7.29 KCAL/MOL
REMARK 923 INTER-LIGAND FREE ENERGY PREDICTED BY IDOCK:   -6.45 KCAL/MOL
REMARK 924 INTRA-LIGAND FREE ENERGY PREDICTED BY IDOCK:   -0.84 KCAL/MOL
REMARK 927      BINDING AFFINITY PREDICTED BY RF-SCORE:    0.00 PKD
ROOT
HETATM    1  C   UNL     1     -11.030   8.884  72.065  1.00  0.00    -0.342 C  
HETATM    2  N   UNL     1     -10.666   8.282  70.778  1.00  0.00    -0.214 NA 
ENDROOT
BRANCH   2   3
HETATM    3  C   UNL     1     -11.484   7.084  70.489  1.00  0.00    -0.319 C  
BRANCH   3   4
HETATM    4  C   UNL     1     -10.715   5.748  70.375  1.00  0.00    -0.372 C  
BRANCH   4   5
HETATM    5  C   UNL     1     -10.476   5.294  68.952  1.00  0.00    -0.190 A  
HETATM    6  C   UNL     1     -10.103   4.399  66.323  1.00  0.00    -0.225 A  
HETATM    7  C   UNL     1      -9.720   4.141  68.692  1.00  0.00    -0.157 A  
HETATM    8  C   UNL     1     -11.010   6.011  67.873  1.00  0.00    -0.334 A  
HETATM    9  C   UNL     1      -9.533   3.695  67.382  1.00  0.00    -0.238 A  
HETATM   10  C   UNL     1     -10.824   5.565  66.563  1.00  0.00    -0.237 A  
BRANCH   6  11
HETATM   11  N   UNL     1      -9.934   3.954  64.981  1.00  0.00    -0.260 N  
HETATM   12  H   UNL     1     -10.661   3.420  64.505  1.00  0.00     0.000 HD 
BRANCH  11  13
HETATM   13  S   UNL     1      -8.485   4.345  64.205  1.00  0.00    -0.121 S  
HETATM   14  O   UNL     1      -8.754   4.192  62.789  1.00  0.00    -0.093 OA 
HETATM   15  O   UNL     1      -7.377   3.661  64.831  1.00  0.00    -0.069 OA 
HETATM   16  C   UNL     1      -8.364   6.089  64.540  1.00  0.00    -0.045 C  
ENDBRANCH  11  13
ENDBRANCH   6  11
ENDBRANCH   4   5
ENDBRANCH   3   4
ENDBRANCH   2   3
BRANCH   2  17
HETATM   17  C   UNL     1      -9.216   7.979  70.782  1.00  0.00    -0.157 C  
BRANCH  17  18
HETATM   18  C   UNL     1      -8.302   9.213  70.723  1.00  0.00    -0.208 C  
BRANCH  18  19
HETATM   19  O   UNL     1      -7.613   9.234  69.467  1.00  0.00    -0.074 OA 
BRANCH  19  20
HETATM   20  C   UNL     1      -8.075  10.140  68.547  1.00  0.00    -0.106 A  
HETATM   21  C   UNL     1      -8.346  11.487  68.802  1.00  0.00    -0.069 A  
HETATM   22  C   UNL     1      -8.277   9.636  67.260  1.00  0.00    -0.114 A  
HETATM   23  C   UNL     1      -9.074  11.790  66.518  1.00  0.00    -0.203 A  
HETATM   24  C   UNL     1      -8.772  10.458  66.242  1.00  0.00    -0.163 A  
HETATM   25  C   UNL     1      -8.843  12.309  67.789  1.00  0.00    -0.174 A  
BRANCH  23  26
HETATM   26  N   UNL     1      -9.592  12.649  65.507  1.00  0.00    -0.454 N  
HETATM   27  H   UNL     1      -9.087  13.486  65.216  1.00  0.00     0.000 HD 
BRANCH  26  28
HETATM   28  S   UNL     1     -11.071  12.233  64.806  1.00  0.00    -0.324 S  
HETATM   29  O   UNL     1     -10.857  11.384  63.658  1.00  0.00    -0.380 OA 
HETATM   30  C   UNL     1     -11.672  13.820  64.262  1.00  0.00    -0.395 C  
HETATM   31  O   UNL     1     -11.909  11.805  65.909  1.00  0.00    -0.414 OA 
ENDBRANCH  26  28
ENDBRANCH  23  26
ENDBRANCH  19  20
ENDBRANCH  18  19
ENDBRANCH  17  18
ENDBRANCH   2  17
TORSDOF 11
ENDMDL
MODEL      213
REMARK 921   NORMALIZED FREE ENERGY PREDICTED BY IDOCK:   -3.47 KCAL/MOL
REMARK 922        TOTAL FREE ENERGY PREDICTED BY IDOCK:   -7.26 KCAL/MOL
REMARK 923 INTER-LIGAND FREE ENERGY PREDICTED BY IDOCK:   -5.63 KCAL/MOL
REMARK 924 INTRA-LIGAND FREE ENERGY PREDICTED BY IDOCK:   -1.63 KCAL/MOL
REMARK 927      BINDING AFFINITY PREDICTED BY RF-SCORE:    0.00 PKD
ROOT
HETATM    1  C   UNL     1      -5.302   3.510  70.906  1.00  0.00    -0.008 C  
HETATM    2  N   UNL     1      -6.060   3.821  69.689  1.00  0.00    -0.023 NA 
ENDROOT
BRANCH   2   3
HETATM    3  C   UNL     1      -6.516   5.228  69.679  1.00  0.00    -0.034 C  
BRANCH   3   4
HETATM    4  C   UNL     1      -5.946   6.118  68.551  1.00  0.00    -0.016 C  
BRANCH   4   5
HETATM    5  C   UNL     1      -6.989   6.940  67.828  1.00  0.00    -0.083 A  
HETATM    6  C   UNL     1      -8.985   8.408  66.518  1.00  0.00    -0.157 A  
HETATM    7  C   UNL     1      -7.416   6.575  66.542  1.00  0.00    -0.086 A  
HETATM    8  C   UNL     1      -7.551   8.073  68.431  1.00  0.00    -0.108 A  
HETATM    9  C   UNL     1      -8.410   7.307  65.888  1.00  0.00    -0.144 A  
HETATM   10  C   UNL     1      -8.545   8.805  67.778  1.00  0.00    -0.129 A  
BRANCH   6  11
HETATM   11  N   UNL     1     -10.008   9.161  65.874  1.00  0.00    -0.416 N  
HETATM   12  H   UNL     1     -10.901   8.735  65.626  1.00  0.00     0.000 HD 
BRANCH  11  13
HETATM   13  S   UNL     1      -9.688  10.785  65.535  1.00  0.00    -0.258 S  
HETATM   14  O   UNL     1      -8.305  10.822  65.103  1.00  0.00    -0.152 OA 
HETATM   15  O   UNL     1     -10.155  11.626  66.613  1.00  0.00    -0.203 OA 
HETATM   16  C   UNL     1     -10.704  11.052  64.099  1.00  0.00    -0.274 C  
ENDBRANCH  11  13
ENDBRANCH   6  11
ENDBRANCH   4   5
ENDBRANCH   3   4
ENDBRANCH   2   3
BRANCH   2  17
HETATM   17  C   UNL     1      -7.188   2.868  69.568  1.00  0.00    -0.044 C  
BRANCH  17  18
HETATM   18  C   UNL     1      -8.246   3.258  68.524  1.00  0.00    -0.068 C  
BRANCH  18  19
HETATM   19  O   UNL     1      -9.534   3.313  69.150  1.00  0.00    -0.162 OA 
BRANCH  19  20
HETATM   20  C   UNL     1      -9.960   4.560  69.531  1.00  0.00    -0.165 A  
HETATM   21  C   UNL     1      -9.825   5.106  70.810  1.00  0.00    -0.270 A  
HETATM   22  C   UNL     1     -10.575   5.314  68.529  1.00  0.00    -0.084 A  
HETATM   23  C   UNL     1     -10.968   7.110  70.092  1.00  0.00    -0.267 A  
HETATM   24  C   UNL     1     -11.076   6.591  68.804  1.00  0.00    -0.357 A  
HETATM   25  C   UNL     1     -10.327   6.379  71.088  1.00  0.00    -0.244 A  
BRANCH  23  26
HETATM   26  N   UNL     1     -11.480   8.401  70.407  1.00  0.00    -0.434 N  
HETATM   27  H   UNL     1     -11.274   9.209  69.819  1.00  0.00     0.000 HD 
BRANCH  26  28
HETATM   28  S   UNL     1     -12.440   8.549  71.789  1.00  0.00    -0.362 S  
HETATM   29  O   UNL     1     -11.708   8.112  72.954  1.00  0.00    -0.373 OA 
HETATM   30  C   UNL     1     -13.749   7.391  71.446  1.00  0.00    -0.323 C  
HETATM   31  O   UNL     1     -13.009   9.881  71.717  1.00  0.00    -0.382 OA 
ENDBRANCH  26  28
ENDBRANCH  23  26
ENDBRANCH  19  20
ENDBRANCH  18  19
ENDBRANCH  17  18
ENDBRANCH   2  17
TORSDOF 11
ENDMDL
MODEL      214
REMARK 921   NORMALIZED FREE ENERGY PREDICTED BY IDOCK:   -3.46 KCAL/MOL
REMARK 922        TOTAL FREE ENERGY PREDICTED BY IDOCK:   -7.25 KCAL/MOL
REMARK 923 INTER-LIGAND FREE ENERGY PREDICTED BY IDOCK:   -7.03 KCAL/MOL
REMARK 924 INTRA-LIGAND FREE ENERGY PREDICTED BY IDOCK:   -0.21 KCAL/MOL
REMARK 927      BINDING AFFINITY PREDICTED BY RF-SCORE:    0.00 PKD
ROOT
HETATM    1  C   UNL     1      -9.040   8.875  65.961  1.00  0.00    -0.214 C  
HETATM    2  N   UNL     1      -8.986   9.991  66.912  1.00  0.00    -0.135 NA 
ENDROOT
BRANCH   2   3
HETATM    3  C   UNL     1      -8.482   9.554  68.232  1.00  0.00    -0.119 C  
BRANCH   3   4
HETATM    4  C   UNL     1      -9.140  10.217  69.464  1.00  0.00    -0.213 C  
BRANCH   4   5
HETATM    5  C   UNL     1      -9.491   9.248  70.571  1.00  0.00    -0.317 A  
HETATM    6  C   UNL     1     -10.121   7.516  72.682  1.00  0.00    -0.222 A  
HETATM    7  C   UNL     1      -8.488   8.490  71.195  1.00  0.00    -0.191 A  
HETATM    8  C   UNL     1     -10.817   9.097  70.996  1.00  0.00    -0.362 A  
HETATM    9  C   UNL     1      -8.802   7.625  72.246  1.00  0.00    -0.170 A  
HETATM   10  C   UNL     1     -11.131   8.233  72.047  1.00  0.00    -0.379 A  
BRANCH   6  11
HETATM   11  N   UNL     1     -10.460   6.649  73.759  1.00  0.00    -0.356 N  
HETATM   12  H   UNL     1     -10.296   6.922  74.729  1.00  0.00     0.000 HD 
BRANCH  11  13
HETATM   13  S   UNL     1     -11.145   5.154  73.374  1.00  0.00    -0.285 S  
HETATM   14  O   UNL     1     -12.402   5.463  72.722  1.00  0.00    -0.066 OA 
HETATM   15  O   UNL     1     -11.095   4.268  74.515  1.00  0.00    -0.169 OA 
HETATM   16  C   UNL     1     -10.025   4.564  72.123  1.00  0.00    -0.183 C  
ENDBRANCH  11  13
ENDBRANCH   6  11
ENDBRANCH   4   5
ENDBRANCH   3   4
ENDBRANCH   2   3
BRANCH   2  17
HETATM   17  C   UNL     1     -10.329  10.609  67.005  1.00  0.00    -0.231 C  
BRANCH  17  18
HETATM   18  C   UNL     1     -10.356  12.124  66.748  1.00  0.00    -0.213 C  
BRANCH  18  19
HETATM   19  O   UNL     1      -9.225  12.734  67.381  1.00  0.00    -0.179 OA 
BRANCH  19  20
HETATM   20  C   UNL     1      -9.093  14.086  67.197  1.00  0.00    -0.232 A  
HETATM   21  C   UNL     1      -9.537  14.798  66.080  1.00  0.00    -0.334 A  
HETATM   22  C   UNL     1      -8.458  14.772  68.235  1.00  0.00    -0.151 A  
HETATM   23  C   UNL     1      -8.656  16.845  67.013  1.00  0.00    -0.205 A  
HETATM   24  C   UNL     1      -8.242  16.152  68.149  1.00  0.00    -0.157 A  
HETATM   25  C   UNL     1      -9.319  16.175  65.990  1.00  0.00    -0.368 A  
BRANCH  23  26
HETATM   26  N   UNL     1      -8.438  18.247  66.890  1.00  0.00    -0.250 N  
HETATM   27  H   UNL     1      -7.577  18.614  66.485  1.00  0.00     0.000 HD 
BRANCH  26  28
HETATM   28  S   UNL     1      -9.655  19.281  67.439  1.00  0.00    -0.325 S  
HETATM   29  O   UNL     1     -10.532  18.581  68.348  1.00  0.00    -0.345 OA 
HETATM   30  C   UNL     1     -10.533  19.640  65.931  1.00  0.00    -0.493 C  
HETATM   31  O   UNL     1      -8.971  20.494  67.842  1.00  0.00    -0.167 OA 
ENDBRANCH  26  28
ENDBRANCH  23  26
ENDBRANCH  19  20
ENDBRANCH  18  19
ENDBRANCH  17  18
ENDBRANCH   2  17
TORSDOF 11
ENDMDL
MODEL      215
REMARK 921   NORMALIZED FREE ENERGY PREDICTED BY IDOCK:   -3.45 KCAL/MOL
REMARK 922        TOTAL FREE ENERGY PREDICTED BY IDOCK:   -7.23 KCAL/MOL
REMARK 923 INTER-LIGAND FREE ENERGY PREDICTED BY IDOCK:   -6.20 KCAL/MOL
REMARK 924 INTRA-LIGAND FREE ENERGY PREDICTED BY IDOCK:   -1.03 KCAL/MOL
REMARK 927      BINDING AFFINITY PREDICTED BY RF-SCORE:    0.00 PKD
ROOT
HETATM    1  C   UNL     1      -9.163   6.156  71.138  1.00  0.00    -0.153 C  
HETATM    2  N   UNL     1      -9.349   7.590  71.381  1.00  0.00    -0.141 NA 
ENDROOT
BRANCH   2   3
HETATM    3  C   UNL     1     -10.495   8.126  70.615  1.00  0.00    -0.210 C  
BRANCH   3   4
HETATM    4  C   UNL     1     -11.094   9.455  71.129  1.00  0.00    -0.432 C  
BRANCH   4   5
HETATM    5  C   UNL     1     -11.079  10.573  70.110  1.00  0.00    -0.369 A  
HETATM    6  C   UNL     1     -10.996  12.689  68.275  1.00  0.00    -0.248 A  
HETATM    7  C   UNL     1     -11.948  11.666  70.243  1.00  0.00    -0.445 A  
HETATM    8  C   UNL     1     -10.195  10.538  69.024  1.00  0.00    -0.233 A  
HETATM    9  C   UNL     1     -11.908  12.721  69.328  1.00  0.00    -0.358 A  
HETATM   10  C   UNL     1     -10.154  11.593  68.109  1.00  0.00    -0.202 A  
BRANCH   6  11
HETATM   11  N   UNL     1     -10.931  13.759  67.338  1.00  0.00    -0.280 N  
HETATM   12  H   UNL     1     -10.348  14.578  67.510  1.00  0.00     0.000 HD 
BRANCH  11  13
HETATM   13  S   UNL     1     -11.856  13.623  65.930  1.00  0.00    -0.402 S  
HETATM   14  O   UNL     1     -12.835  14.688  66.009  1.00  0.00    -0.072 OA 
HETATM   15  O   UNL     1     -12.260  12.251  65.724  1.00  0.00    -0.622 OA 
HETATM   16  C   UNL     1     -10.670  14.079  64.684  1.00  0.00    -0.399 C  
ENDBRANCH  11  13
ENDBRANCH   6  11
ENDBRANCH   4   5
ENDBRANCH   3   4
ENDBRANCH   2   3
BRANCH   2  17
HETATM   17  C   UNL     1      -8.087   8.299  71.067  1.00  0.00    -0.110 C  
BRANCH  17  18
HETATM   18  C   UNL     1      -7.260   7.667  69.936  1.00  0.00    -0.072 C  
BRANCH  18  19
HETATM   19  O   UNL     1      -7.515   8.368  68.713  1.00  0.00    -0.088 OA 
BRANCH  19  20
HETATM   20  C   UNL     1      -8.023   7.614  67.686  1.00  0.00    -0.121 A  
HETATM   21  C   UNL     1      -9.365   7.570  67.301  1.00  0.00    -0.168 A  
HETATM   22  C   UNL     1      -7.089   6.840  66.993  1.00  0.00    -0.072 A  
HETATM   23  C   UNL     1      -8.839   5.946  65.592  1.00  0.00    -0.118 A  
HETATM   24  C   UNL     1      -7.492   6.008  65.943  1.00  0.00    -0.082 A  
HETATM   25  C   UNL     1      -9.771   6.738  66.256  1.00  0.00    -0.053 A  
BRANCH  23  26
HETATM   26  N   UNL     1      -9.283   5.098  64.537  1.00  0.00    -0.356 N  
HETATM   27  H   UNL     1      -9.578   5.484  63.640  1.00  0.00     0.000 HD 
BRANCH  26  28
HETATM   28  S   UNL     1      -9.304   3.434  64.822  1.00  0.00    -0.153 S  
HETATM   29  O   UNL     1     -10.397   2.819  64.107  1.00  0.00    -0.110 OA 
HETATM   30  C   UNL     1      -9.633   3.371  66.572  1.00  0.00    -0.056 C  
HETATM   31  O   UNL     1      -7.936   2.996  64.622  1.00  0.00    -0.081 OA 
ENDBRANCH  26  28
ENDBRANCH  23  26
ENDBRANCH  19  20
ENDBRANCH  18  19
ENDBRANCH  17  18
ENDBRANCH   2  17
TORSDOF 11
ENDMDL
MODEL      216
REMARK 921   NORMALIZED FREE ENERGY PREDICTED BY IDOCK:   -3.45 KCAL/MOL
REMARK 922        TOTAL FREE ENERGY PREDICTED BY IDOCK:   -7.23 KCAL/MOL
REMARK 923 INTER-LIGAND FREE ENERGY PREDICTED BY IDOCK:   -5.97 KCAL/MOL
REMARK 924 INTRA-LIGAND FREE ENERGY PREDICTED BY IDOCK:   -1.26 KCAL/MOL
REMARK 927      BINDING AFFINITY PREDICTED BY RF-SCORE:    0.00 PKD
ROOT
HETATM    1  C   UNL     1      -6.893   8.711  74.150  1.00  0.00    -0.052 C  
HETATM    2  N   UNL     1      -7.651   8.222  72.994  1.00  0.00    -0.225 NA 
ENDROOT
BRANCH   2   3
HETATM    3  C   UNL     1      -8.876   7.507  73.411  1.00  0.00    -0.192 C  
BRANCH   3   4
HETATM    4  C   UNL     1     -10.208   8.059  72.856  1.00  0.00    -0.384 C  
BRANCH   4   5
HETATM    5  C   UNL     1     -10.490   7.663  71.424  1.00  0.00    -0.230 A  
HETATM    6  C   UNL     1     -10.929   6.902  68.763  1.00  0.00    -0.157 A  
HETATM    7  C   UNL     1     -10.225   8.555  70.374  1.00  0.00    -0.215 A  
HETATM    8  C   UNL     1     -11.014   6.399  71.122  1.00  0.00    -0.327 A  
HETATM    9  C   UNL     1     -10.445   8.177  69.047  1.00  0.00    -0.211 A  
HETATM   10  C   UNL     1     -11.233   6.020  69.796  1.00  0.00    -0.440 A  
BRANCH   6  11
HETATM   11  N   UNL     1     -11.149   6.492  67.417  1.00  0.00    -0.580 N  
HETATM   12  H   UNL     1     -11.870   6.930  66.842  1.00  0.00     0.000 HD 
BRANCH  11  13
HETATM   13  S   UNL     1     -10.174   5.255  66.806  1.00  0.00    -0.268 S  
HETATM   14  O   UNL     1     -10.845   4.793  65.608  1.00  0.00    -0.274 OA 
HETATM   15  O   UNL     1      -9.809   4.335  67.859  1.00  0.00    -0.140 OA 
HETATM   16  C   UNL     1      -8.731   6.164  66.294  1.00  0.00    -0.143 C  
ENDBRANCH  11  13
ENDBRANCH   6  11
ENDBRANCH   4   5
ENDBRANCH   3   4
ENDBRANCH   2   3
BRANCH   2  17
HETATM   17  C   UNL     1      -6.766   7.374  72.161  1.00  0.00    -0.058 C  
BRANCH  17  18
HETATM   18  C   UNL     1      -6.761   7.728  70.666  1.00  0.00    -0.038 C  
BRANCH  18  19
HETATM   19  O   UNL     1      -6.551   9.137  70.511  1.00  0.00    -0.046 OA 
BRANCH  19  20
HETATM   20  C   UNL     1      -6.993   9.682  69.333  1.00  0.00    -0.056 A  
HETATM   21  C   UNL     1      -7.027   9.026  68.100  1.00  0.00    -0.077 A  
HETATM   22  C   UNL     1      -7.439  11.003  69.415  1.00  0.00    -0.074 A  
HETATM   23  C   UNL     1      -7.883  11.022  67.042  1.00  0.00    -0.137 A  
HETATM   24  C   UNL     1      -7.889  11.675  68.273  1.00  0.00    -0.136 A  
HETATM   25  C   UNL     1      -7.472   9.695  66.958  1.00  0.00    -0.091 A  
BRANCH  23  26
HETATM   26  N   UNL     1      -8.322  11.684  65.860  1.00  0.00    -0.373 N  
HETATM   27  H   UNL     1      -7.682  11.861  65.086  1.00  0.00     0.000 HD 
BRANCH  26  28
HETATM   28  S   UNL     1      -9.939  12.165  65.784  1.00  0.00    -0.248 S  
HETATM   29  O   UNL     1     -10.100  13.468  66.385  1.00  0.00    -0.279 OA 
HETATM   30  C   UNL     1     -10.729  10.941  66.809  1.00  0.00    -0.252 C  
HETATM   31  O   UNL     1     -10.347  11.915  64.416  1.00  0.00    -0.267 OA 
ENDBRANCH  26  28
ENDBRANCH  23  26
ENDBRANCH  19  20
ENDBRANCH  18  19
ENDBRANCH  17  18
ENDBRANCH   2  17
TORSDOF 11
ENDMDL
MODEL      217
REMARK 921   NORMALIZED FREE ENERGY PREDICTED BY IDOCK:   -3.41 KCAL/MOL
REMARK 922        TOTAL FREE ENERGY PREDICTED BY IDOCK:   -7.17 KCAL/MOL
REMARK 923 INTER-LIGAND FREE ENERGY PREDICTED BY IDOCK:   -6.76 KCAL/MOL
REMARK 924 INTRA-LIGAND FREE ENERGY PREDICTED BY IDOCK:   -0.41 KCAL/MOL
REMARK 927      BINDING AFFINITY PREDICTED BY RF-SCORE:    0.00 PKD
ROOT
HETATM    1  C   UNL     1      -9.076  11.188  68.086  1.00  0.00    -0.159 C  
HETATM    2  N   UNL     1     -10.138  10.181  68.000  1.00  0.00    -0.152 NA 
ENDROOT
BRANCH   2   3
HETATM    3  C   UNL     1      -9.960   9.305  66.821  1.00  0.00    -0.245 C  
BRANCH   3   4
HETATM    4  C   UNL     1     -10.587   7.896  66.921  1.00  0.00    -0.333 C  
BRANCH   4   5
HETATM    5  C   UNL     1     -10.140   7.106  68.131  1.00  0.00    -0.195 A  
HETATM    6  C   UNL     1      -9.321   5.717  70.423  1.00  0.00    -0.160 A  
HETATM    7  C   UNL     1      -8.798   7.135  68.541  1.00  0.00    -0.125 A  
HETATM    8  C   UNL     1     -11.056   6.341  68.865  1.00  0.00    -0.434 A  
HETATM    9  C   UNL     1      -8.389   6.441  69.683  1.00  0.00    -0.126 A  
HETATM   10  C   UNL     1     -10.648   5.648  70.006  1.00  0.00    -0.388 A  
BRANCH   6  11
HETATM   11  N   UNL     1      -8.928   5.012  71.596  1.00  0.00    -0.132 N  
HETATM   12  H   UNL     1      -8.814   5.493  72.488  1.00  0.00     0.000 HD 
BRANCH  11  13
HETATM   13  S   UNL     1      -8.656   3.350  71.456  1.00  0.00    -0.077 S  
HETATM   14  O   UNL     1      -9.971   2.744  71.457  1.00  0.00    -0.155 OA 
HETATM   15  O   UNL     1      -7.638   2.926  72.390  1.00  0.00    -0.050 OA 
HETATM   16  C   UNL     1      -8.016   3.236  69.799  1.00  0.00    -0.048 C  
ENDBRANCH  11  13
ENDBRANCH   6  11
ENDBRANCH   4   5
ENDBRANCH   3   4
ENDBRANCH   2   3
BRANCH   2  17
HETATM   17  C   UNL     1     -11.452  10.865  67.992  1.00  0.00    -0.281 C  
BRANCH  17  18
HETATM   18  C   UNL     1     -11.610  11.937  66.902  1.00  0.00    -0.285 C  
BRANCH  18  19
HETATM   19  O   UNL     1     -12.116  13.141  67.491  1.00  0.00    -0.339 OA 
BRANCH  19  20
HETATM   20  C   UNL     1     -11.199  14.141  67.690  1.00  0.00    -0.297 A  
HETATM   21  C   UNL     1     -10.391  14.707  66.700  1.00  0.00    -0.273 A  
HETATM   22  C   UNL     1     -11.094  14.604  69.003  1.00  0.00    -0.273 A  
HETATM   23  C   UNL     1      -9.347  16.135  68.346  1.00  0.00    -0.206 A  
HETATM   24  C   UNL     1     -10.173  15.604  69.334  1.00  0.00    -0.261 A  
HETATM   25  C   UNL     1      -9.469  15.703  67.028  1.00  0.00    -0.236 A  
BRANCH  23  26
HETATM   26  N   UNL     1      -8.391  17.144  68.654  1.00  0.00    -0.258 N  
HETATM   27  H   UNL     1      -7.473  16.904  69.029  1.00  0.00     0.000 HD 
BRANCH  26  28
HETATM   28  S   UNL     1      -8.828  18.751  68.376  1.00  0.00    -0.350 S  
HETATM   29  O   UNL     1      -8.794  19.040  66.961  1.00  0.00    -0.281 OA 
HETATM   30  C   UNL     1      -7.509  19.631  69.189  1.00  0.00    -0.275 C  
HETATM   31  O   UNL     1     -10.033  18.959  69.155  1.00  0.00    -0.365 OA 
ENDBRANCH  26  28
ENDBRANCH  23  26
ENDBRANCH  19  20
ENDBRANCH  18  19
ENDBRANCH  17  18
ENDBRANCH   2  17
TORSDOF 11
ENDMDL
MODEL      218
REMARK 921   NORMALIZED FREE ENERGY PREDICTED BY IDOCK:   -3.41 KCAL/MOL
REMARK 922        TOTAL FREE ENERGY PREDICTED BY IDOCK:   -7.16 KCAL/MOL
REMARK 923 INTER-LIGAND FREE ENERGY PREDICTED BY IDOCK:   -6.68 KCAL/MOL
REMARK 924 INTRA-LIGAND FREE ENERGY PREDICTED BY IDOCK:   -0.48 KCAL/MOL
REMARK 927      BINDING AFFINITY PREDICTED BY RF-SCORE:    0.00 PKD
ROOT
HETATM    1  C   UNL     1     -12.193  13.970  66.218  1.00  0.00    -0.462 C  
HETATM    2  N   UNL     1     -11.013  14.168  65.369  1.00  0.00    -0.313 NA 
ENDROOT
BRANCH   2   3
HETATM    3  C   UNL     1     -10.949  15.549  64.843  1.00  0.00    -0.436 C  
BRANCH   3   4
HETATM    4  C   UNL     1     -11.222  16.678  65.863  1.00  0.00     0.387 C  
BRANCH   4   5
HETATM    5  C   UNL     1     -10.027  17.565  66.135  1.00  0.00    -0.280 A  
HETATM    6  C   UNL     1      -7.839  19.214  66.722  1.00  0.00    -0.258 A  
HETATM    7  C   UNL     1     -10.156  18.961  66.097  1.00  0.00    -0.438 A  
HETATM    8  C   UNL     1      -8.777  17.008  66.434  1.00  0.00    -0.308 A  
HETATM    9  C   UNL     1      -9.066  19.784  66.388  1.00  0.00    -0.452 A  
HETATM   10  C   UNL     1      -7.686  17.830  66.726  1.00  0.00    -0.258 A  
BRANCH   6  11
HETATM   11  N   UNL     1      -6.718  20.034  67.034  1.00  0.00    -0.210 N  
HETATM   12  H   UNL     1      -6.363  20.721  66.368  1.00  0.00     0.000 HD 
BRANCH  11  13
HETATM   13  S   UNL     1      -5.996  19.830  68.548  1.00  0.00    -0.242 S  
HETATM   14  O   UNL     1      -5.469  21.133  68.902  1.00  0.00    -0.335 OA 
HETATM   15  O   UNL     1      -5.150  18.658  68.548  1.00  0.00    -0.172 OA 
HETATM   16  C   UNL     1      -7.415  19.530  69.578  1.00  0.00    -0.069 C  
ENDBRANCH  11  13
ENDBRANCH   6  11
ENDBRANCH   4   5
ENDBRANCH   3   4
ENDBRANCH   2   3
BRANCH   2  17
HETATM   17  C   UNL     1     -11.025  13.159  64.285  1.00  0.00    -0.403 C  
BRANCH  17  18
HETATM   18  C   UNL     1     -11.603  11.793  64.687  1.00  0.00    -0.198 C  
BRANCH  18  19
HETATM   19  O   UNL     1     -10.544  10.830  64.756  1.00  0.00    -0.310 OA 
BRANCH  19  20
HETATM   20  C   UNL     1     -10.197  10.412  66.014  1.00  0.00    -0.228 A  
HETATM   21  C   UNL     1     -10.580   9.203  66.601  1.00  0.00    -0.157 A  
HETATM   22  C   UNL     1      -9.392  11.296  66.738  1.00  0.00    -0.191 A  
HETATM   23  C   UNL     1      -9.414   9.799  68.631  1.00  0.00    -0.151 A  
HETATM   24  C   UNL     1      -8.994  10.991  68.044  1.00  0.00    -0.145 A  
HETATM   25  C   UNL     1     -10.188   8.898  67.906  1.00  0.00    -0.274 A  
BRANCH  23  26
HETATM   26  N   UNL     1      -9.038   9.467  69.964  1.00  0.00    -0.202 N  
HETATM   27  H   UNL     1      -9.730   9.419  70.711  1.00  0.00     0.000 HD 
BRANCH  26  28
HETATM   28  S   UNL     1      -7.405   9.155  70.264  1.00  0.00    -0.106 S  
HETATM   29  O   UNL     1      -6.804   8.504  69.124  1.00  0.00    -0.056 OA 
HETATM   30  C   UNL     1      -7.500   8.002  71.619  1.00  0.00    -0.078 C  
HETATM   31  O   UNL     1      -6.870  10.396  70.787  1.00  0.00    -0.337 OA 
ENDBRANCH  26  28
ENDBRANCH  23  26
ENDBRANCH  19  20
ENDBRANCH  18  19
ENDBRANCH  17  18
ENDBRANCH   2  17
TORSDOF 11
ENDMDL
MODEL      219
REMARK 921   NORMALIZED FREE ENERGY PREDICTED BY IDOCK:   -3.38 KCAL/MOL
REMARK 922        TOTAL FREE ENERGY PREDICTED BY IDOCK:   -7.11 KCAL/MOL
REMARK 923 INTER-LIGAND FREE ENERGY PREDICTED BY IDOCK:   -6.77 KCAL/MOL
REMARK 924 INTRA-LIGAND FREE ENERGY PREDICTED BY IDOCK:   -0.34 KCAL/MOL
REMARK 927      BINDING AFFINITY PREDICTED BY RF-SCORE:    0.00 PKD
ROOT
HETATM    1  C   UNL     1      -8.624   9.453  65.844  1.00  0.00    -0.141 C  
HETATM    2  N   UNL     1      -7.994  10.477  66.685  1.00  0.00    -0.120 NA 
ENDROOT
BRANCH   2   3
HETATM    3  C   UNL     1      -7.246   9.871  67.808  1.00  0.00    -0.088 C  
BRANCH   3   4
HETATM    4  C   UNL     1      -7.352  10.601  69.166  1.00  0.00    -0.111 C  
BRANCH   4   5
HETATM    5  C   UNL     1      -7.915   9.749  70.282  1.00  0.00    -0.185 A  
HETATM    6  C   UNL     1      -8.951   8.239  72.403  1.00  0.00    -0.228 A  
HETATM    7  C   UNL     1      -7.056   9.085  71.170  1.00  0.00    -0.107 A  
HETATM    8  C   UNL     1      -9.300   9.614  70.450  1.00  0.00    -0.268 A  
HETATM    9  C   UNL     1      -7.572   8.331  72.227  1.00  0.00    -0.160 A  
HETATM   10  C   UNL     1      -9.815   8.861  71.507  1.00  0.00    -0.384 A  
BRANCH   6  11
HETATM   11  N   UNL     1      -9.497   7.485  73.481  1.00  0.00    -0.251 N  
HETATM   12  H   UNL     1      -9.399   7.797  74.447  1.00  0.00     0.000 HD 
BRANCH  11  13
HETATM   13  S   UNL     1     -10.314   6.056  73.101  1.00  0.00    -0.227 S  
HETATM   14  O   UNL     1     -11.670   6.460  72.789  1.00  0.00    -0.163 OA 
HETATM   15  O   UNL     1     -10.047   5.043  74.097  1.00  0.00    -0.178 OA 
HETATM   16  C   UNL     1      -9.528   5.597  71.571  1.00  0.00    -0.150 C  
ENDBRANCH  11  13
ENDBRANCH   6  11
ENDBRANCH   4   5
ENDBRANCH   3   4
ENDBRANCH   2   3
BRANCH   2  17
HETATM   17  C   UNL     1      -9.034  11.423  67.153  1.00  0.00    -0.162 C  
BRANCH  17  18
HETATM   18  C   UNL     1      -9.246  12.644  66.244  1.00  0.00    -0.110 C  
BRANCH  18  19
HETATM   19  O   UNL     1      -9.011  13.841  66.995  1.00  0.00    -0.227 OA 
BRANCH  19  20
HETATM   20  C   UNL     1     -10.022  14.228  67.836  1.00  0.00    -0.230 A  
HETATM   21  C   UNL     1     -11.318  13.706  67.837  1.00  0.00    -0.325 A  
HETATM   22  C   UNL     1      -9.689  15.228  68.753  1.00  0.00    -0.212 A  
HETATM   23  C   UNL     1     -11.945  15.220  69.612  1.00  0.00    -0.338 A  
HETATM   24  C   UNL     1     -10.646  15.723  69.646  1.00  0.00    -0.295 A  
HETATM   25  C   UNL     1     -12.276  14.201  68.724  1.00  0.00    -0.234 A  
BRANCH  23  26
HETATM   26  N   UNL     1     -12.945  15.714  70.498  1.00  0.00    -0.670 N  
HETATM   27  H   UNL     1     -13.606  16.431  70.201  1.00  0.00     0.000 HD 
BRANCH  26  28
HETATM   28  S   UNL     1     -12.998  15.070  72.059  1.00  0.00    -0.375 S  
HETATM   29  O   UNL     1     -11.803  14.303  72.322  1.00  0.00     0.031 OA 
HETATM   30  C   UNL     1     -14.393  13.968  71.948  1.00  0.00    -0.382 C  
HETATM   31  O   UNL     1     -13.383  16.175  72.914  1.00  0.00    -0.479 OA 
ENDBRANCH  26  28
ENDBRANCH  23  26
ENDBRANCH  19  20
ENDBRANCH  18  19
ENDBRANCH  17  18
ENDBRANCH   2  17
TORSDOF 11
ENDMDL
MODEL      220
REMARK 921   NORMALIZED FREE ENERGY PREDICTED BY IDOCK:   -3.36 KCAL/MOL
REMARK 922        TOTAL FREE ENERGY PREDICTED BY IDOCK:   -7.08 KCAL/MOL
REMARK 923 INTER-LIGAND FREE ENERGY PREDICTED BY IDOCK:   -7.01 KCAL/MOL
REMARK 924 INTRA-LIGAND FREE ENERGY PREDICTED BY IDOCK:   -0.07 KCAL/MOL
REMARK 927      BINDING AFFINITY PREDICTED BY RF-SCORE:    0.00 PKD
ROOT
HETATM    1  C   UNL     1     -12.347  13.029  64.585  1.00  0.00    -0.422 C  
HETATM    2  N   UNL     1     -11.320  12.998  65.631  1.00  0.00    -0.294 NA 
ENDROOT
BRANCH   2   3
HETATM    3  C   UNL     1     -10.106  12.286  65.177  1.00  0.00    -0.261 C  
BRANCH   3   4
HETATM    4  C   UNL     1     -10.336  10.922  64.488  1.00  0.00    -0.417 C  
BRANCH   4   5
HETATM    5  C   UNL     1      -9.703   9.752  65.208  1.00  0.00    -0.371 A  
HETATM    6  C   UNL     1      -8.592   7.533  66.509  1.00  0.00    -0.132 A  
HETATM    7  C   UNL     1     -10.185   9.345  66.461  1.00  0.00    -0.308 A  
HETATM    8  C   UNL     1      -8.631   9.054  64.635  1.00  0.00    -0.190 A  
HETATM    9  C   UNL     1      -9.631   8.239  67.111  1.00  0.00    -0.234 A  
HETATM   10  C   UNL     1      -8.078   7.948  65.284  1.00  0.00    -0.135 A  
BRANCH   6  11
HETATM   11  N   UNL     1      -8.020   6.396  67.149  1.00  0.00    -0.111 N  
HETATM   12  H   UNL     1      -8.487   5.488  67.129  1.00  0.00     0.000 HD 
BRANCH  11  13
HETATM   13  S   UNL     1      -6.543   6.604  67.940  1.00  0.00    -0.060 S  
HETATM   14  O   UNL     1      -5.542   6.601  66.893  1.00  0.00    -0.013 OA 
HETATM   15  O   UNL     1      -6.444   5.707  69.069  1.00  0.00    -0.038 OA 
HETATM   16  C   UNL     1      -6.692   8.276  68.532  1.00  0.00    -0.063 C  
ENDBRANCH  11  13
ENDBRANCH   6  11
ENDBRANCH   4   5
ENDBRANCH   3   4
ENDBRANCH   2   3
BRANCH   2  17
HETATM   17  C   UNL     1     -11.896  12.392  66.854  1.00  0.00    -0.307 C  
BRANCH  17  18
HETATM   18  C   UNL     1     -11.938  13.327  68.074  1.00  0.00    -0.313 C  
BRANCH  18  19
HETATM   19  O   UNL     1     -12.003  14.687  67.627  1.00  0.00    -0.362 OA 
BRANCH  19  20
HETATM   20  C   UNL     1     -10.844  15.411  67.746  1.00  0.00    -0.302 A  
HETATM   21  C   UNL     1      -9.992  15.401  68.853  1.00  0.00    -0.219 A  
HETATM   22  C   UNL     1     -10.525  16.213  66.647  1.00  0.00    -0.300 A  
HETATM   23  C   UNL     1      -8.559  17.026  67.786  1.00  0.00    -0.213 A  
HETATM   24  C   UNL     1      -9.381  17.018  66.661  1.00  0.00    -0.274 A  
HETATM   25  C   UNL     1      -8.852  16.206  68.871  1.00  0.00    -0.248 A  
BRANCH  23  26
HETATM   26  N   UNL     1      -7.395  17.846  67.837  1.00  0.00    -0.217 N  
HETATM   27  H   UNL     1      -6.461  17.441  67.769  1.00  0.00     0.000 HD 
BRANCH  26  28
HETATM   28  S   UNL     1      -7.614  19.511  68.013  1.00  0.00    -0.303 S  
HETATM   29  O   UNL     1      -6.600  20.058  68.883  1.00  0.00    -0.303 OA 
HETATM   30  C   UNL     1      -9.195  19.583  68.831  1.00  0.00    -0.312 C  
HETATM   31  O   UNL     1      -7.798  20.016  66.666  1.00  0.00    -0.288 OA 
ENDBRANCH  26  28
ENDBRANCH  23  26
ENDBRANCH  19  20
ENDBRANCH  18  19
ENDBRANCH  17  18
ENDBRANCH   2  17
TORSDOF 11
ENDMDL
MODEL      221
REMARK 921   NORMALIZED FREE ENERGY PREDICTED BY IDOCK:   -3.35 KCAL/MOL
REMARK 922        TOTAL FREE ENERGY PREDICTED BY IDOCK:   -7.06 KCAL/MOL
REMARK 923 INTER-LIGAND FREE ENERGY PREDICTED BY IDOCK:   -6.73 KCAL/MOL
REMARK 924 INTRA-LIGAND FREE ENERGY PREDICTED BY IDOCK:   -0.33 KCAL/MOL
REMARK 927      BINDING AFFINITY PREDICTED BY RF-SCORE:    0.00 PKD
ROOT
HETATM    1  C   UNL     1     -10.447  13.590  65.866  1.00  0.00    -0.292 C  
HETATM    2  N   UNL     1     -10.676  13.041  67.206  1.00  0.00    -0.248 NA 
ENDROOT
BRANCH   2   3
HETATM    3  C   UNL     1     -10.149  13.938  68.257  1.00  0.00    -0.241 C  
BRANCH   3   4
HETATM    4  C   UNL     1      -8.613  13.956  68.429  1.00  0.00    -0.169 C  
BRANCH   4   5
HETATM    5  C   UNL     1      -7.979  15.304  68.167  1.00  0.00    -0.128 A  
HETATM    6  C   UNL     1      -6.731  17.773  67.723  1.00  0.00    -0.185 A  
HETATM    7  C   UNL     1      -8.039  16.317  69.135  1.00  0.00    -0.215 A  
HETATM    8  C   UNL     1      -7.317  15.560  66.958  1.00  0.00    -0.172 A  
HETATM    9  C   UNL     1      -7.418  17.549  68.914  1.00  0.00    -0.234 A  
HETATM   10  C   UNL     1      -6.696  16.791  66.737  1.00  0.00    -0.257 A  
BRANCH   6  11
HETATM   11  N   UNL     1      -6.082  19.017  67.482  1.00  0.00    -0.186 N  
HETATM   12  H   UNL     1      -5.136  19.195  67.822  1.00  0.00     0.000 HD 
BRANCH  11  13
HETATM   13  S   UNL     1      -6.935  20.190  66.614  1.00  0.00    -0.242 S  
HETATM   14  O   UNL     1      -7.136  21.284  67.542  1.00  0.00    -0.482 OA 
HETATM   15  O   UNL     1      -8.049  19.589  65.916  1.00  0.00    -0.397 OA 
HETATM   16  C   UNL     1      -5.712  20.711  65.431  1.00  0.00    -0.214 C  
ENDBRANCH  11  13
ENDBRANCH   6  11
ENDBRANCH   4   5
ENDBRANCH   3   4
ENDBRANCH   2   3
BRANCH   2  17
HETATM   17  C   UNL     1     -10.079  11.686  67.279  1.00  0.00    -0.199 C  
BRANCH  17  18
HETATM   18  C   UNL     1     -10.982  10.623  67.924  1.00  0.00    -0.295 C  
BRANCH  18  19
HETATM   19  O   UNL     1     -10.939  10.764  69.349  1.00  0.00    -0.221 OA 
BRANCH  19  20
HETATM   20  C   UNL     1     -10.481   9.675  70.045  1.00  0.00    -0.261 A  
HETATM   21  C   UNL     1      -9.153   9.453  70.419  1.00  0.00    -0.302 A  
HETATM   22  C   UNL     1     -11.453   8.733  70.390  1.00  0.00    -0.163 A  
HETATM   23  C   UNL     1      -9.769   7.339  71.412  1.00  0.00    -0.164 A  
HETATM   24  C   UNL     1     -11.102   7.566  71.077  1.00  0.00    -0.274 A  
HETATM   25  C   UNL     1      -8.799   8.288  71.102  1.00  0.00    -0.182 A  
BRANCH  23  26
HETATM   26  N   UNL     1      -9.378   6.154  72.100  1.00  0.00    -0.152 N  
HETATM   27  H   UNL     1      -8.703   5.506  71.693  1.00  0.00     0.000 HD 
BRANCH  26  28
HETATM   28  S   UNL     1     -10.070   5.860  73.612  1.00  0.00    -0.229 S  
HETATM   29  O   UNL     1      -9.305   4.864  74.325  1.00  0.00    -0.119 OA 
HETATM   30  C   UNL     1     -11.651   5.175  73.158  1.00  0.00    -0.203 C  
HETATM   31  O   UNL     1     -10.312   7.170  74.182  1.00  0.00    -0.307 OA 
ENDBRANCH  26  28
ENDBRANCH  23  26
ENDBRANCH  19  20
ENDBRANCH  18  19
ENDBRANCH  17  18
ENDBRANCH   2  17
TORSDOF 11
ENDMDL
MODEL      222
REMARK 921   NORMALIZED FREE ENERGY PREDICTED BY IDOCK:   -3.34 KCAL/MOL
REMARK 922        TOTAL FREE ENERGY PREDICTED BY IDOCK:   -7.05 KCAL/MOL
REMARK 923 INTER-LIGAND FREE ENERGY PREDICTED BY IDOCK:   -6.00 KCAL/MOL
REMARK 924 INTRA-LIGAND FREE ENERGY PREDICTED BY IDOCK:   -1.06 KCAL/MOL
REMARK 927      BINDING AFFINITY PREDICTED BY RF-SCORE:    0.00 PKD
ROOT
HETATM    1  C   UNL     1      -7.855   5.385  70.134  1.00  0.00    -0.081 C  
HETATM    2  N   UNL     1      -8.310   6.642  70.737  1.00  0.00    -0.128 NA 
ENDROOT
BRANCH   2   3
HETATM    3  C   UNL     1      -9.633   7.045  70.215  1.00  0.00    -0.168 C  
BRANCH   3   4
HETATM    4  C   UNL     1     -10.427   8.050  71.081  1.00  0.00    -0.230 C  
BRANCH   4   5
HETATM    5  C   UNL     1     -10.905   9.271  70.327  1.00  0.00    -0.286 A  
HETATM    6  C   UNL     1     -11.715  11.574  68.951  1.00  0.00    -0.339 A  
HETATM    7  C   UNL     1     -11.571  10.306  71.000  1.00  0.00    -0.430 A  
HETATM    8  C   UNL     1     -10.685   9.391  68.948  1.00  0.00    -0.203 A  
HETATM    9  C   UNL     1     -11.977  11.454  70.314  1.00  0.00    -0.460 A  
HETATM   10  C   UNL     1     -11.090  10.538  68.263  1.00  0.00    -0.340 A  
BRANCH   6  11
HETATM   11  N   UNL     1     -12.110  12.740  68.236  1.00  0.00    -0.211 N  
HETATM   12  H   UNL     1     -13.073  12.869  67.924  1.00  0.00     0.000 HD 
BRANCH  11  13
HETATM   13  S   UNL     1     -10.926  13.904  67.924  1.00  0.00    -0.256 S  
HETATM   14  O   UNL     1     -10.848  13.995  66.480  1.00  0.00    -0.296 OA 
HETATM   15  O   UNL     1      -9.747  13.650  68.720  1.00  0.00    -0.157 OA 
HETATM   16  C   UNL     1     -11.723  15.384  68.509  1.00  0.00    -0.338 C  
ENDBRANCH  11  13
ENDBRANCH   6  11
ENDBRANCH   4   5
ENDBRANCH   3   4
ENDBRANCH   2   3
BRANCH   2  17
HETATM   17  C   UNL     1      -7.281   7.684  70.514  1.00  0.00    -0.062 C  
BRANCH  17  18
HETATM   18  C   UNL     1      -6.312   7.390  69.357  1.00  0.00    -0.035 C  
BRANCH  18  19
HETATM   19  O   UNL     1      -5.629   8.596  68.993  1.00  0.00    -0.038 OA 
BRANCH  19  20
HETATM   20  C   UNL     1      -6.014   9.167  67.807  1.00  0.00    -0.049 A  
HETATM   21  C   UNL     1      -6.395  10.500  67.636  1.00  0.00    -0.056 A  
HETATM   22  C   UNL     1      -6.012   8.311  66.703  1.00  0.00    -0.052 A  
HETATM   23  C   UNL     1      -6.824  10.095  65.294  1.00  0.00    -0.137 A  
HETATM   24  C   UNL     1      -6.412   8.772  65.444  1.00  0.00    -0.067 A  
HETATM   25  C   UNL     1      -6.797  10.962  66.382  1.00  0.00    -0.135 A  
BRANCH  23  26
HETATM   26  N   UNL     1      -7.250  10.590  64.028  1.00  0.00    -0.344 N  
HETATM   27  H   UNL     1      -6.622  11.133  63.436  1.00  0.00     0.000 HD 
BRANCH  26  28
HETATM   28  S   UNL     1      -8.831  10.248  63.543  1.00  0.00    -0.245 S  
HETATM   29  O   UNL     1      -9.376  11.360  62.801  1.00  0.00    -0.369 OA 
HETATM   30  C   UNL     1      -9.670  10.116  65.109  1.00  0.00    -0.304 C  
HETATM   31  O   UNL     1      -8.774   8.919  62.967  1.00  0.00    -0.175 OA 
ENDBRANCH  26  28
ENDBRANCH  23  26
ENDBRANCH  19  20
ENDBRANCH  18  19
ENDBRANCH  17  18
ENDBRANCH   2  17
TORSDOF 11
ENDMDL
MODEL      223
REMARK 921   NORMALIZED FREE ENERGY PREDICTED BY IDOCK:   -3.33 KCAL/MOL
REMARK 922        TOTAL FREE ENERGY PREDICTED BY IDOCK:   -7.03 KCAL/MOL
REMARK 923 INTER-LIGAND FREE ENERGY PREDICTED BY IDOCK:   -5.31 KCAL/MOL
REMARK 924 INTRA-LIGAND FREE ENERGY PREDICTED BY IDOCK:   -1.72 KCAL/MOL
REMARK 927      BINDING AFFINITY PREDICTED BY RF-SCORE:    0.00 PKD
ROOT
HETATM    1  C   UNL     1      -6.743   3.233  66.187  1.00  0.00    -0.048 C  
HETATM    2  N   UNL     1      -7.758   4.270  65.974  1.00  0.00    -0.090 NA 
ENDROOT
BRANCH   2   3
HETATM    3  C   UNL     1      -9.121   3.697  65.947  1.00  0.00    -0.153 C  
BRANCH   3   4
HETATM    4  C   UNL     1     -10.276   4.677  66.253  1.00  0.00    -0.306 C  
BRANCH   4   5
HETATM    5  C   UNL     1     -10.294   5.182  67.678  1.00  0.00    -0.173 A  
HETATM    6  C   UNL     1     -10.257   6.168  70.301  1.00  0.00    -0.199 A  
HETATM    7  C   UNL     1      -9.507   4.564  68.661  1.00  0.00    -0.220 A  
HETATM    8  C   UNL     1     -11.091   6.278  68.038  1.00  0.00    -0.365 A  
HETATM    9  C   UNL     1      -9.489   5.054  69.969  1.00  0.00    -0.231 A  
HETATM   10  C   UNL     1     -11.072   6.768  69.346  1.00  0.00    -0.310 A  
BRANCH   6  11
HETATM   11  N   UNL     1     -10.244   6.690  71.626  1.00  0.00    -0.192 N  
HETATM   12  H   UNL     1     -10.773   6.244  72.375  1.00  0.00     0.000 HD 
BRANCH  11  13
HETATM   13  S   UNL     1      -9.319   8.075  71.911  1.00  0.00    -0.186 S  
HETATM   14  O   UNL     1     -10.224   9.189  71.712  1.00  0.00    -0.338 OA 
HETATM   15  O   UNL     1      -8.063   7.998  71.201  1.00  0.00    -0.087 OA 
HETATM   16  C   UNL     1      -9.014   7.941  73.660  1.00  0.00    -0.275 C  
ENDBRANCH  11  13
ENDBRANCH   6  11
ENDBRANCH   4   5
ENDBRANCH   3   4
ENDBRANCH   2   3
BRANCH   2  17
HETATM   17  C   UNL     1      -7.438   5.009  64.731  1.00  0.00    -0.075 C  
BRANCH  17  18
HETATM   18  C   UNL     1      -7.637   6.530  64.820  1.00  0.00    -0.099 C  
BRANCH  18  19
HETATM   19  O   UNL     1      -7.197   6.992  66.103  1.00  0.00    -0.071 OA 
BRANCH  19  20
HETATM   20  C   UNL     1      -7.612   8.249  66.460  1.00  0.00    -0.092 A  
HETATM   21  C   UNL     1      -7.524   9.390  65.658  1.00  0.00    -0.095 A  
HETATM   22  C   UNL     1      -8.162   8.356  67.740  1.00  0.00    -0.126 A  
HETATM   23  C   UNL     1      -8.470  10.730  67.431  1.00  0.00    -0.119 A  
HETATM   24  C   UNL     1      -8.596   9.594  68.227  1.00  0.00    -0.119 A  
HETATM   25  C   UNL     1      -7.954  10.626  66.143  1.00  0.00    -0.151 A  
BRANCH  23  26
HETATM   26  N   UNL     1      -8.890  12.006  67.904  1.00  0.00    -0.167 N  
HETATM   27  H   UNL     1      -8.242  12.631  68.383  1.00  0.00     0.000 HD 
BRANCH  26  28
HETATM   28  S   UNL     1     -10.499  12.449  67.643  1.00  0.00    -0.219 S  
HETATM   29  O   UNL     1     -11.142  11.498  66.768  1.00  0.00    -0.286 OA 
HETATM   30  C   UNL     1     -10.313  14.003  66.792  1.00  0.00    -0.271 C  
HETATM   31  O   UNL     1     -11.033  12.736  68.960  1.00  0.00    -0.242 OA 
ENDBRANCH  26  28
ENDBRANCH  23  26
ENDBRANCH  19  20
ENDBRANCH  18  19
ENDBRANCH  17  18
ENDBRANCH   2  17
TORSDOF 11
ENDMDL
MODEL      224
REMARK 921   NORMALIZED FREE ENERGY PREDICTED BY IDOCK:   -3.30 KCAL/MOL
REMARK 922        TOTAL FREE ENERGY PREDICTED BY IDOCK:   -6.99 KCAL/MOL
REMARK 923 INTER-LIGAND FREE ENERGY PREDICTED BY IDOCK:   -6.36 KCAL/MOL
REMARK 924 INTRA-LIGAND FREE ENERGY PREDICTED BY IDOCK:   -0.63 KCAL/MOL
REMARK 927      BINDING AFFINITY PREDICTED BY RF-SCORE:    0.00 PKD
ROOT
HETATM    1  C   UNL     1      -9.237   9.571  70.351  1.00  0.00    -0.253 C  
HETATM    2  N   UNL     1     -10.428   9.362  69.521  1.00  0.00    -0.210 NA 
ENDROOT
BRANCH   2   3
HETATM    3  C   UNL     1     -10.076   8.799  68.199  1.00  0.00    -0.190 C  
BRANCH   3   4
HETATM    4  C   UNL     1     -10.866   7.544  67.763  1.00  0.00    -0.156 C  
BRANCH   4   5
HETATM    5  C   UNL     1     -10.039   6.524  67.013  1.00  0.00    -0.236 A  
HETATM    6  C   UNL     1      -8.520   4.679  65.549  1.00  0.00    -0.123 A  
HETATM    7  C   UNL     1     -10.656   5.432  66.385  1.00  0.00    -0.322 A  
HETATM    8  C   UNL     1      -8.646   6.656  66.928  1.00  0.00    -0.115 A  
HETATM    9  C   UNL     1      -9.899   4.511  65.656  1.00  0.00    -0.227 A  
HETATM   10  C   UNL     1      -7.890   5.736  66.199  1.00  0.00    -0.101 A  
BRANCH   6  11
HETATM   11  N   UNL     1      -7.732   3.759  64.801  1.00  0.00    -0.080 N  
HETATM   12  H   UNL     1      -7.320   2.936  65.242  1.00  0.00     0.000 HD 
BRANCH  11  13
HETATM   13  S   UNL     1      -7.506   4.077  63.157  1.00  0.00    -0.051 S  
HETATM   14  O   UNL     1      -6.116   3.766  62.893  1.00  0.00    -0.016 OA 
HETATM   15  O   UNL     1      -8.061   5.367  62.813  1.00  0.00    -0.087 OA 
HETATM   16  C   UNL     1      -8.492   2.797  62.411  1.00  0.00    -0.074 C  
ENDBRANCH  11  13
ENDBRANCH   6  11
ENDBRANCH   4   5
ENDBRANCH   3   4
ENDBRANCH   2   3
BRANCH   2  17
HETATM   17  C   UNL     1     -11.164  10.642  69.403  1.00  0.00    -0.270 C  
BRANCH  17  18
HETATM   18  C   UNL     1     -10.878  11.430  68.115  1.00  0.00    -0.213 C  
BRANCH  18  19
HETATM   19  O   UNL     1      -9.754  12.293  68.326  1.00  0.00    -0.214 OA 
BRANCH  19  20
HETATM   20  C   UNL     1      -9.826  13.525  67.729  1.00  0.00    -0.233 A  
HETATM   21  C   UNL     1      -8.770  14.176  67.085  1.00  0.00    -0.239 A  
HETATM   22  C   UNL     1     -11.074  14.149  67.792  1.00  0.00    -0.292 A  
HETATM   23  C   UNL     1     -10.194  16.075  66.634  1.00  0.00    -0.291 A  
HETATM   24  C   UNL     1     -11.264  15.421  67.241  1.00  0.00    -0.270 A  
HETATM   25  C   UNL     1      -8.955  15.447  66.538  1.00  0.00    -0.344 A  
BRANCH  23  26
HETATM   26  N   UNL     1     -10.351  17.376  66.076  1.00  0.00    -0.349 N  
HETATM   27  H   UNL     1     -10.684  17.504  65.121  1.00  0.00     0.000 HD 
BRANCH  26  28
HETATM   28  S   UNL     1      -9.968  18.700  67.053  1.00  0.00    -0.362 S  
HETATM   29  O   UNL     1     -11.100  19.591  67.152  1.00  0.00    -0.446 OA 
HETATM   30  C   UNL     1      -8.679  19.486  66.106  1.00  0.00    -0.311 C  
HETATM   31  O   UNL     1      -9.353  18.134  68.238  1.00  0.00    -0.284 OA 
ENDBRANCH  26  28
ENDBRANCH  23  26
ENDBRANCH  19  20
ENDBRANCH  18  19
ENDBRANCH  17  18
ENDBRANCH   2  17
TORSDOF 11
ENDMDL
MODEL      225
REMARK 921   NORMALIZED FREE ENERGY PREDICTED BY IDOCK:   -3.28 KCAL/MOL
REMARK 922        TOTAL FREE ENERGY PREDICTED BY IDOCK:   -6.95 KCAL/MOL
REMARK 923 INTER-LIGAND FREE ENERGY PREDICTED BY IDOCK:   -6.52 KCAL/MOL
REMARK 924 INTRA-LIGAND FREE ENERGY PREDICTED BY IDOCK:   -0.42 KCAL/MOL
REMARK 927      BINDING AFFINITY PREDICTED BY RF-SCORE:    0.00 PKD
ROOT
HETATM    1  C   UNL     1      -9.107   9.246  70.683  1.00  0.00    -0.253 C  
HETATM    2  N   UNL     1      -9.691   9.678  69.409  1.00  0.00    -0.182 NA 
ENDROOT
BRANCH   2   3
HETATM    3  C   UNL     1     -10.522   8.615  68.805  1.00  0.00    -0.185 C  
BRANCH   3   4
HETATM    4  C   UNL     1     -10.525   8.550  67.261  1.00  0.00    -0.366 C  
BRANCH   4   5
HETATM    5  C   UNL     1     -10.080   7.218  66.699  1.00  0.00    -0.238 A  
HETATM    6  C   UNL     1      -9.225   4.728  65.739  1.00  0.00    -0.149 A  
HETATM    7  C   UNL     1      -8.766   7.044  66.241  1.00  0.00    -0.154 A  
HETATM    8  C   UNL     1     -10.969   6.136  66.635  1.00  0.00    -0.225 A  
HETATM    9  C   UNL     1      -8.339   5.803  65.761  1.00  0.00    -0.134 A  
HETATM   10  C   UNL     1     -10.542   4.896  66.155  1.00  0.00    -0.322 A  
BRANCH   6  11
HETATM   11  N   UNL     1      -8.806   3.452  65.265  1.00  0.00    -0.121 N  
HETATM   12  H   UNL     1      -8.254   2.825  65.850  1.00  0.00     0.000 HD 
BRANCH  11  13
HETATM   13  S   UNL     1      -9.258   3.014  63.696  1.00  0.00    -0.099 S  
HETATM   14  O   UNL     1     -10.642   2.598  63.797  1.00  0.00    -0.173 OA 
HETATM   15  O   UNL     1      -8.260   2.151  63.107  1.00  0.00    -0.071 OA 
HETATM   16  C   UNL     1      -9.234   4.590  62.869  1.00  0.00    -0.110 C  
ENDBRANCH  11  13
ENDBRANCH   6  11
ENDBRANCH   4   5
ENDBRANCH   3   4
ENDBRANCH   2   3
BRANCH   2  17
HETATM   17  C   UNL     1      -8.603  10.117  68.504  1.00  0.00    -0.118 C  
BRANCH  17  18
HETATM   18  C   UNL     1      -8.297  11.623  68.553  1.00  0.00    -0.140 C  
BRANCH  18  19
HETATM   19  O   UNL     1      -8.655  12.221  67.302  1.00  0.00    -0.167 OA 
BRANCH  19  20
HETATM   20  C   UNL     1      -9.111  13.513  67.365  1.00  0.00    -0.219 A  
HETATM   21  C   UNL     1     -10.103  14.063  66.550  1.00  0.00    -0.287 A  
HETATM   22  C   UNL     1      -8.507  14.313  68.338  1.00  0.00    -0.166 A  
HETATM   23  C   UNL     1      -9.834  16.203  67.637  1.00  0.00    -0.236 A  
HETATM   24  C   UNL     1      -8.869  15.657  68.481  1.00  0.00    -0.187 A  
HETATM   25  C   UNL     1     -10.464  15.404  66.687  1.00  0.00    -0.293 A  
BRANCH  23  26
HETATM   26  N   UNL     1     -10.215  17.571  67.748  1.00  0.00    -0.333 N  
HETATM   27  H   UNL     1     -11.092  17.840  68.195  1.00  0.00     0.000 HD 
BRANCH  26  28
HETATM   28  S   UNL     1      -9.164  18.732  67.116  1.00  0.00    -0.293 S  
HETATM   29  O   UNL     1      -8.420  19.364  68.180  1.00  0.00    -0.311 OA 
HETATM   30  C   UNL     1     -10.304  19.907  66.413  1.00  0.00    -0.495 C  
HETATM   31  O   UNL     1      -8.486  18.074  66.016  1.00  0.00    -0.494 OA 
ENDBRANCH  26  28
ENDBRANCH  23  26
ENDBRANCH  19  20
ENDBRANCH  18  19
ENDBRANCH  17  18
ENDBRANCH   2  17
TORSDOF 11
ENDMDL
MODEL      226
REMARK 921   NORMALIZED FREE ENERGY PREDICTED BY IDOCK:   -3.27 KCAL/MOL
REMARK 922        TOTAL FREE ENERGY PREDICTED BY IDOCK:   -6.94 KCAL/MOL
REMARK 923 INTER-LIGAND FREE ENERGY PREDICTED BY IDOCK:   -6.69 KCAL/MOL
REMARK 924 INTRA-LIGAND FREE ENERGY PREDICTED BY IDOCK:   -0.25 KCAL/MOL
REMARK 927      BINDING AFFINITY PREDICTED BY RF-SCORE:    0.00 PKD
ROOT
HETATM    1  C   UNL     1     -11.955  11.120  69.003  1.00  0.00    -0.320 C  
HETATM    2  N   UNL     1     -10.560  11.538  69.175  1.00  0.00    -0.180 NA 
ENDROOT
BRANCH   2   3
HETATM    3  C   UNL     1     -10.209  12.647  68.262  1.00  0.00    -0.239 C  
BRANCH   3   4
HETATM    4  C   UNL     1      -8.781  13.220  68.407  1.00  0.00    -0.126 C  
BRANCH   4   5
HETATM    5  C   UNL     1      -8.719  14.731  68.399  1.00  0.00    -0.169 A  
HETATM    6  C   UNL     1      -8.575  17.528  68.300  1.00  0.00    -0.266 A  
HETATM    7  C   UNL     1      -7.519  15.394  68.695  1.00  0.00    -0.130 A  
HETATM    8  C   UNL     1      -9.855  15.491  68.090  1.00  0.00    -0.216 A  
HETATM    9  C   UNL     1      -7.447  16.789  68.647  1.00  0.00    -0.219 A  
HETATM   10  C   UNL     1      -9.783  16.885  68.042  1.00  0.00    -0.256 A  
BRANCH   6  11
HETATM   11  N   UNL     1      -8.520  18.949  68.235  1.00  0.00    -0.318 N  
HETATM   12  H   UNL     1      -8.643  19.522  69.070  1.00  0.00     0.000 HD 
BRANCH  11  13
HETATM   13  S   UNL     1      -8.245  19.652  66.723  1.00  0.00    -0.321 S  
HETATM   14  O   UNL     1      -7.698  18.593  65.900  1.00  0.00    -0.453 OA 
HETATM   15  O   UNL     1      -7.555  20.913  66.873  1.00  0.00    -0.240 OA 
HETATM   16  C   UNL     1      -9.908  19.956  66.167  1.00  0.00    -0.458 C  
ENDBRANCH  11  13
ENDBRANCH   6  11
ENDBRANCH   4   5
ENDBRANCH   3   4
ENDBRANCH   2   3
BRANCH   2  17
HETATM   17  C   UNL     1      -9.679  10.362  68.988  1.00  0.00    -0.206 C  
BRANCH  17  18
HETATM   18  C   UNL     1     -10.194   9.329  67.973  1.00  0.00    -0.209 C  
BRANCH  18  19
HETATM   19  O   UNL     1      -9.501   8.090  68.161  1.00  0.00    -0.142 OA 
BRANCH  19  20
HETATM   20  C   UNL     1      -9.771   7.425  69.330  1.00  0.00    -0.165 A  
HETATM   21  C   UNL     1      -8.854   7.185  70.356  1.00  0.00    -0.151 A  
HETATM   22  C   UNL     1     -11.083   6.966  69.467  1.00  0.00    -0.270 A  
HETATM   23  C   UNL     1     -10.538   5.986  71.604  1.00  0.00    -0.236 A  
HETATM   24  C   UNL     1     -11.472   6.250  70.605  1.00  0.00    -0.397 A  
HETATM   25  C   UNL     1      -9.238   6.468  71.491  1.00  0.00    -0.144 A  
BRANCH  23  26
HETATM   26  N   UNL     1     -10.900   5.248  72.768  1.00  0.00    -0.244 N  
HETATM   27  H   UNL     1     -11.646   5.568  73.385  1.00  0.00     0.000 HD 
BRANCH  26  28
HETATM   28  S   UNL     1     -10.051   3.824  73.090  1.00  0.00    -0.151 S  
HETATM   29  O   UNL     1      -8.842   4.120  73.823  1.00  0.00    -0.094 OA 
HETATM   30  C   UNL     1      -9.626   3.277  71.448  1.00  0.00    -0.160 C  
HETATM   31  O   UNL     1     -11.038   2.901  73.613  1.00  0.00    -0.210 OA 
ENDBRANCH  26  28
ENDBRANCH  23  26
ENDBRANCH  19  20
ENDBRANCH  18  19
ENDBRANCH  17  18
ENDBRANCH   2  17
TORSDOF 11
ENDMDL
MODEL      227
REMARK 921   NORMALIZED FREE ENERGY PREDICTED BY IDOCK:   -3.26 KCAL/MOL
REMARK 922        TOTAL FREE ENERGY PREDICTED BY IDOCK:   -6.92 KCAL/MOL
REMARK 923 INTER-LIGAND FREE ENERGY PREDICTED BY IDOCK:   -6.46 KCAL/MOL
REMARK 924 INTRA-LIGAND FREE ENERGY PREDICTED BY IDOCK:   -0.46 KCAL/MOL
REMARK 927      BINDING AFFINITY PREDICTED BY RF-SCORE:    0.00 PKD
ROOT
HETATM    1  C   UNL     1     -10.303  13.659  65.927  1.00  0.00    -0.301 C  
HETATM    2  N   UNL     1     -10.504  12.931  67.184  1.00  0.00    -0.237 NA 
ENDROOT
BRANCH   2   3
HETATM    3  C   UNL     1      -9.837  13.610  68.316  1.00  0.00    -0.232 C  
BRANCH   3   4
HETATM    4  C   UNL     1      -8.294  13.531  68.343  1.00  0.00    -0.140 C  
BRANCH   4   5
HETATM    5  C   UNL     1      -7.607  14.879  68.337  1.00  0.00    -0.113 A  
HETATM    6  C   UNL     1      -6.256  17.334  68.330  1.00  0.00    -0.149 A  
HETATM    7  C   UNL     1      -7.233  15.490  69.543  1.00  0.00    -0.201 A  
HETATM    8  C   UNL     1      -7.327  15.533  67.130  1.00  0.00    -0.226 A  
HETATM    9  C   UNL     1      -6.561  16.715  69.540  1.00  0.00    -0.212 A  
HETATM   10  C   UNL     1      -6.655  16.757  67.127  1.00  0.00    -0.227 A  
BRANCH   6  11
HETATM   11  N   UNL     1      -5.562  18.577  68.305  1.00  0.00    -0.174 N  
HETATM   12  H   UNL     1      -4.619  18.648  67.920  1.00  0.00     0.000 HD 
BRANCH  11  13
HETATM   13  S   UNL     1      -6.355  19.929  68.933  1.00  0.00    -0.317 S  
HETATM   14  O   UNL     1      -5.559  20.348  70.069  1.00  0.00    -0.284 OA 
HETATM   15  O   UNL     1      -7.769  19.665  69.071  1.00  0.00    -0.347 OA 
HETATM   16  C   UNL     1      -6.104  21.121  67.636  1.00  0.00    -0.362 C  
ENDBRANCH  11  13
ENDBRANCH   6  11
ENDBRANCH   4   5
ENDBRANCH   3   4
ENDBRANCH   2   3
BRANCH   2  17
HETATM   17  C   UNL     1     -10.032  11.537  67.015  1.00  0.00    -0.200 C  
BRANCH  17  18
HETATM   18  C   UNL     1     -11.108  10.464  67.242  1.00  0.00    -0.179 C  
BRANCH  18  19
HETATM   19  O   UNL     1     -11.407  10.379  68.641  1.00  0.00    -0.256 OA 
BRANCH  19  20
HETATM   20  C   UNL     1     -10.746   9.398  69.334  1.00  0.00    -0.217 A  
HETATM   21  C   UNL     1     -10.569   8.080  68.904  1.00  0.00    -0.160 A  
HETATM   22  C   UNL     1     -10.220   9.788  70.569  1.00  0.00    -0.321 A  
HETATM   23  C   UNL     1      -9.411   7.547  70.955  1.00  0.00    -0.156 A  
HETATM   24  C   UNL     1      -9.548   8.867  71.380  1.00  0.00    -0.359 A  
HETATM   25  C   UNL     1      -9.902   7.158  69.713  1.00  0.00    -0.173 A  
BRANCH  23  26
HETATM   26  N   UNL     1      -8.744   6.583  71.764  1.00  0.00    -0.131 N  
HETATM   27  H   UNL     1      -7.732   6.460  71.713  1.00  0.00     0.000 HD 
BRANCH  26  28
HETATM   28  S   UNL     1      -9.685   5.651  72.812  1.00  0.00    -0.156 S  
HETATM   29  O   UNL     1     -10.513   4.738  72.059  1.00  0.00    -0.202 OA 
HETATM   30  C   UNL     1     -10.715   6.890  73.572  1.00  0.00    -0.312 C  
HETATM   31  O   UNL     1      -8.766   5.169  73.824  1.00  0.00    -0.116 OA 
ENDBRANCH  26  28
ENDBRANCH  23  26
ENDBRANCH  19  20
ENDBRANCH  18  19
ENDBRANCH  17  18
ENDBRANCH   2  17
TORSDOF 11
ENDMDL
MODEL      228
REMARK 921   NORMALIZED FREE ENERGY PREDICTED BY IDOCK:   -3.26 KCAL/MOL
REMARK 922        TOTAL FREE ENERGY PREDICTED BY IDOCK:   -6.91 KCAL/MOL
REMARK 923 INTER-LIGAND FREE ENERGY PREDICTED BY IDOCK:   -6.03 KCAL/MOL
REMARK 924 INTRA-LIGAND FREE ENERGY PREDICTED BY IDOCK:   -0.89 KCAL/MOL
REMARK 927      BINDING AFFINITY PREDICTED BY RF-SCORE:    0.00 PKD
ROOT
HETATM    1  C   UNL     1      -6.915   5.259  72.343  1.00  0.00    -0.080 C  
HETATM    2  N   UNL     1      -8.306   5.588  72.668  1.00  0.00    -0.114 NA 
ENDROOT
BRANCH   2   3
HETATM    3  C   UNL     1      -8.413   6.257  73.983  1.00  0.00    -0.116 C  
BRANCH   3   4
HETATM    4  C   UNL     1      -9.695   7.086  74.221  1.00  0.00    -0.263 C  
BRANCH   4   5
HETATM    5  C   UNL     1     -10.187   7.826  72.996  1.00  0.00    -0.393 A  
HETATM    6  C   UNL     1     -11.074   9.126  70.678  1.00  0.00    -0.265 A  
HETATM    7  C   UNL     1      -9.296   8.577  72.215  1.00  0.00    -0.363 A  
HETATM    8  C   UNL     1     -11.535   7.767  72.619  1.00  0.00    -0.430 A  
HETATM    9  C   UNL     1      -9.738   9.227  71.060  1.00  0.00    -0.341 A  
HETATM   10  C   UNL     1     -11.977   8.416  71.464  1.00  0.00    -0.344 A  
BRANCH   6  11
HETATM   11  N   UNL     1     -11.543   9.771  69.498  1.00  0.00    -0.453 N  
HETATM   12  H   UNL     1     -12.039   9.252  68.773  1.00  0.00     0.000 HD 
BRANCH  11  13
HETATM   13  S   UNL     1     -11.246  11.427  69.341  1.00  0.00    -0.263 S  
HETATM   14  O   UNL     1      -9.805  11.553  69.254  1.00  0.00     0.025 OA 
HETATM   15  O   UNL     1     -12.002  12.169  70.324  1.00  0.00    -0.348 OA 
HETATM   16  C   UNL     1     -11.910  11.752  67.722  1.00  0.00    -0.196 C  
ENDBRANCH  11  13
ENDBRANCH   6  11
ENDBRANCH   4   5
ENDBRANCH   3   4
ENDBRANCH   2   3
BRANCH   2  17
HETATM   17  C   UNL     1      -9.121   4.352  72.604  1.00  0.00    -0.118 C  
BRANCH  17  18
HETATM   18  C   UNL     1      -9.908   4.170  71.297  1.00  0.00    -0.179 C  
BRANCH  18  19
HETATM   19  O   UNL     1     -10.395   5.443  70.855  1.00  0.00    -0.222 OA 
BRANCH  19  20
HETATM   20  C   UNL     1     -10.130   5.764  69.548  1.00  0.00    -0.214 A  
HETATM   21  C   UNL     1     -10.898   5.376  68.447  1.00  0.00     0.058 A  
HETATM   22  C   UNL     1      -8.989   6.544  69.344  1.00  0.00    -0.132 A  
HETATM   23  C   UNL     1      -9.355   6.488  66.958  1.00  0.00    -0.139 A  
HETATM   24  C   UNL     1      -8.601   6.912  68.051  1.00  0.00    -0.123 A  
HETATM   25  C   UNL     1     -10.511   5.739  67.156  1.00  0.00    -0.337 A  
BRANCH  23  26
HETATM   26  N   UNL     1      -8.978   6.835  65.629  1.00  0.00    -0.358 N  
HETATM   27  H   UNL     1      -9.222   7.742  65.231  1.00  0.00     0.000 HD 
BRANCH  26  28
HETATM   28  S   UNL     1      -8.112   5.693  64.736  1.00  0.00    -0.130 S  
HETATM   29  O   UNL     1      -8.294   4.377  65.300  1.00  0.00    -0.108 OA 
HETATM   30  C   UNL     1      -6.432   6.222  65.002  1.00  0.00    -0.038 C  
HETATM   31  O   UNL     1      -8.439   5.966  63.350  1.00  0.00    -0.044 OA 
ENDBRANCH  26  28
ENDBRANCH  23  26
ENDBRANCH  19  20
ENDBRANCH  18  19
ENDBRANCH  17  18
ENDBRANCH   2  17
TORSDOF 11
ENDMDL
MODEL      229
REMARK 921   NORMALIZED FREE ENERGY PREDICTED BY IDOCK:   -3.23 KCAL/MOL
REMARK 922        TOTAL FREE ENERGY PREDICTED BY IDOCK:   -6.86 KCAL/MOL
REMARK 923 INTER-LIGAND FREE ENERGY PREDICTED BY IDOCK:   -6.54 KCAL/MOL
REMARK 924 INTRA-LIGAND FREE ENERGY PREDICTED BY IDOCK:   -0.33 KCAL/MOL
REMARK 927      BINDING AFFINITY PREDICTED BY RF-SCORE:    0.00 PKD
ROOT
HETATM    1  C   UNL     1      -5.229  10.895  68.429  1.00  0.00    -0.040 C  
HETATM    2  N   UNL     1      -6.058  11.345  69.552  1.00  0.00    -0.081 NA 
ENDROOT
BRANCH   2   3
HETATM    3  C   UNL     1      -7.434  10.812  69.458  1.00  0.00    -0.110 C  
BRANCH   3   4
HETATM    4  C   UNL     1      -7.688   9.782  68.334  1.00  0.00    -0.081 C  
BRANCH   4   5
HETATM    5  C   UNL     1      -8.240   8.461  68.822  1.00  0.00    -0.119 A  
HETATM    6  C   UNL     1      -9.242   6.037  69.810  1.00  0.00    -0.143 A  
HETATM    7  C   UNL     1      -7.386   7.366  69.024  1.00  0.00    -0.091 A  
HETATM    8  C   UNL     1      -9.608   8.311  69.086  1.00  0.00    -0.160 A  
HETATM    9  C   UNL     1      -7.885   6.157  69.516  1.00  0.00    -0.100 A  
HETATM   10  C   UNL     1     -10.107   7.103  69.578  1.00  0.00    -0.182 A  
BRANCH   6  11
HETATM   11  N   UNL     1      -9.769   4.818  70.322  1.00  0.00    -0.205 N  
HETATM   12  H   UNL     1      -9.901   4.005  69.720  1.00  0.00     0.000 HD 
BRANCH  11  13
HETATM   13  S   UNL     1     -10.167   4.766  71.963  1.00  0.00    -0.181 S  
HETATM   14  O   UNL     1     -10.283   3.358  72.286  1.00  0.00    -0.162 OA 
HETATM   15  O   UNL     1     -11.243   5.687  72.250  1.00  0.00    -0.266 OA 
HETATM   16  C   UNL     1      -8.667   5.364  72.710  1.00  0.00    -0.123 C  
ENDBRANCH  11  13
ENDBRANCH   6  11
ENDBRANCH   4   5
ENDBRANCH   3   4
ENDBRANCH   2   3
BRANCH   2  17
HETATM   17  C   UNL     1      -6.036  12.825  69.604  1.00  0.00    -0.121 C  
BRANCH  17  18
HETATM   18  C   UNL     1      -6.650  13.520  68.378  1.00  0.00    -0.095 C  
BRANCH  18  19
HETATM   19  O   UNL     1      -7.705  14.390  68.805  1.00  0.00    -0.132 OA 
BRANCH  19  20
HETATM   20  C   UNL     1      -8.842  14.372  68.039  1.00  0.00    -0.178 A  
HETATM   21  C   UNL     1      -9.313  15.435  67.263  1.00  0.00    -0.218 A  
HETATM   22  C   UNL     1      -9.561  13.174  68.063  1.00  0.00    -0.220 A  
HETATM   23  C   UNL     1     -11.231  14.123  66.602  1.00  0.00    -0.325 A  
HETATM   24  C   UNL     1     -10.753  13.044  67.342  1.00  0.00    -0.256 A  
HETATM   25  C   UNL     1     -10.505  15.309  66.546  1.00  0.00    -0.299 A  
BRANCH  23  26
HETATM   26  N   UNL     1     -12.449  14.026  65.869  1.00  0.00    -0.491 N  
HETATM   27  H   UNL     1     -13.320  14.406  66.240  1.00  0.00     0.000 HD 
BRANCH  26  28
HETATM   28  S   UNL     1     -12.400  13.262  64.363  1.00  0.00    -0.322 S  
HETATM   29  O   UNL     1     -13.199  12.060  64.389  1.00  0.00    -0.669 OA 
HETATM   30  C   UNL     1     -10.677  12.824  64.236  1.00  0.00    -0.394 C  
HETATM   31  O   UNL     1     -12.654  14.310  63.395  1.00  0.00    -0.777 OA 
ENDBRANCH  26  28
ENDBRANCH  23  26
ENDBRANCH  19  20
ENDBRANCH  18  19
ENDBRANCH  17  18
ENDBRANCH   2  17
TORSDOF 11
ENDMDL
MODEL      230
REMARK 921   NORMALIZED FREE ENERGY PREDICTED BY IDOCK:   -3.21 KCAL/MOL
REMARK 922        TOTAL FREE ENERGY PREDICTED BY IDOCK:   -6.84 KCAL/MOL
REMARK 923 INTER-LIGAND FREE ENERGY PREDICTED BY IDOCK:   -6.45 KCAL/MOL
REMARK 924 INTRA-LIGAND FREE ENERGY PREDICTED BY IDOCK:   -0.39 KCAL/MOL
REMARK 927      BINDING AFFINITY PREDICTED BY RF-SCORE:    0.00 PKD
ROOT
HETATM    1  C   UNL     1      -9.049  11.220  68.104  1.00  0.00    -0.166 C  
HETATM    2  N   UNL     1     -10.164  10.267  68.073  1.00  0.00    -0.161 NA 
ENDROOT
BRANCH   2   3
HETATM    3  C   UNL     1      -9.967   9.236  67.031  1.00  0.00    -0.224 C  
BRANCH   3   4
HETATM    4  C   UNL     1     -10.767   7.926  67.213  1.00  0.00    -0.299 C  
BRANCH   4   5
HETATM    5  C   UNL     1     -10.033   6.687  66.751  1.00  0.00    -0.238 A  
HETATM    6  C   UNL     1      -8.624   4.394  65.971  1.00  0.00    -0.113 A  
HETATM    7  C   UNL     1      -8.812   6.798  66.069  1.00  0.00    -0.150 A  
HETATM    8  C   UNL     1     -10.555   5.411  67.002  1.00  0.00    -0.298 A  
HETATM    9  C   UNL     1      -8.110   5.655  65.679  1.00  0.00    -0.120 A  
HETATM   10  C   UNL     1      -9.853   4.269  66.613  1.00  0.00    -0.236 A  
BRANCH   6  11
HETATM   11  N   UNL     1      -7.919   3.216  65.592  1.00  0.00    -0.085 N  
HETATM   12  H   UNL     1      -8.316   2.553  64.925  1.00  0.00     0.000 HD 
BRANCH  11  13
HETATM   13  S   UNL     1      -6.401   2.956  66.286  1.00  0.00    -0.028 S  
HETATM   14  O   UNL     1      -5.499   3.843  65.581  1.00  0.00    -0.009 OA 
HETATM   15  O   UNL     1      -6.128   1.540  66.385  1.00  0.00    -0.018 OA 
HETATM   16  C   UNL     1      -6.640   3.624  67.918  1.00  0.00    -0.042 C  
ENDBRANCH  11  13
ENDBRANCH   6  11
ENDBRANCH   4   5
ENDBRANCH   3   4
ENDBRANCH   2   3
BRANCH   2  17
HETATM   17  C   UNL     1     -11.430  11.014  67.886  1.00  0.00    -0.282 C  
BRANCH  17  18
HETATM   18  C   UNL     1     -11.463  11.920  66.645  1.00  0.00    -0.314 C  
BRANCH  18  19
HETATM   19  O   UNL     1     -12.035  13.186  66.996  1.00  0.00    -0.379 OA 
BRANCH  19  20
HETATM   20  C   UNL     1     -11.149  14.224  67.134  1.00  0.00    -0.311 A  
HETATM   21  C   UNL     1     -10.227  14.635  66.168  1.00  0.00    -0.313 A  
HETATM   22  C   UNL     1     -11.206  14.901  68.355  1.00  0.00    -0.304 A  
HETATM   23  C   UNL     1      -9.393  16.338  67.666  1.00  0.00    -0.218 A  
HETATM   24  C   UNL     1     -10.334  15.961  68.622  1.00  0.00    -0.229 A  
HETATM   25  C   UNL     1      -9.352  15.690  66.434  1.00  0.00    -0.332 A  
BRANCH  23  26
HETATM   26  N   UNL     1      -8.482  17.404  67.914  1.00  0.00    -0.223 N  
HETATM   27  H   UNL     1      -7.632  17.256  68.457  1.00  0.00     0.000 HD 
BRANCH  26  28
HETATM   28  S   UNL     1      -8.858  18.922  67.277  1.00  0.00    -0.285 S  
HETATM   29  O   UNL     1      -8.587  18.950  65.859  1.00  0.00    -0.471 OA 
HETATM   30  C   UNL     1      -7.690  19.969  68.122  1.00  0.00    -0.236 C  
HETATM   31  O   UNL     1     -10.176  19.237  67.794  1.00  0.00    -0.360 OA 
ENDBRANCH  26  28
ENDBRANCH  23  26
ENDBRANCH  19  20
ENDBRANCH  18  19
ENDBRANCH  17  18
ENDBRANCH   2  17
TORSDOF 11
ENDMDL
MODEL      231
REMARK 921   NORMALIZED FREE ENERGY PREDICTED BY IDOCK:   -3.17 KCAL/MOL
REMARK 922        TOTAL FREE ENERGY PREDICTED BY IDOCK:   -6.78 KCAL/MOL
REMARK 923 INTER-LIGAND FREE ENERGY PREDICTED BY IDOCK:   -5.29 KCAL/MOL
REMARK 924 INTRA-LIGAND FREE ENERGY PREDICTED BY IDOCK:   -1.49 KCAL/MOL
REMARK 927      BINDING AFFINITY PREDICTED BY RF-SCORE:    0.00 PKD
ROOT
HETATM    1  C   UNL     1      -8.241   3.735  68.321  1.00  0.00    -0.082 C  
HETATM    2  N   UNL     1      -7.357   4.254  69.369  1.00  0.00    -0.051 NA 
ENDROOT
BRANCH   2   3
HETATM    3  C   UNL     1      -6.064   4.707  68.812  1.00  0.00    -0.030 C  
BRANCH   3   4
HETATM    4  C   UNL     1      -5.573   6.097  69.275  1.00  0.00    -0.012 C  
BRANCH   4   5
HETATM    5  C   UNL     1      -6.398   7.249  68.746  1.00  0.00    -0.035 A  
HETATM    6  C   UNL     1      -7.872   9.440  67.807  1.00  0.00    -0.095 A  
HETATM    7  C   UNL     1      -7.421   7.808  69.527  1.00  0.00    -0.094 A  
HETATM    8  C   UNL     1      -6.150   7.781  67.474  1.00  0.00    -0.049 A  
HETATM    9  C   UNL     1      -8.157   8.899  69.059  1.00  0.00    -0.115 A  
HETATM   10  C   UNL     1      -6.885   8.872  67.006  1.00  0.00    -0.073 A  
BRANCH   6  11
HETATM   11  N   UNL     1      -8.602  10.560  67.316  1.00  0.00    -0.123 N  
HETATM   12  H   UNL     1      -8.213  11.502  67.354  1.00  0.00     0.000 HD 
BRANCH  11  13
HETATM   13  S   UNL     1     -10.136  10.270  66.669  1.00  0.00    -0.229 S  
HETATM   14  O   UNL     1     -10.362   8.849  66.838  1.00  0.00    -0.262 OA 
HETATM   15  O   UNL     1     -10.262  10.897  65.373  1.00  0.00    -0.257 OA 
HETATM   16  C   UNL     1     -11.177  11.119  67.836  1.00  0.00    -0.302 C  
ENDBRANCH  11  13
ENDBRANCH   6  11
ENDBRANCH   4   5
ENDBRANCH   3   4
ENDBRANCH   2   3
BRANCH   2  17
HETATM   17  C   UNL     1      -7.182   3.216  70.411  1.00  0.00    -0.037 C  
BRANCH  17  18
HETATM   18  C   UNL     1      -7.772   3.579  71.783  1.00  0.00    -0.057 C  
BRANCH  18  19
HETATM   19  O   UNL     1      -7.474   4.949  72.081  1.00  0.00    -0.082 OA 
BRANCH  19  20
HETATM   20  C   UNL     1      -8.555   5.760  72.310  1.00  0.00    -0.125 A  
HETATM   21  C   UNL     1      -8.495   7.078  72.770  1.00  0.00    -0.129 A  
HETATM   22  C   UNL     1      -9.801   5.185  72.049  1.00  0.00    -0.221 A  
HETATM   23  C   UNL     1     -10.907   7.207  72.764  1.00  0.00    -0.300 A  
HETATM   24  C   UNL     1     -10.979   5.907  72.270  1.00  0.00    -0.313 A  
HETATM   25  C   UNL     1      -9.669   7.799  72.996  1.00  0.00    -0.329 A  
BRANCH  23  26
HETATM   26  N   UNL     1     -12.089   7.963  73.013  1.00  0.00    -0.541 N  
HETATM   27  H   UNL     1     -12.514   7.989  73.940  1.00  0.00     0.000 HD 
BRANCH  26  28
HETATM   28  S   UNL     1     -12.763   8.814  71.719  1.00  0.00    -0.381 S  
HETATM   29  O   UNL     1     -13.296  10.076  72.177  1.00  0.00    -0.444 OA 
HETATM   30  C   UNL     1     -14.106   7.744  71.243  1.00  0.00    -0.259 C  
HETATM   31  O   UNL     1     -11.769   8.758  70.666  1.00  0.00    -0.260 OA 
ENDBRANCH  26  28
ENDBRANCH  23  26
ENDBRANCH  19  20
ENDBRANCH  18  19
ENDBRANCH  17  18
ENDBRANCH   2  17
TORSDOF 11
ENDMDL
MODEL      232
REMARK 921   NORMALIZED FREE ENERGY PREDICTED BY IDOCK:   -3.17 KCAL/MOL
REMARK 922        TOTAL FREE ENERGY PREDICTED BY IDOCK:   -6.76 KCAL/MOL
REMARK 923 INTER-LIGAND FREE ENERGY PREDICTED BY IDOCK:   -5.67 KCAL/MOL
REMARK 924 INTRA-LIGAND FREE ENERGY PREDICTED BY IDOCK:   -1.09 KCAL/MOL
REMARK 927      BINDING AFFINITY PREDICTED BY RF-SCORE:    0.00 PKD
ROOT
HETATM    1  C   UNL     1      -5.440  18.980  64.940  1.00  0.00    -0.211 C  
HETATM    2  N   UNL     1      -5.493  19.130  66.398  1.00  0.00    -0.156 NA 
ENDROOT
BRANCH   2   3
HETATM    3  C   UNL     1      -5.382  17.824  67.082  1.00  0.00    -0.134 C  
BRANCH   3   4
HETATM    4  C   UNL     1      -6.502  17.490  68.094  1.00  0.00    -0.178 C  
BRANCH   4   5
HETATM    5  C   UNL     1      -6.437  16.083  68.643  1.00  0.00    -0.118 A  
HETATM    6  C   UNL     1      -6.361  13.446  69.589  1.00  0.00    -0.093 A  
HETATM    7  C   UNL     1      -7.503  15.563  69.393  1.00  0.00    -0.219 A  
HETATM    8  C   UNL     1      -5.317  15.274  68.407  1.00  0.00    -0.106 A  
HETATM    9  C   UNL     1      -7.465  14.249  69.866  1.00  0.00     0.343 A  
HETATM   10  C   UNL     1      -5.280  13.960  68.879  1.00  0.00    -0.072 A  
BRANCH   6  11
HETATM   11  N   UNL     1      -6.307  12.100  70.052  1.00  0.00    -0.330 N  
HETATM   12  H   UNL     1      -5.904  11.869  70.960  1.00  0.00     0.000 HD 
BRANCH  11  13
HETATM   13  S   UNL     1      -6.937  10.900  69.043  1.00  0.00    -0.100 S  
HETATM   14  O   UNL     1      -5.796  10.357  68.333  1.00  0.00    -0.041 OA 
HETATM   15  O   UNL     1      -8.092  11.396  68.330  1.00  0.00    -0.128 OA 
HETATM   16  C   UNL     1      -7.459   9.680  70.228  1.00  0.00    -0.158 C  
ENDBRANCH  11  13
ENDBRANCH   6  11
ENDBRANCH   4   5
ENDBRANCH   3   4
ENDBRANCH   2   3
BRANCH   2  17
HETATM   17  C   UNL     1      -6.736  19.848  66.764  1.00  0.00    -0.199 C  
BRANCH  17  18
HETATM   18  C   UNL     1      -7.707  20.084  65.596  1.00  0.00    -0.161 C  
BRANCH  18  19
HETATM   19  O   UNL     1      -9.046  20.158  66.100  1.00  0.00    -0.327 OA 
BRANCH  19  20
HETATM   20  C   UNL     1      -9.552  18.998  66.626  1.00  0.00    -0.340 A  
HETATM   21  C   UNL     1      -9.794  17.822  65.911  1.00  0.00    -0.078 A  
HETATM   22  C   UNL     1      -9.837  19.035  67.994  1.00  0.00    -0.414 A  
HETATM   23  C   UNL     1     -10.652  16.765  67.907  1.00  0.00    -0.350 A  
HETATM   24  C   UNL     1     -10.382  17.919  68.638  1.00  0.00    -0.342 A  
HETATM   25  C   UNL     1     -10.342  16.708  66.551  1.00  0.00    -0.300 A  
BRANCH  23  26
HETATM   26  N   UNL     1     -11.220  15.618  68.531  1.00  0.00    -0.323 N  
HETATM   27  H   UNL     1     -11.753  15.698  69.398  1.00  0.00     0.000 HD 
BRANCH  26  28
HETATM   28  S   UNL     1     -10.981  14.120  67.788  1.00  0.00    -0.269 S  
HETATM   29  O   UNL     1      -9.724  14.112  67.077  1.00  0.00    -0.243 OA 
HETATM   30  C   UNL     1     -12.322  14.079  66.617  1.00  0.00    -0.371 C  
HETATM   31  O   UNL     1     -11.269  13.136  68.813  1.00  0.00    -0.252 OA 
ENDBRANCH  26  28
ENDBRANCH  23  26
ENDBRANCH  19  20
ENDBRANCH  18  19
ENDBRANCH  17  18
ENDBRANCH   2  17
TORSDOF 11
ENDMDL
MODEL      233
REMARK 921   NORMALIZED FREE ENERGY PREDICTED BY IDOCK:   -3.11 KCAL/MOL
REMARK 922        TOTAL FREE ENERGY PREDICTED BY IDOCK:   -6.67 KCAL/MOL
REMARK 923 INTER-LIGAND FREE ENERGY PREDICTED BY IDOCK:   -6.43 KCAL/MOL
REMARK 924 INTRA-LIGAND FREE ENERGY PREDICTED BY IDOCK:   -0.24 KCAL/MOL
REMARK 927      BINDING AFFINITY PREDICTED BY RF-SCORE:    0.00 PKD
ROOT
HETATM    1  C   UNL     1      -7.217  12.120  68.515  1.00  0.00    -0.102 C  
HETATM    2  N   UNL     1      -8.493  11.587  68.024  1.00  0.00    -0.141 NA 
ENDROOT
BRANCH   2   3
HETATM    3  C   UNL     1      -8.712  10.198  68.481  1.00  0.00    -0.123 C  
BRANCH   3   4
HETATM    4  C   UNL     1      -8.536   9.945  69.996  1.00  0.00    -0.196 C  
BRANCH   4   5
HETATM    5  C   UNL     1      -8.279   8.498  70.354  1.00  0.00    -0.114 A  
HETATM    6  C   UNL     1      -7.721   5.839  71.041  1.00  0.00    -0.101 A  
HETATM    7  C   UNL     1      -7.680   7.633  69.426  1.00  0.00    -0.107 A  
HETATM    8  C   UNL     1      -8.629   8.001  71.616  1.00  0.00    -0.162 A  
HETATM    9  C   UNL     1      -7.402   6.307  69.767  1.00  0.00    -0.079 A  
HETATM   10  C   UNL     1      -8.351   6.675  71.958  1.00  0.00    -0.106 A  
BRANCH   6  11
HETATM   11  N   UNL     1      -7.436   4.495  71.413  1.00  0.00    -0.066 N  
HETATM   12  H   UNL     1      -6.658   4.271  72.033  1.00  0.00     0.000 HD 
BRANCH  11  13
HETATM   13  S   UNL     1      -8.434   3.282  70.789  1.00  0.00    -0.067 S  
HETATM   14  O   UNL     1      -7.572   2.133  70.603  1.00  0.00    -0.036 OA 
HETATM   15  O   UNL     1      -9.234   3.798  69.702  1.00  0.00    -0.119 OA 
HETATM   16  C   UNL     1      -9.487   2.940  72.182  1.00  0.00    -0.128 C  
ENDBRANCH  11  13
ENDBRANCH   6  11
ENDBRANCH   4   5
ENDBRANCH   3   4
ENDBRANCH   2   3
BRANCH   2  17
HETATM   17  C   UNL     1      -8.525  11.700  66.547  1.00  0.00    -0.141 C  
BRANCH  17  18
HETATM   18  C   UNL     1      -9.834  12.268  65.977  1.00  0.00    -0.248 C  
BRANCH  18  19
HETATM   19  O   UNL     1      -9.832  13.695  66.113  1.00  0.00    -0.293 OA 
BRANCH  19  20
HETATM   20  C   UNL     1     -10.617  14.201  67.117  1.00  0.00    -0.278 A  
HETATM   21  C   UNL     1     -10.855  15.558  67.352  1.00  0.00    -0.312 A  
HETATM   22  C   UNL     1     -11.209  13.250  67.951  1.00  0.00    -0.302 A  
HETATM   23  C   UNL     1     -12.211  15.003  69.273  1.00  0.00    -0.179 A  
HETATM   24  C   UNL     1     -12.011  13.646  69.027  1.00  0.00    -0.392 A  
HETATM   25  C   UNL     1     -11.651  15.956  68.428  1.00  0.00    -0.317 A  
BRANCH  23  26
HETATM   26  N   UNL     1     -13.010  15.438  70.369  1.00  0.00    -0.665 N  
HETATM   27  H   UNL     1     -13.736  16.144  70.245  1.00  0.00     0.000 HD 
BRANCH  26  28
HETATM   28  S   UNL     1     -12.713  14.746  71.881  1.00  0.00    -0.346 S  
HETATM   29  O   UNL     1     -13.270  13.415  71.937  1.00  0.00    -0.392 OA 
HETATM   30  C   UNL     1     -13.641  15.820  72.958  1.00  0.00    -0.555 C  
HETATM   31  O   UNL     1     -11.306  14.982  72.139  1.00  0.00    -0.364 OA 
ENDBRANCH  26  28
ENDBRANCH  23  26
ENDBRANCH  19  20
ENDBRANCH  18  19
ENDBRANCH  17  18
ENDBRANCH   2  17
TORSDOF 11
ENDMDL
MODEL      234
REMARK 921   NORMALIZED FREE ENERGY PREDICTED BY IDOCK:   -3.09 KCAL/MOL
REMARK 922        TOTAL FREE ENERGY PREDICTED BY IDOCK:   -6.64 KCAL/MOL
REMARK 923 INTER-LIGAND FREE ENERGY PREDICTED BY IDOCK:   -6.28 KCAL/MOL
REMARK 924 INTRA-LIGAND FREE ENERGY PREDICTED BY IDOCK:   -0.36 KCAL/MOL
REMARK 927      BINDING AFFINITY PREDICTED BY RF-SCORE:    0.00 PKD
ROOT
HETATM    1  C   UNL     1      -8.764  18.423  65.585  1.00  0.00     0.737 C  
HETATM    2  N   UNL     1      -8.796  17.331  66.562  1.00  0.00    -0.251 NA 
ENDROOT
BRANCH   2   3
HETATM    3  C   UNL     1      -7.636  17.388  67.478  1.00  0.00    -0.187 C  
BRANCH   3   4
HETATM    4  C   UNL     1      -7.694  16.452  68.707  1.00  0.00    -0.214 C  
BRANCH   4   5
HETATM    5  C   UNL     1      -9.093  16.202  69.226  1.00  0.00    -0.213 A  
HETATM    6  C   UNL     1     -11.707  15.709  70.108  1.00  0.00    -0.360 A  
HETATM    7  C   UNL     1     -10.099  17.164  69.048  1.00  0.00    -0.297 A  
HETATM    8  C   UNL     1      -9.408  15.007  69.886  1.00  0.00     0.171 A  
HETATM    9  C   UNL     1     -11.402  16.919  69.488  1.00  0.00     0.376 A  
HETATM   10  C   UNL     1     -10.711  14.762  70.326  1.00  0.00    -0.006 A  
BRANCH   6  11
HETATM   11  N   UNL     1     -13.031  15.436  70.554  1.00  0.00    -0.648 N  
HETATM   12  H   UNL     1     -13.810  15.381  69.897  1.00  0.00     0.000 HD 
BRANCH  11  13
HETATM   13  S   UNL     1     -13.266  15.205  72.211  1.00  0.00    -0.424 S  
HETATM   14  O   UNL     1     -14.290  16.157  72.590  1.00  0.00    -0.276 OA 
HETATM   15  O   UNL     1     -11.996  15.161  72.899  1.00  0.00    -0.379 OA 
HETATM   16  C   UNL     1     -14.005  13.586  72.240  1.00  0.00    -0.539 C  
ENDBRANCH  11  13
ENDBRANCH   6  11
ENDBRANCH   4   5
ENDBRANCH   3   4
ENDBRANCH   2   3
BRANCH   2  17
HETATM   17  C   UNL     1      -8.872  16.040  65.840  1.00  0.00    -0.156 C  
BRANCH  17  18
HETATM   18  C   UNL     1     -10.248  15.356  65.890  1.00  0.00    -0.344 C  
BRANCH  18  19
HETATM   19  O   UNL     1     -10.197  14.130  65.151  1.00  0.00    -0.376 OA 
BRANCH  19  20
HETATM   20  C   UNL     1     -10.428  12.987  65.871  1.00  0.00    -0.281 A  
HETATM   21  C   UNL     1     -10.331  11.684  65.377  1.00  0.00    -0.313 A  
HETATM   22  C   UNL     1     -10.790  13.184  67.207  1.00  0.00    -0.270 A  
HETATM   23  C   UNL     1     -11.012  10.801  67.520  1.00  0.00    -0.312 A  
HETATM   24  C   UNL     1     -11.077  12.094  68.035  1.00  0.00    -0.292 A  
HETATM   25  C   UNL     1     -10.621  10.594  66.200  1.00  0.00    -0.211 A  
BRANCH  23  26
HETATM   26  N   UNL     1     -11.312   9.672  68.334  1.00  0.00    -0.502 N  
HETATM   27  H   UNL     1     -12.276   9.420  68.553  1.00  0.00     0.000 HD 
BRANCH  26  28
HETATM   28  S   UNL     1     -10.017   8.763  68.924  1.00  0.00    -0.197 S  
HETATM   29  O   UNL     1      -9.821   7.587  68.110  1.00  0.00    -0.151 OA 
HETATM   30  C   UNL     1     -10.618   8.277  70.529  1.00  0.00    -0.219 C  
HETATM   31  O   UNL     1      -8.945   9.717  69.133  1.00  0.00    -0.142 OA 
ENDBRANCH  26  28
ENDBRANCH  23  26
ENDBRANCH  19  20
ENDBRANCH  18  19
ENDBRANCH  17  18
ENDBRANCH   2  17
TORSDOF 11
ENDMDL
MODEL      235
REMARK 921   NORMALIZED FREE ENERGY PREDICTED BY IDOCK:   -3.06 KCAL/MOL
REMARK 922        TOTAL FREE ENERGY PREDICTED BY IDOCK:   -6.60 KCAL/MOL
REMARK 923 INTER-LIGAND FREE ENERGY PREDICTED BY IDOCK:   -6.66 KCAL/MOL
REMARK 924 INTRA-LIGAND FREE ENERGY PREDICTED BY IDOCK:    0.06 KCAL/MOL
REMARK 927      BINDING AFFINITY PREDICTED BY RF-SCORE:    0.00 PKD
ROOT
HETATM    1  C   UNL     1     -12.504  14.017  65.163  1.00  0.00    -0.452 C  
HETATM    2  N   UNL     1     -11.519  13.444  66.086  1.00  0.00    -0.318 NA 
ENDROOT
BRANCH   2   3
HETATM    3  C   UNL     1     -10.525  14.453  66.513  1.00  0.00    -0.289 C  
BRANCH   3   4
HETATM    4  C   UNL     1     -10.935  15.932  66.326  1.00  0.00    -0.112 C  
BRANCH   4   5
HETATM    5  C   UNL     1     -10.037  16.915  67.043  1.00  0.00    -0.289 A  
HETATM    6  C   UNL     1      -8.304  18.682  68.357  1.00  0.00    -0.334 A  
HETATM    7  C   UNL     1      -9.774  16.769  68.413  1.00  0.00    -0.247 A  
HETATM    8  C   UNL     1      -9.448  17.981  66.350  1.00  0.00    -0.280 A  
HETATM    9  C   UNL     1      -8.912  17.651  69.070  1.00  0.00    -0.023 A  
HETATM   10  C   UNL     1      -8.585  18.862  67.006  1.00  0.00    -0.301 A  
BRANCH   6  11
HETATM   11  N   UNL     1      -7.413  19.585  69.005  1.00  0.00    -0.367 N  
HETATM   12  H   UNL     1      -7.680  20.552  69.187  1.00  0.00     0.000 HD 
BRANCH  11  13
HETATM   13  S   UNL     1      -5.896  18.995  69.459  1.00  0.00    -0.246 S  
HETATM   14  O   UNL     1      -6.148  17.689  70.033  1.00  0.00    -0.232 OA 
HETATM   15  O   UNL     1      -5.163  20.002  70.191  1.00  0.00    -0.203 OA 
HETATM   16  C   UNL     1      -5.126  18.743  67.875  1.00  0.00    -0.168 C  
ENDBRANCH  11  13
ENDBRANCH   6  11
ENDBRANCH   4   5
ENDBRANCH   3   4
ENDBRANCH   2   3
BRANCH   2  17
HETATM   17  C   UNL     1     -10.882  12.272  65.443  1.00  0.00    -0.286 C  
BRANCH  17  18
HETATM   18  C   UNL     1     -10.751  11.036  66.348  1.00  0.00    -0.227 C  
BRANCH  18  19
HETATM   19  O   UNL     1      -9.652  10.234  65.900  1.00  0.00    -0.183 OA 
BRANCH  19  20
HETATM   20  C   UNL     1      -9.758   8.888  66.139  1.00  0.00    -0.268 A  
HETATM   21  C   UNL     1     -10.775   8.273  66.874  1.00  0.00    -0.179 A  
HETATM   22  C   UNL     1      -8.747   8.100  65.584  1.00  0.00    -0.176 A  
HETATM   23  C   UNL     1      -9.733   6.119  66.548  1.00  0.00    -0.145 A  
HETATM   24  C   UNL     1      -8.733   6.715  65.782  1.00  0.00    -0.126 A  
HETATM   25  C   UNL     1     -10.762   6.892  67.076  1.00  0.00    -0.432 A  
BRANCH  23  26
HETATM   26  N   UNL     1      -9.739   4.713  66.779  1.00  0.00    -0.181 N  
HETATM   27  H   UNL     1     -10.038   4.060  66.055  1.00  0.00     0.000 HD 
BRANCH  26  28
HETATM   28  S   UNL     1      -9.233   4.165  68.294  1.00  0.00    -0.155 S  
HETATM   29  O   UNL     1     -10.060   4.736  69.332  1.00  0.00    -0.218 OA 
HETATM   30  C   UNL     1      -7.594   4.854  68.400  1.00  0.00    -0.078 C  
HETATM   31  O   UNL     1      -9.093   2.729  68.153  1.00  0.00    -0.140 OA 
ENDBRANCH  26  28
ENDBRANCH  23  26
ENDBRANCH  19  20
ENDBRANCH  18  19
ENDBRANCH  17  18
ENDBRANCH   2  17
TORSDOF 11
ENDMDL
MODEL      236
REMARK 921   NORMALIZED FREE ENERGY PREDICTED BY IDOCK:   -3.06 KCAL/MOL
REMARK 922        TOTAL FREE ENERGY PREDICTED BY IDOCK:   -6.60 KCAL/MOL
REMARK 923 INTER-LIGAND FREE ENERGY PREDICTED BY IDOCK:   -6.76 KCAL/MOL
REMARK 924 INTRA-LIGAND FREE ENERGY PREDICTED BY IDOCK:    0.17 KCAL/MOL
REMARK 927      BINDING AFFINITY PREDICTED BY RF-SCORE:    0.00 PKD
ROOT
HETATM    1  C   UNL     1      -7.248  10.808  68.698  1.00  0.00    -0.089 C  
HETATM    2  N   UNL     1      -8.226  10.573  67.631  1.00  0.00    -0.111 NA 
ENDROOT
BRANCH   2   3
HETATM    3  C   UNL     1      -9.548  11.141  67.973  1.00  0.00    -0.176 C  
BRANCH   3   4
HETATM    4  C   UNL     1     -10.502  11.405  66.785  1.00  0.00    -0.284 C  
BRANCH   4   5
HETATM    5  C   UNL     1     -10.561  12.853  66.352  1.00  0.00    -0.285 A  
HETATM    6  C   UNL     1     -10.717  15.555  65.626  1.00  0.00    -0.366 A  
HETATM    7  C   UNL     1     -11.682  13.343  65.665  1.00  0.00    -0.374 A  
HETATM    8  C   UNL     1      -9.505  13.729  66.636  1.00  0.00    -0.289 A  
HETATM    9  C   UNL     1     -11.759  14.690  65.301  1.00  0.00    -0.346 A  
HETATM   10  C   UNL     1      -9.582  15.075  66.273  1.00  0.00    -0.335 A  
BRANCH   6  11
HETATM   11  N   UNL     1     -10.781  16.934  65.274  1.00  0.00    -0.241 N  
HETATM   12  H   UNL     1     -11.231  17.239  64.411  1.00  0.00     0.000 HD 
BRANCH  11  13
HETATM   13  S   UNL     1     -10.086  18.046  66.340  1.00  0.00    -0.382 S  
HETATM   14  O   UNL     1     -10.713  19.316  66.033  1.00  0.00    -0.442 OA 
HETATM   15  O   UNL     1      -8.647  17.906  66.346  1.00  0.00    -0.294 OA 
HETATM   16  C   UNL     1     -10.736  17.493  67.901  1.00  0.00    -0.339 C  
ENDBRANCH  11  13
ENDBRANCH   6  11
ENDBRANCH   4   5
ENDBRANCH   3   4
ENDBRANCH   2   3
BRANCH   2  17
HETATM   17  C   UNL     1      -8.299   9.119  67.356  1.00  0.00    -0.115 C  
BRANCH  17  18
HETATM   18  C   UNL     1      -9.249   8.339  68.278  1.00  0.00    -0.134 C  
BRANCH  18  19
HETATM   19  O   UNL     1      -8.514   7.834  69.399  1.00  0.00    -0.131 OA 
BRANCH  19  20
HETATM   20  C   UNL     1      -9.210   7.015  70.251  1.00  0.00    -0.156 A  
HETATM   21  C   UNL     1     -10.544   6.629  70.093  1.00  0.00    -0.264 A  
HETATM   22  C   UNL     1      -8.491   6.550  71.355  1.00  0.00    -0.125 A  
HETATM   23  C   UNL     1     -10.444   5.380  72.159  1.00  0.00    -0.218 A  
HETATM   24  C   UNL     1      -9.103   5.728  72.308  1.00  0.00    -0.145 A  
HETATM   25  C   UNL     1     -11.157   5.812  71.045  1.00  0.00    -0.264 A  
BRANCH  23  26
HETATM   26  N   UNL     1     -11.098   4.557  73.119  1.00  0.00    -0.265 N  
HETATM   27  H   UNL     1     -11.788   4.944  73.763  1.00  0.00     0.000 HD 
BRANCH  26  28
HETATM   28  S   UNL     1     -10.692   2.918  73.155  1.00  0.00    -0.132 S  
HETATM   29  O   UNL     1     -11.823   2.134  73.595  1.00  0.00    -0.213 OA 
HETATM   30  C   UNL     1      -9.428   2.886  74.410  1.00  0.00    -0.087 C  
HETATM   31  O   UNL     1     -10.048   2.657  71.883  1.00  0.00    -0.160 OA 
ENDBRANCH  26  28
ENDBRANCH  23  26
ENDBRANCH  19  20
ENDBRANCH  18  19
ENDBRANCH  17  18
ENDBRANCH   2  17
TORSDOF 11
ENDMDL
MODEL      237
REMARK 921   NORMALIZED FREE ENERGY PREDICTED BY IDOCK:   -3.06 KCAL/MOL
REMARK 922        TOTAL FREE ENERGY PREDICTED BY IDOCK:   -6.58 KCAL/MOL
REMARK 923 INTER-LIGAND FREE ENERGY PREDICTED BY IDOCK:   -5.58 KCAL/MOL
REMARK 924 INTRA-LIGAND FREE ENERGY PREDICTED BY IDOCK:   -1.00 KCAL/MOL
REMARK 927      BINDING AFFINITY PREDICTED BY RF-SCORE:    0.00 PKD
ROOT
HETATM    1  C   UNL     1      -7.525   5.413  67.960  1.00  0.00    -0.077 C  
HETATM    2  N   UNL     1      -6.821   6.680  68.184  1.00  0.00    -0.072 NA 
ENDROOT
BRANCH   2   3
HETATM    3  C   UNL     1      -6.320   7.254  66.917  1.00  0.00    -0.051 C  
BRANCH   3   4
HETATM    4  C   UNL     1      -6.234   8.796  66.856  1.00  0.00    -0.059 C  
BRANCH   4   5
HETATM    5  C   UNL     1      -7.494   9.464  66.354  1.00  0.00    -0.093 A  
HETATM    6  C   UNL     1      -9.795  10.704  65.342  1.00  0.00    -0.267 A  
HETATM    7  C   UNL     1      -7.568  10.862  66.261  1.00  0.00    -0.136 A  
HETATM    8  C   UNL     1      -8.604   8.700  65.968  1.00  0.00    -0.173 A  
HETATM    9  C   UNL     1      -8.715  11.481  65.758  1.00  0.00    -0.007 A  
HETATM   10  C   UNL     1      -9.750   9.318  65.465  1.00  0.00    -0.247 A  
BRANCH   6  11
HETATM   11  N   UNL     1     -10.969  11.315  64.816  1.00  0.00    -0.243 N  
HETATM   12  H   UNL     1     -11.373  11.007  63.931  1.00  0.00     0.000 HD 
BRANCH  11  13
HETATM   13  S   UNL     1     -11.667  12.567  65.710  1.00  0.00    -0.431 S  
HETATM   14  O   UNL     1     -13.004  12.722  65.173  1.00  0.00    -0.768 OA 
HETATM   15  O   UNL     1     -10.762  13.690  65.795  1.00  0.00    -0.273 OA 
HETATM   16  C   UNL     1     -11.820  11.812  67.314  1.00  0.00    -0.108 C  
ENDBRANCH  11  13
ENDBRANCH   6  11
ENDBRANCH   4   5
ENDBRANCH   3   4
ENDBRANCH   2   3
BRANCH   2  17
HETATM   17  C   UNL     1      -5.733   6.460  69.166  1.00  0.00    -0.017 C  
BRANCH  17  18
HETATM   18  C   UNL     1      -5.860   7.283  70.458  1.00  0.00    -0.027 C  
BRANCH  18  19
HETATM   19  O   UNL     1      -6.463   8.547  70.159  1.00  0.00    -0.037 OA 
BRANCH  19  20
HETATM   20  C   UNL     1      -7.751   8.715  70.600  1.00  0.00    -0.086 A  
HETATM   21  C   UNL     1      -8.758   9.402  69.917  1.00  0.00    -0.209 A  
HETATM   22  C   UNL     1      -8.039   8.135  71.838  1.00  0.00    -0.170 A  
HETATM   23  C   UNL     1     -10.297   8.981  71.730  1.00  0.00    -0.337 A  
HETATM   24  C   UNL     1      -9.312   8.262  72.404  1.00  0.00    -0.338 A  
HETATM   25  C   UNL     1     -10.028   9.533  70.481  1.00  0.00    -0.335 A  
BRANCH  23  26
HETATM   26  N   UNL     1     -11.599   9.139  72.287  1.00  0.00    -0.210 N  
HETATM   27  H   UNL     1     -11.727   9.376  73.270  1.00  0.00     0.000 HD 
BRANCH  26  28
HETATM   28  S   UNL     1     -12.923   8.922  71.261  1.00  0.00    -0.149 S  
HETATM   29  O   UNL     1     -13.066  10.060  70.384  1.00  0.00    -0.163 OA 
HETATM   30  C   UNL     1     -14.277   8.896  72.419  1.00  0.00    -0.374 C  
HETATM   31  O   UNL     1     -12.779   7.580  70.732  1.00  0.00    -0.123 OA 
ENDBRANCH  26  28
ENDBRANCH  23  26
ENDBRANCH  19  20
ENDBRANCH  18  19
ENDBRANCH  17  18
ENDBRANCH   2  17
TORSDOF 11
ENDMDL
MODEL      238
REMARK 921   NORMALIZED FREE ENERGY PREDICTED BY IDOCK:   -3.05 KCAL/MOL
REMARK 922        TOTAL FREE ENERGY PREDICTED BY IDOCK:   -6.58 KCAL/MOL
REMARK 923 INTER-LIGAND FREE ENERGY PREDICTED BY IDOCK:   -6.96 KCAL/MOL
REMARK 924 INTRA-LIGAND FREE ENERGY PREDICTED BY IDOCK:    0.39 KCAL/MOL
REMARK 927      BINDING AFFINITY PREDICTED BY RF-SCORE:    0.00 PKD
ROOT
HETATM    1  C   UNL     1      -9.230  13.056  67.775  1.00  0.00    -0.200 C  
HETATM    2  N   UNL     1      -9.221  12.964  66.311  1.00  0.00    -0.142 NA 
ENDROOT
BRANCH   2   3
HETATM    3  C   UNL     1     -10.227  13.864  65.706  1.00  0.00    -0.318 C  
BRANCH   3   4
HETATM    4  C   UNL     1     -11.105  14.664  66.695  1.00  0.00    -0.334 C  
BRANCH   4   5
HETATM    5  C   UNL     1     -10.468  15.944  67.189  1.00  0.00    -0.313 A  
HETATM    6  C   UNL     1      -9.369  18.350  68.113  1.00  0.00    -0.317 A  
HETATM    7  C   UNL     1     -10.211  16.998  66.300  1.00  0.00    -0.336 A  
HETATM    8  C   UNL     1     -10.132  16.100  68.540  1.00  0.00    -0.241 A  
HETATM    9  C   UNL     1      -9.662  18.198  66.760  1.00  0.00    -0.324 A  
HETATM   10  C   UNL     1      -9.583  17.299  69.000  1.00  0.00    -0.171 A  
BRANCH   6  11
HETATM   11  N   UNL     1      -8.819  19.568  68.605  1.00  0.00    -0.364 N  
HETATM   12  H   UNL     1      -9.414  20.289  69.014  1.00  0.00     0.000 HD 
BRANCH  11  13
HETATM   13  S   UNL     1      -7.147  19.776  68.485  1.00  0.00    -0.310 S  
HETATM   14  O   UNL     1      -6.699  20.072  69.831  1.00  0.00    -0.336 OA 
HETATM   15  O   UNL     1      -6.825  20.653  67.383  1.00  0.00    -0.286 OA 
HETATM   16  C   UNL     1      -6.613  18.124  68.096  1.00  0.00    -0.201 C  
ENDBRANCH  11  13
ENDBRANCH   6  11
ENDBRANCH   4   5
ENDBRANCH   3   4
ENDBRANCH   2   3
BRANCH   2  17
HETATM   17  C   UNL     1      -9.428  11.552  65.916  1.00  0.00    -0.230 C  
BRANCH  17  18
HETATM   18  C   UNL     1     -10.710  10.911  66.470  1.00  0.00    -0.209 C  
BRANCH  18  19
HETATM   19  O   UNL     1     -10.433   9.564  66.871  1.00  0.00    -0.240 OA 
BRANCH  19  20
HETATM   20  C   UNL     1     -10.187   9.375  68.206  1.00  0.00    -0.196 A  
HETATM   21  C   UNL     1     -10.653  10.193  69.239  1.00  0.00    -0.254 A  
HETATM   22  C   UNL     1      -9.401   8.263  68.519  1.00  0.00    -0.138 A  
HETATM   23  C   UNL     1      -9.500   8.827  70.864  1.00  0.00    -0.216 A  
HETATM   24  C   UNL     1      -9.060   7.983  69.847  1.00  0.00    -0.145 A  
HETATM   25  C   UNL     1     -10.311   9.918  70.564  1.00  0.00    -0.298 A  
BRANCH  23  26
HETATM   26  N   UNL     1      -9.158   8.576  72.224  1.00  0.00    -0.245 N  
HETATM   27  H   UNL     1      -9.861   8.621  72.962  1.00  0.00     0.000 HD 
BRANCH  26  28
HETATM   28  S   UNL     1      -7.549   8.201  72.572  1.00  0.00    -0.117 S  
HETATM   29  O   UNL     1      -7.169   6.974  71.912  1.00  0.00    -0.079 OA 
HETATM   30  C   UNL     1      -7.613   7.930  74.331  1.00  0.00    -0.191 C  
HETATM   31  O   UNL     1      -6.814   9.430  72.348  1.00  0.00    -0.211 OA 
ENDBRANCH  26  28
ENDBRANCH  23  26
ENDBRANCH  19  20
ENDBRANCH  18  19
ENDBRANCH  17  18
ENDBRANCH   2  17
TORSDOF 11
ENDMDL
MODEL      239
REMARK 921   NORMALIZED FREE ENERGY PREDICTED BY IDOCK:   -3.05 KCAL/MOL
REMARK 922        TOTAL FREE ENERGY PREDICTED BY IDOCK:   -6.57 KCAL/MOL
REMARK 923 INTER-LIGAND FREE ENERGY PREDICTED BY IDOCK:   -6.28 KCAL/MOL
REMARK 924 INTRA-LIGAND FREE ENERGY PREDICTED BY IDOCK:   -0.29 KCAL/MOL
REMARK 927      BINDING AFFINITY PREDICTED BY RF-SCORE:    0.00 PKD
ROOT
HETATM    1  C   UNL     1      -6.809  10.732  67.860  1.00  0.00    -0.072 C  
HETATM    2  N   UNL     1      -7.986  10.519  67.012  1.00  0.00    -0.116 NA 
ENDROOT
BRANCH   2   3
HETATM    3  C   UNL     1      -9.151  11.289  67.498  1.00  0.00    -0.151 C  
BRANCH   3   4
HETATM    4  C   UNL     1      -9.792  12.263  66.483  1.00  0.00    -0.240 C  
BRANCH   4   5
HETATM    5  C   UNL     1      -9.328  13.695  66.627  1.00  0.00    -0.265 A  
HETATM    6  C   UNL     1      -8.401  16.332  66.836  1.00  0.00    -0.232 A  
HETATM    7  C   UNL     1      -8.336  14.030  67.560  1.00  0.00    -0.200 A  
HETATM    8  C   UNL     1      -9.874  14.708  65.827  1.00  0.00    -0.359 A  
HETATM    9  C   UNL     1      -7.874  15.344  67.666  1.00  0.00    -0.175 A  
HETATM   10  C   UNL     1      -9.412  16.021  65.932  1.00  0.00    -0.351 A  
BRANCH   6  11
HETATM   11  N   UNL     1      -7.936  17.675  66.920  1.00  0.00    -0.215 N  
HETATM   12  H   UNL     1      -7.041  17.951  66.516  1.00  0.00     0.000 HD 
BRANCH  11  13
HETATM   13  S   UNL     1      -8.921  18.795  67.713  1.00  0.00    -0.291 S  
HETATM   14  O   UNL     1      -8.014  19.776  68.274  1.00  0.00    -0.321 OA 
HETATM   15  O   UNL     1      -9.890  18.116  68.543  1.00  0.00    -0.343 OA 
HETATM   16  C   UNL     1      -9.757  19.563  66.343  1.00  0.00    -0.401 C  
ENDBRANCH  11  13
ENDBRANCH   6  11
ENDBRANCH   4   5
ENDBRANCH   3   4
ENDBRANCH   2   3
BRANCH   2  17
HETATM   17  C   UNL     1      -8.269   9.067  66.937  1.00  0.00    -0.116 C  
BRANCH  17  18
HETATM   18  C   UNL     1      -9.304   8.562  67.955  1.00  0.00    -0.135 C  
BRANCH  18  19
HETATM   19  O   UNL     1      -8.673   8.398  69.231  1.00  0.00    -0.135 OA 
BRANCH  19  20
HETATM   20  C   UNL     1      -9.345   7.613  70.134  1.00  0.00    -0.157 A  
HETATM   21  C   UNL     1     -10.588   7.014  69.918  1.00  0.00    -0.249 A  
HETATM   22  C   UNL     1      -8.698   7.422  71.357  1.00  0.00    -0.127 A  
HETATM   23  C   UNL     1     -10.554   6.099  72.153  1.00  0.00    -0.209 A  
HETATM   24  C   UNL     1      -9.297   6.662  72.368  1.00  0.00    -0.147 A  
HETATM   25  C   UNL     1     -11.190   6.258  70.926  1.00  0.00    -0.386 A  
BRANCH  23  26
HETATM   26  N   UNL     1     -11.196   5.332  73.167  1.00  0.00    -0.362 N  
HETATM   27  H   UNL     1     -11.954   5.724  73.726  1.00  0.00     0.000 HD 
BRANCH  26  28
HETATM   28  S   UNL     1     -10.659   3.750  73.413  1.00  0.00    -0.210 S  
HETATM   29  O   UNL     1      -9.611   3.728  74.406  1.00  0.00    -0.102 OA 
HETATM   30  C   UNL     1      -9.969   3.351  71.819  1.00  0.00    -0.124 C  
HETATM   31  O   UNL     1     -11.863   2.959  73.575  1.00  0.00    -0.092 OA 
ENDBRANCH  26  28
ENDBRANCH  23  26
ENDBRANCH  19  20
ENDBRANCH  18  19
ENDBRANCH  17  18
ENDBRANCH   2  17
TORSDOF 11
ENDMDL
MODEL      240
REMARK 921   NORMALIZED FREE ENERGY PREDICTED BY IDOCK:   -3.05 KCAL/MOL
REMARK 922        TOTAL FREE ENERGY PREDICTED BY IDOCK:   -6.57 KCAL/MOL
REMARK 923 INTER-LIGAND FREE ENERGY PREDICTED BY IDOCK:   -5.02 KCAL/MOL
REMARK 924 INTRA-LIGAND FREE ENERGY PREDICTED BY IDOCK:   -1.54 KCAL/MOL
REMARK 927      BINDING AFFINITY PREDICTED BY RF-SCORE:    0.00 PKD
ROOT
HETATM    1  C   UNL     1      -5.705   3.281  71.381  1.00  0.00    -0.013 C  
HETATM    2  N   UNL     1      -6.640   3.813  72.377  1.00  0.00    -0.017 NA 
ENDROOT
BRANCH   2   3
HETATM    3  C   UNL     1      -6.026   4.899  73.171  1.00  0.00    -0.025 C  
BRANCH   3   4
HETATM    4  C   UNL     1      -6.851   5.412  74.373  1.00  0.00    -0.077 C  
BRANCH   4   5
HETATM    5  C   UNL     1      -8.161   6.063  73.988  1.00  0.00    -0.106 A  
HETATM    6  C   UNL     1     -10.590   7.309  73.355  1.00  0.00    -0.389 A  
HETATM    7  C   UNL     1      -9.381   5.468  74.342  1.00  0.00    -0.133 A  
HETATM    8  C   UNL     1      -8.178   7.272  73.279  1.00  0.00    -0.136 A  
HETATM    9  C   UNL     1     -10.593   6.088  74.025  1.00  0.00    -0.200 A  
HETATM   10  C   UNL     1      -9.389   7.892  72.963  1.00  0.00    -0.329 A  
BRANCH   6  11
HETATM   11  N   UNL     1     -11.814   7.962  73.032  1.00  0.00    -0.572 N  
HETATM   12  H   UNL     1     -12.181   8.714  73.616  1.00  0.00     0.000 HD 
BRANCH  11  13
HETATM   13  S   UNL     1     -12.634   7.449  71.648  1.00  0.00    -0.363 S  
HETATM   14  O   UNL     1     -13.215   6.168  71.998  1.00  0.00     0.098 OA 
HETATM   15  O   UNL     1     -11.793   7.592  70.481  1.00  0.00    -0.232 OA 
HETATM   16  C   UNL     1     -13.960   8.632  71.564  1.00  0.00    -0.348 C  
ENDBRANCH  11  13
ENDBRANCH   6  11
ENDBRANCH   4   5
ENDBRANCH   3   4
ENDBRANCH   2   3
BRANCH   2  17
HETATM   17  C   UNL     1      -7.119   2.701  73.231  1.00  0.00    -0.036 C  
BRANCH  17  18
HETATM   18  C   UNL     1      -8.238   1.851  72.608  1.00  0.00    -0.054 C  
BRANCH  18  19
HETATM   19  O   UNL     1      -9.359   2.691  72.306  1.00  0.00    -0.087 OA 
BRANCH  19  20
HETATM   20  C   UNL     1      -9.493   3.059  70.991  1.00  0.00    -0.158 A  
HETATM   21  C   UNL     1      -9.273   2.226  69.891  1.00  0.00    -0.189 A  
HETATM   22  C   UNL     1      -9.884   4.383  70.777  1.00  0.00    -0.273 A  
HETATM   23  C   UNL     1      -9.770   4.052  68.389  1.00  0.00    -0.066 A  
HETATM   24  C   UNL     1     -10.028   4.881  69.478  1.00  0.00    -0.295 A  
HETATM   25  C   UNL     1      -9.413   2.722  68.593  1.00  0.00    -0.191 A  
BRANCH  23  26
HETATM   26  N   UNL     1      -9.894   4.534  67.055  1.00  0.00    -0.205 N  
HETATM   27  H   UNL     1     -10.415   4.011  66.351  1.00  0.00     0.000 HD 
BRANCH  26  28
HETATM   28  S   UNL     1      -9.149   6.002  66.678  1.00  0.00    -0.140 S  
HETATM   29  O   UNL     1      -8.005   6.214  67.532  1.00  0.00    -0.104 OA 
HETATM   30  C   UNL     1     -10.425   7.173  67.099  1.00  0.00    -0.319 C  
HETATM   31  O   UNL     1      -9.018   6.004  65.234  1.00  0.00    -0.065 OA 
ENDBRANCH  26  28
ENDBRANCH  23  26
ENDBRANCH  19  20
ENDBRANCH  18  19
ENDBRANCH  17  18
ENDBRANCH   2  17
TORSDOF 11
ENDMDL
MODEL      241
REMARK 921   NORMALIZED FREE ENERGY PREDICTED BY IDOCK:   -3.04 KCAL/MOL
REMARK 922        TOTAL FREE ENERGY PREDICTED BY IDOCK:   -6.55 KCAL/MOL
REMARK 923 INTER-LIGAND FREE ENERGY PREDICTED BY IDOCK:   -6.28 KCAL/MOL
REMARK 924 INTRA-LIGAND FREE ENERGY PREDICTED BY IDOCK:   -0.27 KCAL/MOL
REMARK 927      BINDING AFFINITY PREDICTED BY RF-SCORE:    0.00 PKD
ROOT
HETATM    1  C   UNL     1      -9.018  11.031  68.922  1.00  0.00    -0.115 C  
HETATM    2  N   UNL     1      -8.034  11.954  68.349  1.00  0.00    -0.150 NA 
ENDROOT
BRANCH   2   3
HETATM    3  C   UNL     1      -8.353  12.282  66.943  1.00  0.00    -0.137 C  
BRANCH   3   4
HETATM    4  C   UNL     1      -9.657  13.079  66.710  1.00  0.00    -0.248 C  
BRANCH   4   5
HETATM    5  C   UNL     1      -9.568  14.536  67.109  1.00  0.00    -0.233 A  
HETATM    6  C   UNL     1      -9.426  17.256  67.765  1.00  0.00    -0.255 A  
HETATM    7  C   UNL     1      -8.384  15.259  66.899  1.00  0.00    -0.278 A  
HETATM    8  C   UNL     1     -10.666  15.187  67.686  1.00  0.00    -0.285 A  
HETATM    9  C   UNL     1      -8.312  16.615  67.227  1.00  0.00    -0.198 A  
HETATM   10  C   UNL     1     -10.595  16.543  68.013  1.00  0.00    -0.328 A  
BRANCH   6  11
HETATM   11  N   UNL     1      -9.378  18.641  68.095  1.00  0.00    -0.307 N  
HETATM   12  H   UNL     1      -9.340  18.951  69.066  1.00  0.00     0.000 HD 
BRANCH  11  13
HETATM   13  S   UNL     1      -9.384  19.750  66.821  1.00  0.00    -0.400 S  
HETATM   14  O   UNL     1      -8.172  19.484  66.073  1.00  0.00    -0.342 OA 
HETATM   15  O   UNL     1      -9.683  21.077  67.309  1.00  0.00    -0.412 OA 
HETATM   16  C   UNL     1     -10.753  19.160  65.847  1.00  0.00    -0.351 C  
ENDBRANCH  11  13
ENDBRANCH   6  11
ENDBRANCH   4   5
ENDBRANCH   3   4
ENDBRANCH   2   3
BRANCH   2  17
HETATM   17  C   UNL     1      -6.682  11.366  68.491  1.00  0.00    -0.069 C  
BRANCH  17  18
HETATM   18  C   UNL     1      -6.356  10.840  69.898  1.00  0.00    -0.118 C  
BRANCH  18  19
HETATM   19  O   UNL     1      -5.933   9.474  69.809  1.00  0.00    -0.035 OA 
BRANCH  19  20
HETATM   20  C   UNL     1      -6.754   8.554  70.408  1.00  0.00    -0.037 A  
HETATM   21  C   UNL     1      -7.462   7.547  69.745  1.00  0.00    -0.091 A  
HETATM   22  C   UNL     1      -6.866   8.665  71.796  1.00  0.00    -0.087 A  
HETATM   23  C   UNL     1      -8.425   6.822  71.838  1.00  0.00    -0.116 A  
HETATM   24  C   UNL     1      -7.697   7.798  72.515  1.00  0.00    -0.128 A  
HETATM   25  C   UNL     1      -8.294   6.684  70.460  1.00  0.00    -0.130 A  
BRANCH  23  26
HETATM   26  N   UNL     1      -9.289   5.934  72.540  1.00  0.00    -0.142 N  
HETATM   27  H   UNL     1      -8.919   5.244  73.193  1.00  0.00     0.000 HD 
BRANCH  26  28
HETATM   28  S   UNL     1     -10.949   6.064  72.254  1.00  0.00    -0.279 S  
HETATM   29  O   UNL     1     -11.219   5.972  70.839  1.00  0.00    -0.299 OA 
HETATM   30  C   UNL     1     -11.283   7.723  72.812  1.00  0.00    -0.398 C  
HETATM   31  O   UNL     1     -11.570   5.155  73.197  1.00  0.00    -0.316 OA 
ENDBRANCH  26  28
ENDBRANCH  23  26
ENDBRANCH  19  20
ENDBRANCH  18  19
ENDBRANCH  17  18
ENDBRANCH   2  17
TORSDOF 11
ENDMDL
MODEL      242
REMARK 921   NORMALIZED FREE ENERGY PREDICTED BY IDOCK:   -3.03 KCAL/MOL
REMARK 922        TOTAL FREE ENERGY PREDICTED BY IDOCK:   -6.54 KCAL/MOL
REMARK 923 INTER-LIGAND FREE ENERGY PREDICTED BY IDOCK:   -5.23 KCAL/MOL
REMARK 924 INTRA-LIGAND FREE ENERGY PREDICTED BY IDOCK:   -1.31 KCAL/MOL
REMARK 927      BINDING AFFINITY PREDICTED BY RF-SCORE:    0.00 PKD
ROOT
HETATM    1  C   UNL     1     -12.885  15.253  65.264  1.00  0.00     0.799 C  
HETATM    2  N   UNL     1     -11.824  14.417  65.835  1.00  0.00    -0.374 NA 
ENDROOT
BRANCH   2   3
HETATM    3  C   UNL     1     -11.921  13.019  65.362  1.00  0.00    -0.414 C  
BRANCH   3   4
HETATM    4  C   UNL     1     -11.208  12.702  64.028  1.00  0.00    -0.459 C  
BRANCH   4   5
HETATM    5  C   UNL     1     -10.334  11.469  64.074  1.00  0.00    -0.406 A  
HETATM    6  C   UNL     1      -8.785   9.135  64.138  1.00  0.00    -0.141 A  
HETATM    7  C   UNL     1     -10.277  10.683  65.235  1.00  0.00    -0.351 A  
HETATM    8  C   UNL     1      -9.574  11.088  62.960  1.00  0.00    -0.386 A  
HETATM    9  C   UNL     1      -9.503   9.519  65.268  1.00  0.00    -0.326 A  
HETATM   10  C   UNL     1      -8.802   9.925  62.993  1.00  0.00    -0.251 A  
BRANCH   6  11
HETATM   11  N   UNL     1      -8.000   7.946  64.146  1.00  0.00    -0.186 N  
HETATM   12  H   UNL     1      -7.980   7.320  63.342  1.00  0.00     0.000 HD 
BRANCH  11  13
HETATM   13  S   UNL     1      -7.101   7.613  65.538  1.00  0.00    -0.065 S  
HETATM   14  O   UNL     1      -7.765   6.487  66.163  1.00  0.00    -0.088 OA 
HETATM   15  O   UNL     1      -6.842   8.829  66.274  1.00  0.00    -0.072 OA 
HETATM   16  C   UNL     1      -5.578   7.013  64.839  1.00  0.00    -0.032 C  
ENDBRANCH  11  13
ENDBRANCH   6  11
ENDBRANCH   4   5
ENDBRANCH   3   4
ENDBRANCH   2   3
BRANCH   2  17
HETATM   17  C   UNL     1     -11.879  14.510  67.313  1.00  0.00    -0.392 C  
BRANCH  17  18
HETATM   18  C   UNL     1     -10.779  15.380  67.942  1.00  0.00    -0.286 C  
BRANCH  18  19
HETATM   19  O   UNL     1      -9.572  15.243  67.181  1.00  0.00    -0.212 OA 
BRANCH  19  20
HETATM   20  C   UNL     1      -8.642  14.372  67.686  1.00  0.00    -0.185 A  
HETATM   21  C   UNL     1      -7.755  14.649  68.730  1.00  0.00    -0.137 A  
HETATM   22  C   UNL     1      -8.611  13.113  67.081  1.00  0.00    -0.194 A  
HETATM   23  C   UNL     1      -6.782  12.449  68.510  1.00  0.00    -0.077 A  
HETATM   24  C   UNL     1      -7.686  12.147  67.493  1.00  0.00    -0.159 A  
HETATM   25  C   UNL     1      -6.829  13.689  69.140  1.00  0.00    -0.095 A  
BRANCH  23  26
HETATM   26  N   UNL     1      -5.819  11.493  68.942  1.00  0.00    -0.047 N  
HETATM   27  H   UNL     1      -4.944  11.359  68.436  1.00  0.00     0.000 HD 
BRANCH  26  28
HETATM   28  S   UNL     1      -6.178  10.586  70.321  1.00  0.00    -0.133 S  
HETATM   29  O   UNL     1      -5.537  11.165  71.479  1.00  0.00    -0.353 OA 
HETATM   30  C   UNL     1      -5.408   9.026  69.939  1.00  0.00    -0.029 C  
HETATM   31  O   UNL     1      -7.613  10.384  70.282  1.00  0.00    -0.180 OA 
ENDBRANCH  26  28
ENDBRANCH  23  26
ENDBRANCH  19  20
ENDBRANCH  18  19
ENDBRANCH  17  18
ENDBRANCH   2  17
TORSDOF 11
ENDMDL
MODEL      243
REMARK 921   NORMALIZED FREE ENERGY PREDICTED BY IDOCK:   -3.03 KCAL/MOL
REMARK 922        TOTAL FREE ENERGY PREDICTED BY IDOCK:   -6.54 KCAL/MOL
REMARK 923 INTER-LIGAND FREE ENERGY PREDICTED BY IDOCK:   -5.08 KCAL/MOL
REMARK 924 INTRA-LIGAND FREE ENERGY PREDICTED BY IDOCK:   -1.46 KCAL/MOL
REMARK 927      BINDING AFFINITY PREDICTED BY RF-SCORE:    0.00 PKD
ROOT
HETATM    1  C   UNL     1      -6.402   3.000  71.165  1.00  0.00    -0.019 C  
HETATM    2  N   UNL     1      -6.359   3.961  70.058  1.00  0.00    -0.027 NA 
ENDROOT
BRANCH   2   3
HETATM    3  C   UNL     1      -6.779   5.311  70.494  1.00  0.00    -0.040 C  
BRANCH   3   4
HETATM    4  C   UNL     1      -5.702   6.417  70.411  1.00  0.00    -0.019 C  
BRANCH   4   5
HETATM    5  C   UNL     1      -6.258   7.800  70.156  1.00  0.00    -0.033 A  
HETATM    6  C   UNL     1      -7.327  10.332  69.610  1.00  0.00    -0.150 A  
HETATM    7  C   UNL     1      -5.579   8.695  69.316  1.00  0.00    -0.035 A  
HETATM    8  C   UNL     1      -7.461   8.207  70.748  1.00  0.00    -0.066 A  
HETATM    9  C   UNL     1      -6.110   9.958  69.044  1.00  0.00    -0.040 A  
HETATM   10  C   UNL     1      -7.993   9.470  70.476  1.00  0.00    -0.188 A  
BRANCH   6  11
HETATM   11  N   UNL     1      -7.892  11.610  69.337  1.00  0.00    -0.338 N  
HETATM   12  H   UNL     1      -8.133  12.254  70.091  1.00  0.00     0.000 HD 
BRANCH  11  13
HETATM   13  S   UNL     1      -8.149  12.023  67.719  1.00  0.00    -0.162 S  
HETATM   14  O   UNL     1      -8.717  10.840  67.106  1.00  0.00    -0.130 OA 
HETATM   15  O   UNL     1      -6.972  12.657  67.168  1.00  0.00    -0.130 OA 
HETATM   16  C   UNL     1      -9.451  13.227  67.864  1.00  0.00    -0.214 C  
ENDBRANCH  11  13
ENDBRANCH   6  11
ENDBRANCH   4   5
ENDBRANCH   3   4
ENDBRANCH   2   3
BRANCH   2  17
HETATM   17  C   UNL     1      -7.192   3.451  68.944  1.00  0.00    -0.049 C  
BRANCH  17  18
HETATM   18  C   UNL     1      -7.566   4.504  67.889  1.00  0.00    -0.077 C  
BRANCH  18  19
HETATM   19  O   UNL     1      -8.988   4.515  67.712  1.00  0.00    -0.108 OA 
BRANCH  19  20
HETATM   20  C   UNL     1      -9.663   5.519  68.358  1.00  0.00    -0.130 A  
HETATM   21  C   UNL     1     -10.328   5.392  69.580  1.00  0.00    -0.361 A  
HETATM   22  C   UNL     1      -9.661   6.756  67.707  1.00  0.00    -0.140 A  
HETATM   23  C   UNL     1     -11.030   7.701  69.457  1.00  0.00    -0.097 A  
HETATM   24  C   UNL     1     -10.340   7.850  68.256  1.00  0.00    -0.239 A  
HETATM   25  C   UNL     1     -11.009   6.482  70.128  1.00  0.00    -0.374 A  
BRANCH  23  26
HETATM   26  N   UNL     1     -11.741   8.792  70.033  1.00  0.00    -0.431 N  
HETATM   27  H   UNL     1     -11.856   9.672  69.530  1.00  0.00     0.000 HD 
BRANCH  26  28
HETATM   28  S   UNL     1     -12.387   8.579  71.579  1.00  0.00    -0.320 S  
HETATM   29  O   UNL     1     -13.391   7.541  71.561  1.00  0.00    -0.356 OA 
HETATM   30  C   UNL     1     -13.171  10.153  71.864  1.00  0.00    -0.452 C  
HETATM   31  O   UNL     1     -11.241   8.498  72.463  1.00  0.00    -0.357 OA 
ENDBRANCH  26  28
ENDBRANCH  23  26
ENDBRANCH  19  20
ENDBRANCH  18  19
ENDBRANCH  17  18
ENDBRANCH   2  17
TORSDOF 11
ENDMDL
MODEL      244
REMARK 921   NORMALIZED FREE ENERGY PREDICTED BY IDOCK:   -3.03 KCAL/MOL
REMARK 922        TOTAL FREE ENERGY PREDICTED BY IDOCK:   -6.54 KCAL/MOL
REMARK 923 INTER-LIGAND FREE ENERGY PREDICTED BY IDOCK:   -6.22 KCAL/MOL
REMARK 924 INTRA-LIGAND FREE ENERGY PREDICTED BY IDOCK:   -0.31 KCAL/MOL
REMARK 927      BINDING AFFINITY PREDICTED BY RF-SCORE:    0.00 PKD
ROOT
HETATM    1  C   UNL     1      -5.211  10.932  68.485  1.00  0.00    -0.040 C  
HETATM    2  N   UNL     1      -6.077  11.210  69.636  1.00  0.00    -0.079 NA 
ENDROOT
BRANCH   2   3
HETATM    3  C   UNL     1      -7.428  10.636  69.449  1.00  0.00    -0.135 C  
BRANCH   3   4
HETATM    4  C   UNL     1      -7.620   9.745  68.201  1.00  0.00    -0.082 C  
BRANCH   4   5
HETATM    5  C   UNL     1      -7.963   8.307  68.517  1.00  0.00    -0.122 A  
HETATM    6  C   UNL     1      -8.619   5.629  69.019  1.00  0.00    -0.105 A  
HETATM    7  C   UNL     1      -9.285   7.939  68.811  1.00  0.00    -0.143 A  
HETATM    8  C   UNL     1      -6.970   7.318  68.517  1.00  0.00    -0.079 A  
HETATM    9  C   UNL     1      -9.612   6.605  69.063  1.00  0.00    -0.133 A  
HETATM   10  C   UNL     1      -7.297   5.984  68.768  1.00  0.00    -0.085 A  
BRANCH   6  11
HETATM   11  N   UNL     1      -8.933   4.261  69.262  1.00  0.00    -0.094 N  
HETATM   12  H   UNL     1      -9.193   3.936  70.193  1.00  0.00     0.000 HD 
BRANCH  11  13
HETATM   13  S   UNL     1      -8.861   3.198  67.951  1.00  0.00    -0.150 S  
HETATM   14  O   UNL     1      -9.691   2.071  68.324  1.00  0.00    -0.167 OA 
HETATM   15  O   UNL     1      -7.491   3.009  67.531  1.00  0.00    -0.060 OA 
HETATM   16  C   UNL     1      -9.736   4.116  66.703  1.00  0.00    -0.211 C  
ENDBRANCH  11  13
ENDBRANCH   6  11
ENDBRANCH   4   5
ENDBRANCH   3   4
ENDBRANCH   2   3
BRANCH   2  17
HETATM   17  C   UNL     1      -6.120  12.672  69.866  1.00  0.00    -0.125 C  
BRANCH  17  18
HETATM   18  C   UNL     1      -6.688  13.489  68.695  1.00  0.00    -0.094 C  
BRANCH  18  19
HETATM   19  O   UNL     1      -7.762  14.313  69.167  1.00  0.00    -0.103 OA 
BRANCH  19  20
HETATM   20  C   UNL     1      -8.858  14.393  68.347  1.00  0.00    -0.182 A  
HETATM   21  C   UNL     1      -9.270  15.535  67.655  1.00  0.00    -0.190 A  
HETATM   22  C   UNL     1      -9.598  13.215  68.220  1.00  0.00    -0.218 A  
HETATM   23  C   UNL     1     -11.174  14.336  66.776  1.00  0.00    -0.332 A  
HETATM   24  C   UNL     1     -10.754  13.181  67.432  1.00  0.00    -0.262 A  
HETATM   25  C   UNL     1     -10.424  15.505  66.871  1.00  0.00    -0.301 A  
BRANCH  23  26
HETATM   26  N   UNL     1     -12.354  14.338  65.978  1.00  0.00    -0.423 N  
HETATM   27  H   UNL     1     -13.212  14.782  66.305  1.00  0.00     0.000 HD 
BRANCH  26  28
HETATM   28  S   UNL     1     -12.283  13.578  64.471  1.00  0.00    -0.384 S  
HETATM   29  O   UNL     1     -13.099  12.387  64.475  1.00  0.00    -0.823 OA 
HETATM   30  C   UNL     1     -10.564  13.116  64.380  1.00  0.00    -0.421 C  
HETATM   31  O   UNL     1     -12.501  14.633  63.502  1.00  0.00    -0.681 OA 
ENDBRANCH  26  28
ENDBRANCH  23  26
ENDBRANCH  19  20
ENDBRANCH  18  19
ENDBRANCH  17  18
ENDBRANCH   2  17
TORSDOF 11
ENDMDL
MODEL      245
REMARK 921   NORMALIZED FREE ENERGY PREDICTED BY IDOCK:   -3.00 KCAL/MOL
REMARK 922        TOTAL FREE ENERGY PREDICTED BY IDOCK:   -6.48 KCAL/MOL
REMARK 923 INTER-LIGAND FREE ENERGY PREDICTED BY IDOCK:   -5.85 KCAL/MOL
REMARK 924 INTRA-LIGAND FREE ENERGY PREDICTED BY IDOCK:   -0.64 KCAL/MOL
REMARK 927      BINDING AFFINITY PREDICTED BY RF-SCORE:    0.00 PKD
ROOT
HETATM    1  C   UNL     1      -6.276  12.057  69.839  1.00  0.00    -0.130 C  
HETATM    2  N   UNL     1      -6.970  10.924  69.217  1.00  0.00    -0.099 NA 
ENDROOT
BRANCH   2   3
HETATM    3  C   UNL     1      -8.249  11.343  68.602  1.00  0.00    -0.142 C  
BRANCH   3   4
HETATM    4  C   UNL     1      -8.154  11.950  67.184  1.00  0.00    -0.172 C  
BRANCH   4   5
HETATM    5  C   UNL     1      -8.755  13.333  67.065  1.00  0.00    -0.192 A  
HETATM    6  C   UNL     1      -9.815  15.911  66.774  1.00  0.00    -0.244 A  
HETATM    7  C   UNL     1      -8.122  14.436  67.658  1.00  0.00    -0.188 A  
HETATM    8  C   UNL     1      -9.946  13.537  66.356  1.00  0.00    -0.296 A  
HETATM    9  C   UNL     1      -8.650  15.721  67.515  1.00  0.00    -0.180 A  
HETATM   10  C   UNL     1     -10.474  14.822  66.212  1.00  0.00    -0.300 A  
BRANCH   6  11
HETATM   11  N   UNL     1     -10.364  17.214  66.605  1.00  0.00    -0.323 N  
HETATM   12  H   UNL     1     -11.359  17.349  66.425  1.00  0.00     0.000 HD 
BRANCH  11  13
HETATM   13  S   UNL     1      -9.308  18.528  66.715  1.00  0.00    -0.306 S  
HETATM   14  O   UNL     1      -8.243  18.245  65.774  1.00  0.00    -0.503 OA 
HETATM   15  O   UNL     1      -9.020  18.829  68.099  1.00  0.00    -0.291 OA 
HETATM   16  C   UNL     1     -10.298  19.835  66.024  1.00  0.00    -0.511 C  
ENDBRANCH  11  13
ENDBRANCH   6  11
ENDBRANCH   4   5
ENDBRANCH   3   4
ENDBRANCH   2   3
BRANCH   2  17
HETATM   17  C   UNL     1      -7.160   9.860  70.230  1.00  0.00    -0.151 C  
BRANCH  17  18
HETATM   18  C   UNL     1      -7.223   8.435  69.658  1.00  0.00    -0.057 C  
BRANCH  18  19
HETATM   19  O   UNL     1      -6.485   8.382  68.431  1.00  0.00    -0.056 OA 
BRANCH  19  20
HETATM   20  C   UNL     1      -7.088   7.711  67.399  1.00  0.00    -0.086 A  
HETATM   21  C   UNL     1      -8.111   8.216  66.592  1.00  0.00    -0.103 A  
HETATM   22  C   UNL     1      -6.613   6.418  67.167  1.00  0.00    -0.058 A  
HETATM   23  C   UNL     1      -8.214   6.126  65.385  1.00  0.00    -0.145 A  
HETATM   24  C   UNL     1      -7.169   5.624  66.158  1.00  0.00    -0.077 A  
HETATM   25  C   UNL     1      -8.671   7.425  65.587  1.00  0.00    -0.099 A  
BRANCH  23  26
HETATM   26  N   UNL     1      -8.810   5.338  64.359  1.00  0.00    -0.328 N  
HETATM   27  H   UNL     1      -8.590   5.496  63.376  1.00  0.00     0.000 HD 
BRANCH  26  28
HETATM   28  S   UNL     1      -9.894   4.130  64.828  1.00  0.00    -0.172 S  
HETATM   29  O   UNL     1     -10.502   4.470  66.093  1.00  0.00    -0.272 OA 
HETATM   30  C   UNL     1      -8.808   2.736  65.051  1.00  0.00    -0.122 C  
HETATM   31  O   UNL     1     -10.703   3.868  63.654  1.00  0.00    -0.249 OA 
ENDBRANCH  26  28
ENDBRANCH  23  26
ENDBRANCH  19  20
ENDBRANCH  18  19
ENDBRANCH  17  18
ENDBRANCH   2  17
TORSDOF 11
ENDMDL
MODEL      246
REMARK 921   NORMALIZED FREE ENERGY PREDICTED BY IDOCK:   -2.96 KCAL/MOL
REMARK 922        TOTAL FREE ENERGY PREDICTED BY IDOCK:   -6.42 KCAL/MOL
REMARK 923 INTER-LIGAND FREE ENERGY PREDICTED BY IDOCK:   -5.95 KCAL/MOL
REMARK 924 INTRA-LIGAND FREE ENERGY PREDICTED BY IDOCK:   -0.47 KCAL/MOL
REMARK 927      BINDING AFFINITY PREDICTED BY RF-SCORE:    0.00 PKD
ROOT
HETATM    1  C   UNL     1      -8.511   8.636  66.811  1.00  0.00    -0.115 C  
HETATM    2  N   UNL     1      -8.754   8.933  65.395  1.00  0.00    -0.182 NA 
ENDROOT
BRANCH   2   3
HETATM    3  C   UNL     1      -7.590   9.601  64.774  1.00  0.00    -0.122 C  
BRANCH   3   4
HETATM    4  C   UNL     1      -7.061   8.966  63.467  1.00  0.00    -0.089 C  
BRANCH   4   5
HETATM    5  C   UNL     1      -7.329   7.482  63.351  1.00  0.00    -0.087 A  
HETATM    6  C   UNL     1      -7.884   4.739  63.201  1.00  0.00    -0.072 A  
HETATM    7  C   UNL     1      -6.659   6.572  64.183  1.00  0.00    -0.037 A  
HETATM    8  C   UNL     1      -8.252   6.993  62.417  1.00  0.00    -0.066 A  
HETATM    9  C   UNL     1      -6.934   5.205  64.108  1.00  0.00    -0.049 A  
HETATM   10  C   UNL     1      -8.528   5.626  62.343  1.00  0.00    -0.084 A  
BRANCH   6  11
HETATM   11  N   UNL     1      -8.188   3.351  63.116  1.00  0.00    -0.077 N  
HETATM   12  H   UNL     1      -7.850   2.782  62.339  1.00  0.00     0.000 HD 
BRANCH  11  13
HETATM   13  S   UNL     1      -9.126   2.679  64.349  1.00  0.00    -0.128 S  
HETATM   14  O   UNL     1      -8.238   2.561  65.488  1.00  0.00    -0.083 OA 
HETATM   15  O   UNL     1      -9.863   1.537  63.857  1.00  0.00    -0.128 OA 
HETATM   16  C   UNL     1     -10.261   4.006  64.693  1.00  0.00    -0.214 C  
ENDBRANCH  11  13
ENDBRANCH   6  11
ENDBRANCH   4   5
ENDBRANCH   3   4
ENDBRANCH   2   3
BRANCH   2  17
HETATM   17  C   UNL     1      -9.990   9.743  65.278  1.00  0.00    -0.181 C  
BRANCH  17  18
HETATM   18  C   UNL     1      -9.759  11.210  64.883  1.00  0.00    -0.251 C  
BRANCH  18  19
HETATM   19  O   UNL     1     -10.692  12.043  65.584  1.00  0.00    -0.255 OA 
BRANCH  19  20
HETATM   20  C   UNL     1     -10.298  13.340  65.789  1.00  0.00    -0.288 A  
HETATM   21  C   UNL     1      -9.381  13.765  66.754  1.00  0.00    -0.276 A  
HETATM   22  C   UNL     1     -10.885  14.285  64.943  1.00  0.00    -0.429 A  
HETATM   23  C   UNL     1      -9.694  16.059  66.065  1.00  0.00    -0.344 A  
HETATM   24  C   UNL     1     -10.582  15.644  65.075  1.00  0.00    -0.422 A  
HETATM   25  C   UNL     1      -9.080  15.121  66.890  1.00  0.00    -0.270 A  
BRANCH  23  26
HETATM   26  N   UNL     1      -9.376  17.437  66.233  1.00  0.00    -0.246 N  
HETATM   27  H   UNL     1      -8.832  17.942  65.534  1.00  0.00     0.000 HD 
BRANCH  26  28
HETATM   28  S   UNL     1      -9.932  18.206  67.631  1.00  0.00    -0.355 S  
HETATM   29  O   UNL     1     -11.030  17.465  68.205  1.00  0.00    -0.334 OA 
HETATM   30  C   UNL     1     -10.539  19.749  66.978  1.00  0.00    -0.461 C  
HETATM   31  O   UNL     1      -8.741  18.500  68.403  1.00  0.00    -0.312 OA 
ENDBRANCH  26  28
ENDBRANCH  23  26
ENDBRANCH  19  20
ENDBRANCH  18  19
ENDBRANCH  17  18
ENDBRANCH   2  17
TORSDOF 11
ENDMDL
MODEL      247
REMARK 921   NORMALIZED FREE ENERGY PREDICTED BY IDOCK:   -2.91 KCAL/MOL
REMARK 922        TOTAL FREE ENERGY PREDICTED BY IDOCK:   -6.35 KCAL/MOL
REMARK 923 INTER-LIGAND FREE ENERGY PREDICTED BY IDOCK:   -6.11 KCAL/MOL
REMARK 924 INTRA-LIGAND FREE ENERGY PREDICTED BY IDOCK:   -0.24 KCAL/MOL
REMARK 927      BINDING AFFINITY PREDICTED BY RF-SCORE:    0.00 PKD
ROOT
HETATM    1  C   UNL     1     -10.944  10.115  69.022  1.00  0.00    -0.226 C  
HETATM    2  N   UNL     1      -9.715  10.512  68.328  1.00  0.00    -0.150 NA 
ENDROOT
BRANCH   2   3
HETATM    3  C   UNL     1      -9.966  10.795  66.898  1.00  0.00    -0.200 C  
BRANCH   3   4
HETATM    4  C   UNL     1     -11.200  11.671  66.585  1.00  0.00    -0.362 C  
BRANCH   4   5
HETATM    5  C   UNL     1     -10.988  13.147  66.841  1.00  0.00    -0.295 A  
HETATM    6  C   UNL     1     -10.684  15.893  67.307  1.00  0.00    -0.306 A  
HETATM    7  C   UNL     1     -10.855  14.041  65.769  1.00  0.00    -0.291 A  
HETATM    8  C   UNL     1     -10.930  13.644  68.150  1.00  0.00    -0.273 A  
HETATM    9  C   UNL     1     -10.702  15.411  66.001  1.00  0.00    -0.326 A  
HETATM   10  C   UNL     1     -10.777  15.013  68.382  1.00  0.00    -0.245 A  
BRANCH   6  11
HETATM   11  N   UNL     1     -10.541  17.286  67.565  1.00  0.00    -0.351 N  
HETATM   12  H   UNL     1     -10.933  17.711  68.405  1.00  0.00     0.000 HD 
BRANCH  11  13
HETATM   13  S   UNL     1      -9.697  18.209  66.429  1.00  0.00    -0.306 S  
HETATM   14  O   UNL     1     -10.659  18.510  65.388  1.00  0.00    -0.589 OA 
HETATM   15  O   UNL     1      -8.430  17.588  66.117  1.00  0.00    -0.432 OA 
HETATM   16  C   UNL     1      -9.407  19.711  67.339  1.00  0.00    -0.326 C  
ENDBRANCH  11  13
ENDBRANCH   6  11
ENDBRANCH   4   5
ENDBRANCH   3   4
ENDBRANCH   2   3
BRANCH   2  17
HETATM   17  C   UNL     1      -8.693   9.456  68.516  1.00  0.00    -0.128 C  
BRANCH  17  18
HETATM   18  C   UNL     1      -7.851   9.599  69.795  1.00  0.00    -0.142 C  
BRANCH  18  19
HETATM   19  O   UNL     1      -8.387   8.745  70.813  1.00  0.00    -0.126 OA 
BRANCH  19  20
HETATM   20  C   UNL     1      -8.403   7.405  70.523  1.00  0.00    -0.132 A  
HETATM   21  C   UNL     1      -9.551   6.632  70.333  1.00  0.00    -0.173 A  
HETATM   22  C   UNL     1      -7.148   6.801  70.415  1.00  0.00    -0.068 A  
HETATM   23  C   UNL     1      -8.190   4.664  69.998  1.00  0.00    -0.067 A  
HETATM   24  C   UNL     1      -7.038   5.432  70.148  1.00  0.00    -0.065 A  
HETATM   25  C   UNL     1      -9.444   5.265  70.070  1.00  0.00    -0.216 A  
BRANCH  23  26
HETATM   26  N   UNL     1      -8.111   3.266  69.739  1.00  0.00    -0.048 N  
HETATM   27  H   UNL     1      -7.805   2.612  70.460  1.00  0.00     0.000 HD 
BRANCH  26  28
HETATM   28  S   UNL     1      -8.541   2.727  68.197  1.00  0.00    -0.101 S  
HETATM   29  O   UNL     1      -9.849   2.115  68.230  1.00  0.00    -0.031 OA 
HETATM   30  C   UNL     1      -7.311   1.474  67.895  1.00  0.00    -0.046 C  
HETATM   31  O   UNL     1      -8.256   3.839  67.311  1.00  0.00    -0.090 OA 
ENDBRANCH  26  28
ENDBRANCH  23  26
ENDBRANCH  19  20
ENDBRANCH  18  19
ENDBRANCH  17  18
ENDBRANCH   2  17
TORSDOF 11
ENDMDL
MODEL      248
REMARK 921   NORMALIZED FREE ENERGY PREDICTED BY IDOCK:   -2.89 KCAL/MOL
REMARK 922        TOTAL FREE ENERGY PREDICTED BY IDOCK:   -6.31 KCAL/MOL
REMARK 923 INTER-LIGAND FREE ENERGY PREDICTED BY IDOCK:   -4.55 KCAL/MOL
REMARK 924 INTRA-LIGAND FREE ENERGY PREDICTED BY IDOCK:   -1.76 KCAL/MOL
REMARK 927      BINDING AFFINITY PREDICTED BY RF-SCORE:    0.00 PKD
ROOT
HETATM    1  C   UNL     1      -7.327   4.832  73.538  1.00  0.00    -0.082 C  
HETATM    2  N   UNL     1      -7.972   5.951  72.843  1.00  0.00    -0.107 NA 
ENDROOT
BRANCH   2   3
HETATM    3  C   UNL     1      -7.325   7.240  73.174  1.00  0.00    -0.072 C  
BRANCH   3   4
HETATM    4  C   UNL     1      -7.889   8.486  72.454  1.00  0.00    -0.112 C  
BRANCH   4   5
HETATM    5  C   UNL     1      -7.485   8.593  71.000  1.00  0.00    -0.093 A  
HETATM    6  C   UNL     1      -6.788   8.863  68.299  1.00  0.00    -0.065 A  
HETATM    7  C   UNL     1      -8.282   8.020  69.998  1.00  0.00    -0.118 A  
HETATM    8  C   UNL     1      -6.315   9.270  70.631  1.00  0.00    -0.068 A  
HETATM    9  C   UNL     1      -7.934   8.153  68.651  1.00  0.00    -0.115 A  
HETATM   10  C   UNL     1      -5.968   9.404  69.285  1.00  0.00    -0.037 A  
BRANCH   6  11
HETATM   11  N   UNL     1      -6.422   9.020  66.932  1.00  0.00    -0.063 N  
HETATM   12  H   UNL     1      -6.012   8.250  66.403  1.00  0.00     0.000 HD 
BRANCH  11  13
HETATM   13  S   UNL     1      -6.693  10.528  66.218  1.00  0.00    -0.130 S  
HETATM   14  O   UNL     1      -5.397  11.176  66.188  1.00  0.00    -0.123 OA 
HETATM   15  O   UNL     1      -7.836  11.173  66.822  1.00  0.00    -0.140 OA 
HETATM   16  C   UNL     1      -7.095  10.061  64.549  1.00  0.00    -0.139 C  
ENDBRANCH  11  13
ENDBRANCH   6  11
ENDBRANCH   4   5
ENDBRANCH   3   4
ENDBRANCH   2   3
BRANCH   2  17
HETATM   17  C   UNL     1      -9.417   5.952  73.170  1.00  0.00    -0.143 C  
BRANCH  17  18
HETATM   18  C   UNL     1     -10.270   5.011  72.305  1.00  0.00    -0.201 C  
BRANCH  18  19
HETATM   19  O   UNL     1     -10.952   5.774  71.303  1.00  0.00    -0.266 OA 
BRANCH  19  20
HETATM   20  C   UNL     1     -10.617   5.489  70.004  1.00  0.00    -0.314 A  
HETATM   21  C   UNL     1      -9.762   4.463  69.594  1.00  0.00    -0.289 A  
HETATM   22  C   UNL     1     -11.199   6.317  69.040  1.00  0.00    -0.415 A  
HETATM   23  C   UNL     1     -10.028   5.138  67.290  1.00  0.00    -0.186 A  
HETATM   24  C   UNL     1     -10.911   6.142  67.683  1.00  0.00    -0.421 A  
HETATM   25  C   UNL     1      -9.470   4.288  68.240  1.00  0.00    -0.212 A  
BRANCH  23  26
HETATM   26  N   UNL     1      -9.704   4.943  65.917  1.00  0.00    -0.174 N  
HETATM   27  H   UNL     1     -10.252   4.315  65.329  1.00  0.00     0.000 HD 
BRANCH  26  28
HETATM   28  S   UNL     1      -8.381   5.789  65.295  1.00  0.00    -0.144 S  
HETATM   29  O   UNL     1      -8.089   5.341  63.954  1.00  0.00    -0.106 OA 
HETATM   30  C   UNL     1      -7.073   5.271  66.388  1.00  0.00    -0.072 C  
HETATM   31  O   UNL     1      -8.654   7.185  65.576  1.00  0.00    -0.146 OA 
ENDBRANCH  26  28
ENDBRANCH  23  26
ENDBRANCH  19  20
ENDBRANCH  18  19
ENDBRANCH  17  18
ENDBRANCH   2  17
TORSDOF 11
ENDMDL
MODEL      249
REMARK 921   NORMALIZED FREE ENERGY PREDICTED BY IDOCK:   -2.85 KCAL/MOL
REMARK 922        TOTAL FREE ENERGY PREDICTED BY IDOCK:   -6.24 KCAL/MOL
REMARK 923 INTER-LIGAND FREE ENERGY PREDICTED BY IDOCK:   -6.17 KCAL/MOL
REMARK 924 INTRA-LIGAND FREE ENERGY PREDICTED BY IDOCK:   -0.07 KCAL/MOL
REMARK 927      BINDING AFFINITY PREDICTED BY RF-SCORE:    0.00 PKD
ROOT
HETATM    1  C   UNL     1     -11.867  13.199  68.261  1.00  0.00    -0.349 C  
HETATM    2  N   UNL     1     -11.639  13.136  66.814  1.00  0.00    -0.347 NA 
ENDROOT
BRANCH   2   3
HETATM    3  C   UNL     1     -11.462  11.742  66.352  1.00  0.00    -0.239 C  
BRANCH   3   4
HETATM    4  C   UNL     1     -10.709  11.560  65.015  1.00  0.00    -0.350 C  
BRANCH   4   5
HETATM    5  C   UNL     1      -9.765  10.378  64.995  1.00  0.00    -0.362 A  
HETATM    6  C   UNL     1      -8.077   8.143  64.911  1.00  0.00    -0.153 A  
HETATM    7  C   UNL     1      -9.890   9.354  65.946  1.00  0.00    -0.362 A  
HETATM    8  C   UNL     1      -8.758  10.283  64.026  1.00  0.00    -0.211 A  
HETATM    9  C   UNL     1      -9.048   8.240  65.905  1.00  0.00    -0.203 A  
HETATM   10  C   UNL     1      -7.916   9.170  63.985  1.00  0.00    -0.141 A  
BRANCH   6  11
HETATM   11  N   UNL     1      -7.215   7.011  64.845  1.00  0.00    -0.074 N  
HETATM   12  H   UNL     1      -6.416   6.918  65.471  1.00  0.00     0.000 HD 
BRANCH  11  13
HETATM   13  S   UNL     1      -7.567   5.828  63.691  1.00  0.00    -0.090 S  
HETATM   14  O   UNL     1      -6.290   5.233  63.349  1.00  0.00    -0.021 OA 
HETATM   15  O   UNL     1      -8.438   6.362  62.670  1.00  0.00    -0.037 OA 
HETATM   16  C   UNL     1      -8.464   4.640  64.667  1.00  0.00    -0.135 C  
ENDBRANCH  11  13
ENDBRANCH   6  11
ENDBRANCH   4   5
ENDBRANCH   3   4
ENDBRANCH   2   3
BRANCH   2  17
HETATM   17  C   UNL     1     -10.477  13.989  66.471  1.00  0.00    -0.281 C  
BRANCH  17  18
HETATM   18  C   UNL     1      -9.194  13.667  67.253  1.00  0.00    -0.232 C  
BRANCH  18  19
HETATM   19  O   UNL     1      -9.090  14.549  68.378  1.00  0.00    -0.180 OA 
BRANCH  19  20
HETATM   20  C   UNL     1      -8.296  15.653  68.202  1.00  0.00    -0.146 A  
HETATM   21  C   UNL     1      -8.331  16.507  67.096  1.00  0.00    -0.206 A  
HETATM   22  C   UNL     1      -7.391  15.911  69.234  1.00  0.00    -0.221 A  
HETATM   23  C   UNL     1      -6.529  17.817  68.030  1.00  0.00    -0.183 A  
HETATM   24  C   UNL     1      -6.509  16.994  69.154  1.00  0.00    -0.221 A  
HETATM   25  C   UNL     1      -7.450  17.587  67.013  1.00  0.00    -0.229 A  
BRANCH  23  26
HETATM   26  N   UNL     1      -5.635  18.920  67.914  1.00  0.00    -0.185 N  
HETATM   27  H   UNL     1      -4.675  18.789  67.595  1.00  0.00     0.000 HD 
BRANCH  26  28
HETATM   28  S   UNL     1      -6.220  20.451  68.321  1.00  0.00    -0.317 S  
HETATM   29  O   UNL     1      -7.630  20.382  68.623  1.00  0.00    -0.029 OA 
HETATM   30  C   UNL     1      -5.986  21.344  66.797  1.00  0.00    -0.329 C  
HETATM   31  O   UNL     1      -5.272  20.978  69.283  1.00  0.00    -0.335 OA 
ENDBRANCH  26  28
ENDBRANCH  23  26
ENDBRANCH  19  20
ENDBRANCH  18  19
ENDBRANCH  17  18
ENDBRANCH   2  17
TORSDOF 11
ENDMDL
MODEL      250
REMARK 921   NORMALIZED FREE ENERGY PREDICTED BY IDOCK:   -2.76 KCAL/MOL
REMARK 922        TOTAL FREE ENERGY PREDICTED BY IDOCK:   -6.10 KCAL/MOL
REMARK 923 INTER-LIGAND FREE ENERGY PREDICTED BY IDOCK:   -5.31 KCAL/MOL
REMARK 924 INTRA-LIGAND FREE ENERGY PREDICTED BY IDOCK:   -0.79 KCAL/MOL
REMARK 927      BINDING AFFINITY PREDICTED BY RF-SCORE:    0.00 PKD
ROOT
HETATM    1  C   UNL     1      -5.665  10.535  70.331  1.00  0.00    -0.087 C  
HETATM    2  N   UNL     1      -6.283  10.737  69.016  1.00  0.00    -0.041 NA 
ENDROOT
BRANCH   2   3
HETATM    3  C   UNL     1      -5.290  10.626  67.927  1.00  0.00    -0.036 C  
BRANCH   3   4
HETATM    4  C   UNL     1      -5.849  10.701  66.488  1.00  0.00    -0.081 C  
BRANCH   4   5
HETATM    5  C   UNL     1      -6.618   9.472  66.060  1.00  0.00    -0.077 A  
HETATM    6  C   UNL     1      -8.060   7.232  65.189  1.00  0.00    -0.128 A  
HETATM    7  C   UNL     1      -8.009   9.409  66.230  1.00  0.00    -0.111 A  
HETATM    8  C   UNL     1      -5.956   8.380  65.481  1.00  0.00    -0.045 A  
HETATM    9  C   UNL     1      -8.728   8.292  65.797  1.00  0.00    -0.196 A  
HETATM   10  C   UNL     1      -6.675   7.264  65.048  1.00  0.00    -0.047 A  
BRANCH   6  11
HETATM   11  N   UNL     1      -8.775   6.089  64.731  1.00  0.00    -0.356 N  
HETATM   12  H   UNL     1      -9.256   6.093  63.831  1.00  0.00     0.000 HD 
BRANCH  11  13
HETATM   13  S   UNL     1      -8.799   4.728  65.731  1.00  0.00    -0.136 S  
HETATM   14  O   UNL     1     -10.131   4.173  65.593  1.00  0.00    -0.211 OA 
HETATM   15  O   UNL     1      -8.255   5.049  67.031  1.00  0.00    -0.107 OA 
HETATM   16  C   UNL     1      -7.678   3.642  64.877  1.00  0.00    -0.081 C  
ENDBRANCH  11  13
ENDBRANCH   6  11
ENDBRANCH   4   5
ENDBRANCH   3   4
ENDBRANCH   2   3
BRANCH   2  17
HETATM   17  C   UNL     1      -6.977  12.046  69.006  1.00  0.00    -0.094 C  
BRANCH  17  18
HETATM   18  C   UNL     1      -6.048  13.265  69.120  1.00  0.00    -0.094 C  
BRANCH  18  19
HETATM   19  O   UNL     1      -6.563  14.164  70.110  1.00  0.00    -0.124 OA 
BRANCH  19  20
HETATM   20  C   UNL     1      -7.250  15.250  69.631  1.00  0.00    -0.187 A  
HETATM   21  C   UNL     1      -8.613  15.275  69.323  1.00  0.00    -0.236 A  
HETATM   22  C   UNL     1      -6.489  16.408  69.451  1.00  0.00    -0.206 A  
HETATM   23  C   UNL     1      -8.425  17.574  68.605  1.00  0.00    -0.258 A  
HETATM   24  C   UNL     1      -7.073  17.573  68.943  1.00  0.00    -0.253 A  
HETATM   25  C   UNL     1      -9.198  16.436  68.812  1.00  0.00    -0.239 A  
BRANCH  23  26
HETATM   26  N   UNL     1      -9.046  18.740  68.072  1.00  0.00    -0.291 N  
HETATM   27  H   UNL     1      -9.687  19.300  68.634  1.00  0.00     0.000 HD 
BRANCH  26  28
HETATM   28  S   UNL     1      -8.683  19.163  66.478  1.00  0.00    -0.343 S  
HETATM   29  O   UNL     1      -7.713  20.232  66.454  1.00  0.00    -0.275 OA 
HETATM   30  C   UNL     1     -10.253  19.779  65.901  1.00  0.00    -0.459 C  
HETATM   31  O   UNL     1      -8.433  17.908  65.797  1.00  0.00    -0.513 OA 
ENDBRANCH  26  28
ENDBRANCH  23  26
ENDBRANCH  19  20
ENDBRANCH  18  19
ENDBRANCH  17  18
ENDBRANCH   2  17
TORSDOF 11
ENDMDL
MODEL      251
REMARK 921   NORMALIZED FREE ENERGY PREDICTED BY IDOCK:   -2.62 KCAL/MOL
REMARK 922        TOTAL FREE ENERGY PREDICTED BY IDOCK:   -5.86 KCAL/MOL
REMARK 923 INTER-LIGAND FREE ENERGY PREDICTED BY IDOCK:   -4.95 KCAL/MOL
REMARK 924 INTRA-LIGAND FREE ENERGY PREDICTED BY IDOCK:   -0.91 KCAL/MOL
REMARK 927      BINDING AFFINITY PREDICTED BY RF-SCORE:    0.00 PKD
ROOT
HETATM    1  C   UNL     1      -9.221   3.111  69.407  1.00  0.00    -0.149 C  
HETATM    2  N   UNL     1      -9.600   3.461  68.034  1.00  0.00    -0.152 NA 
ENDROOT
BRANCH   2   3
HETATM    3  C   UNL     1      -8.514   3.157  67.077  1.00  0.00    -0.102 C  
BRANCH   3   4
HETATM    4  C   UNL     1      -7.077   3.451  67.565  1.00  0.00    -0.058 C  
BRANCH   4   5
HETATM    5  C   UNL     1      -6.536   4.790  67.116  1.00  0.00    -0.045 A  
HETATM    6  C   UNL     1      -5.609   7.309  66.310  1.00  0.00    -0.027 A  
HETATM    7  C   UNL     1      -6.835   5.284  65.838  1.00  0.00    -0.061 A  
HETATM    8  C   UNL     1      -5.735   5.560  67.969  1.00  0.00    -0.013 A  
HETATM    9  C   UNL     1      -6.372   6.539  65.435  1.00  0.00    -0.038 A  
HETATM   10  C   UNL     1      -5.272   6.815  67.567  1.00  0.00    -0.008 A  
BRANCH   6  11
HETATM   11  N   UNL     1      -5.137   8.595  65.923  1.00  0.00    -0.027 N  
HETATM   12  H   UNL     1      -4.208   8.718  65.520  1.00  0.00     0.000 HD 
BRANCH  11  13
HETATM   13  S   UNL     1      -6.171   9.911  66.157  1.00  0.00    -0.077 S  
HETATM   14  O   UNL     1      -7.494   9.423  65.826  1.00  0.00    -0.096 OA 
HETATM   15  O   UNL     1      -5.632  11.094  65.525  1.00  0.00    -0.152 OA 
HETATM   16  C   UNL     1      -6.100  10.106  67.925  1.00  0.00    -0.052 C  
ENDBRANCH  11  13
ENDBRANCH   6  11
ENDBRANCH   4   5
ENDBRANCH   3   4
ENDBRANCH   2   3
BRANCH   2  17
HETATM   17  C   UNL     1      -9.997   4.887  67.992  1.00  0.00    -0.114 C  
BRANCH  17  18
HETATM   18  C   UNL     1      -9.803   5.646  69.315  1.00  0.00    -0.174 C  
BRANCH  18  19
HETATM   19  O   UNL     1     -10.970   6.431  69.589  1.00  0.00    -0.284 OA 
BRANCH  19  20
HETATM   20  C   UNL     1     -10.790   7.790  69.589  1.00  0.00    -0.184 A  
HETATM   21  C   UNL     1     -11.242   8.666  70.579  1.00  0.00    -0.266 A  
HETATM   22  C   UNL     1     -10.092   8.302  68.492  1.00  0.00    -0.217 A  
HETATM   23  C   UNL     1     -10.357  10.545  69.344  1.00  0.00    -0.234 A  
HETATM   24  C   UNL     1      -9.869   9.677  68.368  1.00  0.00    -0.170 A  
HETATM   25  C   UNL     1     -11.025  10.040  70.456  1.00  0.00    -0.392 A  
BRANCH  23  26
HETATM   26  N   UNL     1     -10.159  11.951  69.239  1.00  0.00    -0.394 N  
HETATM   27  H   UNL     1      -9.378  12.410  69.707  1.00  0.00     0.000 HD 
BRANCH  26  28
HETATM   28  S   UNL     1     -11.263  12.832  68.312  1.00  0.00    -0.294 S  
HETATM   29  O   UNL     1     -12.011  11.946  67.452  1.00  0.00    -0.603 OA 
HETATM   30  C   UNL     1     -10.179  13.841  67.321  1.00  0.00    -0.253 C  
HETATM   31  O   UNL     1     -11.934  13.709  69.251  1.00  0.00    -0.312 OA 
ENDBRANCH  26  28
ENDBRANCH  23  26
ENDBRANCH  19  20
ENDBRANCH  18  19
ENDBRANCH  17  18
ENDBRANCH   2  17
TORSDOF 11
ENDMDL
MODEL      252
REMARK 921   NORMALIZED FREE ENERGY PREDICTED BY IDOCK:   -2.57 KCAL/MOL
REMARK 922        TOTAL FREE ENERGY PREDICTED BY IDOCK:   -5.78 KCAL/MOL
REMARK 923 INTER-LIGAND FREE ENERGY PREDICTED BY IDOCK:   -6.27 KCAL/MOL
REMARK 924 INTRA-LIGAND FREE ENERGY PREDICTED BY IDOCK:    0.49 KCAL/MOL
REMARK 927      BINDING AFFINITY PREDICTED BY RF-SCORE:    0.00 PKD
ROOT
HETATM    1  C   UNL     1      -9.119  14.065  66.457  1.00  0.00    -0.150 C  
HETATM    2  N   UNL     1      -9.508  13.095  67.486  1.00  0.00    -0.205 NA 
ENDROOT
BRANCH   2   3
HETATM    3  C   UNL     1      -8.668  13.224  68.697  1.00  0.00     0.032 C  
BRANCH   3   4
HETATM    4  C   UNL     1      -7.151  13.396  68.456  1.00  0.00    -0.108 C  
BRANCH   4   5
HETATM    5  C   UNL     1      -6.667  14.824  68.573  1.00  0.00    -0.097 A  
HETATM    6  C   UNL     1      -5.690  17.440  68.811  1.00  0.00    -0.160 A  
HETATM    7  C   UNL     1      -6.641  15.465  69.821  1.00  0.00    -0.170 A  
HETATM    8  C   UNL     1      -6.231  15.527  67.442  1.00  0.00    -0.072 A  
HETATM    9  C   UNL     1      -6.155  16.770  69.940  1.00  0.00    -0.194 A  
HETATM   10  C   UNL     1      -5.745  16.830  67.561  1.00  0.00    -0.173 A  
BRANCH   6  11
HETATM   11  N   UNL     1      -5.180  18.765  68.912  1.00  0.00    -0.191 N  
HETATM   12  H   UNL     1      -4.318  18.963  69.422  1.00  0.00     0.000 HD 
BRANCH  11  13
HETATM   13  S   UNL     1      -6.052  19.999  68.156  1.00  0.00    -0.257 S  
HETATM   14  O   UNL     1      -5.959  19.722  66.737  1.00  0.00    -0.173 OA 
HETATM   15  O   UNL     1      -5.671  21.286  68.691  1.00  0.00    -0.312 OA 
HETATM   16  C   UNL     1      -7.714  19.619  68.667  1.00  0.00    -0.328 C  
ENDBRANCH  11  13
ENDBRANCH   6  11
ENDBRANCH   4   5
ENDBRANCH   3   4
ENDBRANCH   2   3
BRANCH   2  17
HETATM   17  C   UNL     1      -9.451  11.732  66.910  1.00  0.00    -0.193 C  
BRANCH  17  18
HETATM   18  C   UNL     1     -10.803  11.182  66.428  1.00  0.00    -0.225 C  
BRANCH  18  19
HETATM   19  O   UNL     1     -11.810  11.480  67.402  1.00  0.00    -0.607 OA 
BRANCH  19  20
HETATM   20  C   UNL     1     -11.680  10.845  68.611  1.00  0.00    -0.263 A  
HETATM   21  C   UNL     1     -12.037  11.383  69.850  1.00  0.00    -0.404 A  
HETATM   22  C   UNL     1     -11.143   9.557  68.556  1.00  0.00    -0.035 A  
HETATM   23  C   UNL     1     -11.263   9.381  70.960  1.00  0.00    -0.342 A  
HETATM   24  C   UNL     1     -10.937   8.820  69.727  1.00  0.00    -0.146 A  
HETATM   25  C   UNL     1     -11.830  10.651  71.021  1.00  0.00    -0.396 A  
BRANCH  23  26
HETATM   26  N   UNL     1     -11.052   8.662  72.171  1.00  0.00    -0.362 N  
HETATM   27  H   UNL     1     -11.656   8.803  72.981  1.00  0.00     0.000 HD 
BRANCH  26  28
HETATM   28  S   UNL     1      -9.768   7.566  72.220  1.00  0.00    -0.168 S  
HETATM   29  O   UNL     1     -10.223   6.248  71.843  1.00  0.00    -0.197 OA 
HETATM   30  C   UNL     1      -9.352   7.574  73.952  1.00  0.00    -0.248 C  
HETATM   31  O   UNL     1      -8.684   8.217  71.510  1.00  0.00    -0.125 OA 
ENDBRANCH  26  28
ENDBRANCH  23  26
ENDBRANCH  19  20
ENDBRANCH  18  19
ENDBRANCH  17  18
ENDBRANCH   2  17
TORSDOF 11
ENDMDL
MODEL      253
REMARK 921   NORMALIZED FREE ENERGY PREDICTED BY IDOCK:   -2.51 KCAL/MOL
REMARK 922        TOTAL FREE ENERGY PREDICTED BY IDOCK:   -5.69 KCAL/MOL
REMARK 923 INTER-LIGAND FREE ENERGY PREDICTED BY IDOCK:   -4.84 KCAL/MOL
REMARK 924 INTRA-LIGAND FREE ENERGY PREDICTED BY IDOCK:   -0.85 KCAL/MOL
REMARK 927      BINDING AFFINITY PREDICTED BY RF-SCORE:    0.00 PKD
ROOT
HETATM    1  C   UNL     1      -5.428  10.228  68.506  1.00  0.00    -0.038 C  
HETATM    2  N   UNL     1      -5.955  10.491  69.849  1.00  0.00    -0.056 NA 
ENDROOT
BRANCH   2   3
HETATM    3  C   UNL     1      -7.295   9.894  70.032  1.00  0.00    -0.156 C  
BRANCH   3   4
HETATM    4  C   UNL     1      -7.922   9.235  68.782  1.00  0.00    -0.099 C  
BRANCH   4   5
HETATM    5  C   UNL     1      -8.282   7.779  68.968  1.00  0.00    -0.126 A  
HETATM    6  C   UNL     1      -8.872   5.066  69.353  1.00  0.00    -0.091 A  
HETATM    7  C   UNL     1      -7.868   6.819  68.033  1.00  0.00    -0.113 A  
HETATM    8  C   UNL     1      -9.029   7.363  70.079  1.00  0.00    -0.144 A  
HETATM    9  C   UNL     1      -8.163   5.467  68.223  1.00  0.00    -0.095 A  
HETATM   10  C   UNL     1      -9.323   6.011  70.270  1.00  0.00    -0.176 A  
BRANCH   6  11
HETATM   11  N   UNL     1      -9.173   3.692  69.572  1.00  0.00    -0.140 N  
HETATM   12  H   UNL     1     -10.068   3.294  69.284  1.00  0.00     0.000 HD 
BRANCH  11  13
HETATM   13  S   UNL     1      -7.995   2.743  70.325  1.00  0.00    -0.041 S  
HETATM   14  O   UNL     1      -7.013   3.681  70.831  1.00  0.00    -0.032 OA 
HETATM   15  O   UNL     1      -7.607   1.646  69.468  1.00  0.00    -0.042 OA 
HETATM   16  C   UNL     1      -8.895   2.107  71.723  1.00  0.00    -0.073 C  
ENDBRANCH  11  13
ENDBRANCH   6  11
ENDBRANCH   4   5
ENDBRANCH   3   4
ENDBRANCH   2   3
BRANCH   2  17
HETATM   17  C   UNL     1      -5.959  11.954  70.087  1.00  0.00    -0.159 C  
BRANCH  17  18
HETATM   18  C   UNL     1      -6.112  12.809  68.819  1.00  0.00    -0.071 C  
BRANCH  18  19
HETATM   19  O   UNL     1      -7.364  13.504  68.863  1.00  0.00    -0.101 OA 
BRANCH  19  20
HETATM   20  C   UNL     1      -8.171  13.351  67.765  1.00  0.00    -0.172 A  
HETATM   21  C   UNL     1      -8.500  12.133  67.165  1.00  0.00    -0.182 A  
HETATM   22  C   UNL     1      -8.688  14.535  67.234  1.00  0.00    -0.225 A  
HETATM   23  C   UNL     1      -9.794  13.292  65.486  1.00  0.00    -0.136 A  
HETATM   24  C   UNL     1      -9.503  14.509  66.097  1.00  0.00    -0.290 A  
HETATM   25  C   UNL     1      -9.311  12.105  66.028  1.00  0.00    -0.174 A  
BRANCH  23  26
HETATM   26  N   UNL     1     -10.610  13.234  64.319  1.00  0.00    -0.477 N  
HETATM   27  H   UNL     1     -10.197  13.211  63.387  1.00  0.00     0.000 HD 
BRANCH  26  28
HETATM   28  S   UNL     1     -12.285  13.202  64.534  1.00  0.00    -0.405 S  
HETATM   29  O   UNL     1     -12.905  12.407  63.500  1.00  0.00    -0.749 OA 
HETATM   30  C   UNL     1     -12.711  14.916  64.296  1.00  0.00     0.250 C  
HETATM   31  O   UNL     1     -12.484  12.896  65.937  1.00  0.00    -0.527 OA 
ENDBRANCH  26  28
ENDBRANCH  23  26
ENDBRANCH  19  20
ENDBRANCH  18  19
ENDBRANCH  17  18
ENDBRANCH   2  17
TORSDOF 11
ENDMDL
MODEL      254
REMARK 921   NORMALIZED FREE ENERGY PREDICTED BY IDOCK:   -2.49 KCAL/MOL
REMARK 922        TOTAL FREE ENERGY PREDICTED BY IDOCK:   -5.66 KCAL/MOL
REMARK 923 INTER-LIGAND FREE ENERGY PREDICTED BY IDOCK:   -5.27 KCAL/MOL
REMARK 924 INTRA-LIGAND FREE ENERGY PREDICTED BY IDOCK:   -0.39 KCAL/MOL
REMARK 927      BINDING AFFINITY PREDICTED BY RF-SCORE:    0.00 PKD
ROOT
HETATM    1  C   UNL     1      -5.356  14.310  71.999  1.00  0.00    -0.187 C  
HETATM    2  N   UNL     1      -5.561  13.726  70.669  1.00  0.00    -0.148 NA 
ENDROOT
BRANCH   2   3
HETATM    3  C   UNL     1      -6.960  13.884  70.218  1.00  0.00     0.465 C  
BRANCH   3   4
HETATM    4  C   UNL     1      -7.209  14.965  69.141  1.00  0.00    -0.153 C  
BRANCH   4   5
HETATM    5  C   UNL     1      -8.562  14.870  68.473  1.00  0.00    -0.162 A  
HETATM    6  C   UNL     1     -11.028  14.684  67.156  1.00  0.00    -0.316 A  
HETATM    7  C   UNL     1      -9.169  16.013  67.932  1.00  0.00    -0.196 A  
HETATM    8  C   UNL     1      -9.227  13.640  68.377  1.00  0.00    -0.169 A  
HETATM    9  C   UNL     1     -10.399  15.922  67.276  1.00  0.00    -0.293 A  
HETATM   10  C   UNL     1     -10.456  13.548  67.721  1.00  0.00    -0.242 A  
BRANCH   6  11
HETATM   11  N   UNL     1     -12.277  14.568  66.481  1.00  0.00    -0.401 N  
HETATM   12  H   UNL     1     -13.141  14.908  66.905  1.00  0.00     0.000 HD 
BRANCH  11  13
HETATM   13  S   UNL     1     -12.277  13.845  64.954  1.00  0.00    -0.426 S  
HETATM   14  O   UNL     1     -12.618  14.905  64.027  1.00  0.00    -0.832 OA 
HETATM   15  O   UNL     1     -13.024  12.609  64.981  1.00  0.00    -0.812 OA 
HETATM   16  C   UNL     1     -10.548  13.481  64.736  1.00  0.00    -0.417 C  
ENDBRANCH  11  13
ENDBRANCH   6  11
ENDBRANCH   4   5
ENDBRANCH   3   4
ENDBRANCH   2   3
BRANCH   2  17
HETATM   17  C   UNL     1      -5.141  12.306  70.697  1.00  0.00    -0.120 C  
BRANCH  17  18
HETATM   18  C   UNL     1      -5.998  11.367  69.833  1.00  0.00    -0.122 C  
BRANCH  18  19
HETATM   19  O   UNL     1      -6.036  10.068  70.438  1.00  0.00    -0.070 OA 
BRANCH  19  20
HETATM   20  C   UNL     1      -6.823   9.138  69.808  1.00  0.00    -0.051 A  
HETATM   21  C   UNL     1      -7.078   7.845  70.271  1.00  0.00    -0.049 A  
HETATM   22  C   UNL     1      -7.399   9.557  68.606  1.00  0.00    -0.075 A  
HETATM   23  C   UNL     1      -8.416   7.388  68.313  1.00  0.00    -0.125 A  
HETATM   24  C   UNL     1      -8.200   8.687  67.858  1.00  0.00    -0.115 A  
HETATM   25  C   UNL     1      -7.874   6.974  69.526  1.00  0.00    -0.119 A  
BRANCH  23  26
HETATM   26  N   UNL     1      -9.216   6.475  67.568  1.00  0.00    -0.114 N  
HETATM   27  H   UNL     1     -10.046   6.046  67.976  1.00  0.00     0.000 HD 
BRANCH  26  28
HETATM   28  S   UNL     1      -8.741   6.127  65.985  1.00  0.00    -0.152 S  
HETATM   29  O   UNL     1      -9.245   7.133  65.081  1.00  0.00     0.395 OA 
HETATM   30  C   UNL     1      -9.586   4.587  65.684  1.00  0.00    -0.187 C  
HETATM   31  O   UNL     1      -7.323   5.835  66.068  1.00  0.00    -0.074 OA 
ENDBRANCH  26  28
ENDBRANCH  23  26
ENDBRANCH  19  20
ENDBRANCH  18  19
ENDBRANCH  17  18
ENDBRANCH   2  17
TORSDOF 11
ENDMDL
MODEL      255
REMARK 921   NORMALIZED FREE ENERGY PREDICTED BY IDOCK:   -2.46 KCAL/MOL
REMARK 922        TOTAL FREE ENERGY PREDICTED BY IDOCK:   -5.61 KCAL/MOL
REMARK 923 INTER-LIGAND FREE ENERGY PREDICTED BY IDOCK:   -6.95 KCAL/MOL
REMARK 924 INTRA-LIGAND FREE ENERGY PREDICTED BY IDOCK:    1.34 KCAL/MOL
REMARK 927      BINDING AFFINITY PREDICTED BY RF-SCORE:    0.00 PKD
ROOT
HETATM    1  C   UNL     1      -8.367  14.062  68.496  1.00  0.00    -0.143 C  
HETATM    2  N   UNL     1      -9.301  13.498  67.517  1.00  0.00    -0.212 NA 
ENDROOT
BRANCH   2   3
HETATM    3  C   UNL     1     -10.571  14.255  67.480  1.00  0.00    -0.261 C  
BRANCH   3   4
HETATM    4  C   UNL     1     -10.660  15.477  68.422  1.00  0.00    -0.252 C  
BRANCH   4   5
HETATM    5  C   UNL     1     -10.018  16.730  67.870  1.00  0.00    -0.268 A  
HETATM    6  C   UNL     1      -8.897  19.097  66.872  1.00  0.00    -0.305 A  
HETATM    7  C   UNL     1     -10.336  17.181  66.580  1.00  0.00    -0.310 A  
HETATM    8  C   UNL     1      -9.101  17.462  68.636  1.00  0.00    -0.261 A  
HETATM    9  C   UNL     1      -9.777  18.360  66.082  1.00  0.00    -0.236 A  
HETATM   10  C   UNL     1      -8.543  18.641  68.139  1.00  0.00    -0.332 A  
BRANCH   6  11
HETATM   11  N   UNL     1      -8.325  20.307  66.388  1.00  0.00    -0.526 N  
HETATM   12  H   UNL     1      -8.903  21.127  66.201  1.00  0.00     0.000 HD 
BRANCH  11  13
HETATM   13  S   UNL     1      -6.655  20.337  66.135  1.00  0.00    -0.238 S  
HETATM   14  O   UNL     1      -6.081  20.735  67.405  1.00  0.00    -0.210 OA 
HETATM   15  O   UNL     1      -6.342  21.051  64.918  1.00  0.00    -0.252 OA 
HETATM   16  C   UNL     1      -6.302  18.607  65.908  1.00  0.00    -0.233 C  
ENDBRANCH  11  13
ENDBRANCH   6  11
ENDBRANCH   4   5
ENDBRANCH   3   4
ENDBRANCH   2   3
BRANCH   2  17
HETATM   17  C   UNL     1      -9.516  12.064  67.826  1.00  0.00    -0.190 C  
BRANCH  17  18
HETATM   18  C   UNL     1     -10.985  11.615  67.798  1.00  0.00    -0.233 C  
BRANCH  18  19
HETATM   19  O   UNL     1     -11.084  10.356  67.123  1.00  0.00    -0.244 OA 
BRANCH  19  20
HETATM   20  C   UNL     1     -10.524   9.284  67.771  1.00  0.00    -0.255 A  
HETATM   21  C   UNL     1     -10.581   7.957  67.339  1.00  0.00    -0.342 A  
HETATM   22  C   UNL     1      -9.849   9.588  68.956  1.00  0.00    -0.178 A  
HETATM   23  C   UNL     1      -9.355   7.250  69.297  1.00  0.00    -0.154 A  
HETATM   24  C   UNL     1      -9.260   8.574  69.719  1.00  0.00    -0.157 A  
HETATM   25  C   UNL     1      -9.996   6.943  68.100  1.00  0.00    -0.170 A  
BRANCH  23  26
HETATM   26  N   UNL     1      -8.777   6.194  70.059  1.00  0.00    -0.135 N  
HETATM   27  H   UNL     1      -7.781   5.983  69.997  1.00  0.00     0.000 HD 
BRANCH  26  28
HETATM   28  S   UNL     1      -9.798   5.305  71.068  1.00  0.00    -0.202 S  
HETATM   29  O   UNL     1      -9.998   3.979  70.532  1.00  0.00    -0.187 OA 
HETATM   30  C   UNL     1     -11.318   6.226  70.947  1.00  0.00    -0.325 C  
HETATM   31  O   UNL     1      -9.276   5.502  72.407  1.00  0.00    -0.144 OA 
ENDBRANCH  26  28
ENDBRANCH  23  26
ENDBRANCH  19  20
ENDBRANCH  18  19
ENDBRANCH  17  18
ENDBRANCH   2  17
TORSDOF 11
ENDMDL
MODEL      256
REMARK 921   NORMALIZED FREE ENERGY PREDICTED BY IDOCK:   -2.46 KCAL/MOL
REMARK 922        TOTAL FREE ENERGY PREDICTED BY IDOCK:   -5.60 KCAL/MOL
REMARK 923 INTER-LIGAND FREE ENERGY PREDICTED BY IDOCK:   -4.72 KCAL/MOL
REMARK 924 INTRA-LIGAND FREE ENERGY PREDICTED BY IDOCK:   -0.88 KCAL/MOL
REMARK 927      BINDING AFFINITY PREDICTED BY RF-SCORE:    0.00 PKD
ROOT
HETATM    1  C   UNL     1      -9.076   3.255  67.468  1.00  0.00    -0.173 C  
HETATM    2  N   UNL     1      -9.938   3.526  66.313  1.00  0.00     0.086 NA 
ENDROOT
BRANCH   2   3
HETATM    3  C   UNL     1      -9.240   3.252  65.039  1.00  0.00    -0.148 C  
BRANCH   3   4
HETATM    4  C   UNL     1      -7.699   3.368  65.069  1.00  0.00    -0.081 C  
BRANCH   4   5
HETATM    5  C   UNL     1      -7.173   4.709  64.608  1.00  0.00    -0.063 A  
HETATM    6  C   UNL     1      -6.281   7.222  63.747  1.00  0.00    -0.045 A  
HETATM    7  C   UNL     1      -7.059   4.994  63.239  1.00  0.00    -0.047 A  
HETATM    8  C   UNL     1      -6.798   5.688  65.538  1.00  0.00    -0.056 A  
HETATM    9  C   UNL     1      -6.613   6.246  62.809  1.00  0.00    -0.037 A  
HETATM   10  C   UNL     1      -6.353   6.940  65.108  1.00  0.00    -0.039 A  
BRANCH   6  11
HETATM   11  N   UNL     1      -5.836   8.508  63.329  1.00  0.00    -0.076 N  
HETATM   12  H   UNL     1      -4.908   8.641  62.926  1.00  0.00     0.000 HD 
BRANCH  11  13
HETATM   13  S   UNL     1      -6.900   9.806  63.526  1.00  0.00    -0.121 S  
HETATM   14  O   UNL     1      -6.584  10.727  62.453  1.00  0.00    -0.137 OA 
HETATM   15  O   UNL     1      -6.913  10.242  64.904  1.00  0.00    -0.136 OA 
HETATM   16  C   UNL     1      -8.461   9.045  63.135  1.00  0.00    -0.183 C  
ENDBRANCH  11  13
ENDBRANCH   6  11
ENDBRANCH   4   5
ENDBRANCH   3   4
ENDBRANCH   2   3
BRANCH   2  17
HETATM   17  C   UNL     1     -10.425   4.923  66.393  1.00  0.00    -0.280 C  
BRANCH  17  18
HETATM   18  C   UNL     1      -9.964   5.692  67.641  1.00  0.00    -0.150 C  
BRANCH  18  19
HETATM   19  O   UNL     1     -10.965   6.650  68.006  1.00  0.00    -0.263 OA 
BRANCH  19  20
HETATM   20  C   UNL     1     -10.517   7.925  68.238  1.00  0.00    -0.164 A  
HETATM   21  C   UNL     1     -10.272   8.480  69.497  1.00  0.00    -0.206 A  
HETATM   22  C   UNL     1     -10.300   8.700  67.096  1.00  0.00    -0.369 A  
HETATM   23  C   UNL     1      -9.663  10.580  68.469  1.00  0.00    -0.165 A  
HETATM   24  C   UNL     1      -9.869  10.027  67.208  1.00  0.00    -0.225 A  
HETATM   25  C   UNL     1      -9.844   9.805  69.610  1.00  0.00    -0.241 A  
BRANCH  23  26
HETATM   26  N   UNL     1      -9.237  11.932  68.616  1.00  0.00    -0.371 N  
HETATM   27  H   UNL     1      -8.293  12.156  68.932  1.00  0.00     0.000 HD 
BRANCH  26  28
HETATM   28  S   UNL     1     -10.348  13.149  68.248  1.00  0.00    -0.255 S  
HETATM   29  O   UNL     1     -10.109  14.308  69.076  1.00  0.00    -0.209 OA 
HETATM   30  C   UNL     1     -11.887  12.390  68.725  1.00  0.00    -0.311 C  
HETATM   31  O   UNL     1     -10.341  13.247  66.801  1.00  0.00    -0.253 OA 
ENDBRANCH  26  28
ENDBRANCH  23  26
ENDBRANCH  19  20
ENDBRANCH  18  19
ENDBRANCH  17  18
ENDBRANCH   2  17
TORSDOF 11
ENDMDL
MODEL      257
REMARK 921   NORMALIZED FREE ENERGY PREDICTED BY IDOCK:   -2.44 KCAL/MOL
REMARK 922        TOTAL FREE ENERGY PREDICTED BY IDOCK:   -5.57 KCAL/MOL
REMARK 923 INTER-LIGAND FREE ENERGY PREDICTED BY IDOCK:   -5.97 KCAL/MOL
REMARK 924 INTRA-LIGAND FREE ENERGY PREDICTED BY IDOCK:    0.40 KCAL/MOL
REMARK 927      BINDING AFFINITY PREDICTED BY RF-SCORE:    0.00 PKD
ROOT
HETATM    1  C   UNL     1     -11.815  15.601  66.943  1.00  0.00     0.473 C  
HETATM    2  N   UNL     1     -10.636  15.427  66.087  1.00  0.00    -0.306 NA 
ENDROOT
BRANCH   2   3
HETATM    3  C   UNL     1     -10.293  16.678  65.376  1.00  0.00    -0.190 C  
BRANCH   3   4
HETATM    4  C   UNL     1     -10.567  17.992  66.143  1.00  0.00    -0.269 C  
BRANCH   4   5
HETATM    5  C   UNL     1      -9.348  18.573  66.823  1.00  0.00    -0.297 A  
HETATM    6  C   UNL     1      -7.141  19.714  68.121  1.00  0.00    -0.292 A  
HETATM    7  C   UNL     1      -8.644  19.635  66.234  1.00  0.00    -0.393 A  
HETATM    8  C   UNL     1      -8.906  18.068  68.053  1.00  0.00    -0.278 A  
HETATM    9  C   UNL     1      -7.543  20.203  66.880  1.00  0.00    -0.331 A  
HETATM   10  C   UNL     1      -7.806  18.636  68.699  1.00  0.00    -0.349 A  
BRANCH   6  11
HETATM   11  N   UNL     1      -6.029  20.286  68.801  1.00  0.00    -0.281 N  
HETATM   12  H   UNL     1      -5.352  20.871  68.310  1.00  0.00     0.000 HD 
BRANCH  11  13
HETATM   13  S   UNL     1      -5.869  19.961  70.451  1.00  0.00    -0.324 S  
HETATM   14  O   UNL     1      -5.163  21.100  71.001  1.00  0.00    -0.536 OA 
HETATM   15  O   UNL     1      -5.386  18.614  70.655  1.00  0.00    -0.230 OA 
HETATM   16  C   UNL     1      -7.560  20.068  70.997  1.00  0.00     1.371 C  
ENDBRANCH  11  13
ENDBRANCH   6  11
ENDBRANCH   4   5
ENDBRANCH   3   4
ENDBRANCH   2   3
BRANCH   2  17
HETATM   17  C   UNL     1     -10.881  14.304  65.152  1.00  0.00    -0.378 C  
BRANCH  17  18
HETATM   18  C   UNL     1     -11.702  13.146  65.743  1.00  0.00    -0.374 C  
BRANCH  18  19
HETATM   19  O   UNL     1     -10.885  11.971  65.812  1.00  0.00    -0.268 OA 
BRANCH  19  20
HETATM   20  C   UNL     1     -10.743  11.414  67.057  1.00  0.00    -0.261 A  
HETATM   21  C   UNL     1     -11.774  11.221  67.980  1.00  0.00    -0.305 A  
HETATM   22  C   UNL     1      -9.445  11.020  67.392  1.00  0.00    -0.173 A  
HETATM   23  C   UNL     1     -10.201  10.310  69.571  1.00  0.00    -0.236 A  
HETATM   24  C   UNL     1      -9.171  10.463  68.646  1.00  0.00    -0.164 A  
HETATM   25  C   UNL     1     -11.502  10.669  69.233  1.00  0.00    -0.351 A  
BRANCH  23  26
HETATM   26  N   UNL     1      -9.951   9.759  70.861  1.00  0.00    -0.314 N  
HETATM   27  H   UNL     1      -9.515  10.314  71.596  1.00  0.00     0.000 HD 
BRANCH  26  28
HETATM   28  S   UNL     1     -10.403   8.154  71.129  1.00  0.00    -0.203 S  
HETATM   29  O   UNL     1     -10.600   7.474  69.871  1.00  0.00    -0.228 OA 
HETATM   30  C   UNL     1     -11.974   8.352  71.945  1.00  0.00    -0.338 C  
HETATM   31  O   UNL     1      -9.463   7.653  72.113  1.00  0.00    -0.146 OA 
ENDBRANCH  26  28
ENDBRANCH  23  26
ENDBRANCH  19  20
ENDBRANCH  18  19
ENDBRANCH  17  18
ENDBRANCH   2  17
TORSDOF 11
ENDMDL
MODEL      258
REMARK 921   NORMALIZED FREE ENERGY PREDICTED BY IDOCK:   -2.33 KCAL/MOL
REMARK 922        TOTAL FREE ENERGY PREDICTED BY IDOCK:   -5.38 KCAL/MOL
REMARK 923 INTER-LIGAND FREE ENERGY PREDICTED BY IDOCK:   -5.21 KCAL/MOL
REMARK 924 INTRA-LIGAND FREE ENERGY PREDICTED BY IDOCK:   -0.17 KCAL/MOL
REMARK 927      BINDING AFFINITY PREDICTED BY RF-SCORE:    0.00 PKD
ROOT
HETATM    1  C   UNL     1      -5.145  10.798  68.494  1.00  0.00    -0.037 C  
HETATM    2  N   UNL     1      -5.856  11.352  69.651  1.00  0.00    -0.076 NA 
ENDROOT
BRANCH   2   3
HETATM    3  C   UNL     1      -7.272  10.927  69.672  1.00  0.00    -0.095 C  
BRANCH   3   4
HETATM    4  C   UNL     1      -7.698   9.929  68.571  1.00  0.00    -0.081 C  
BRANCH   4   5
HETATM    5  C   UNL     1      -8.428   8.711  69.092  1.00  0.00    -0.124 A  
HETATM    6  C   UNL     1      -9.715   6.441  70.116  1.00  0.00    -0.166 A  
HETATM    7  C   UNL     1      -8.125   7.435  68.596  1.00  0.00    -0.125 A  
HETATM    8  C   UNL     1      -9.412   8.836  70.082  1.00  0.00    -0.182 A  
HETATM    9  C   UNL     1      -8.767   6.303  69.104  1.00  0.00    -0.123 A  
HETATM   10  C   UNL     1     -10.053   7.705  70.592  1.00  0.00    -0.187 A  
BRANCH   6  11
HETATM   11  N   UNL     1     -10.372   5.300  70.656  1.00  0.00    -0.257 N  
HETATM   12  H   UNL     1     -11.171   4.877  70.183  1.00  0.00     0.000 HD 
BRANCH  11  13
HETATM   13  S   UNL     1      -9.782   4.672  72.109  1.00  0.00    -0.172 S  
HETATM   14  O   UNL     1      -8.514   5.338  72.329  1.00  0.00    -0.123 OA 
HETATM   15  O   UNL     1      -9.877   3.230  72.110  1.00  0.00    -0.149 OA 
HETATM   16  C   UNL     1     -10.945   5.338  73.280  1.00  0.00    -0.313 C  
ENDBRANCH  11  13
ENDBRANCH   6  11
ENDBRANCH   4   5
ENDBRANCH   3   4
ENDBRANCH   2   3
BRANCH   2  17
HETATM   17  C   UNL     1      -5.717  12.827  69.641  1.00  0.00    -0.105 C  
BRANCH  17  18
HETATM   18  C   UNL     1      -6.089  13.497  68.308  1.00  0.00    -0.102 C  
BRANCH  18  19
HETATM   19  O   UNL     1      -5.664  14.865  68.329  1.00  0.00    -0.098 OA 
BRANCH  19  20
HETATM   20  C   UNL     1      -6.569  15.779  67.853  1.00  0.00    -0.148 A  
HETATM   21  C   UNL     1      -7.934  15.547  67.669  1.00  0.00    -0.168 A  
HETATM   22  C   UNL     1      -6.042  17.035  67.540  1.00  0.00    -0.163 A  
HETATM   23  C   UNL     1      -8.216  17.786  66.806  1.00  0.00    -0.250 A  
HETATM   24  C   UNL     1      -6.863  18.042  67.020  1.00  0.00    -0.213 A  
HETATM   25  C   UNL     1      -8.755  16.549  67.147  1.00  0.00    -0.216 A  
BRANCH  23  26
HETATM   26  N   UNL     1      -9.074  18.786  66.266  1.00  0.00    -0.286 N  
HETATM   27  H   UNL     1      -9.137  18.940  65.260  1.00  0.00     0.000 HD 
BRANCH  26  28
HETATM   28  S   UNL     1      -9.984  19.708  67.350  1.00  0.00    -0.416 S  
HETATM   29  O   UNL     1      -9.626  21.103  67.240  1.00  0.00    -0.335 OA 
HETATM   30  C   UNL     1      -9.424  19.078  68.920  1.00  0.00    -0.342 C  
HETATM   31  O   UNL     1     -11.353  19.269  67.169  1.00  0.00    -0.160 OA 
ENDBRANCH  26  28
ENDBRANCH  23  26
ENDBRANCH  19  20
ENDBRANCH  18  19
ENDBRANCH  17  18
ENDBRANCH   2  17
TORSDOF 11
ENDMDL
MODEL      259
REMARK 921   NORMALIZED FREE ENERGY PREDICTED BY IDOCK:   -2.32 KCAL/MOL
REMARK 922        TOTAL FREE ENERGY PREDICTED BY IDOCK:   -5.38 KCAL/MOL
REMARK 923 INTER-LIGAND FREE ENERGY PREDICTED BY IDOCK:   -4.28 KCAL/MOL
REMARK 924 INTRA-LIGAND FREE ENERGY PREDICTED BY IDOCK:   -1.10 KCAL/MOL
REMARK 927      BINDING AFFINITY PREDICTED BY RF-SCORE:    0.00 PKD
ROOT
HETATM    1  C   UNL     1      -9.450  11.528  68.080  1.00  0.00    -0.184 C  
HETATM    2  N   UNL     1      -8.567  10.357  68.081  1.00  0.00    -0.122 NA 
ENDROOT
BRANCH   2   3
HETATM    3  C   UNL     1      -7.167  10.734  67.788  1.00  0.00    -0.088 C  
BRANCH   3   4
HETATM    4  C   UNL     1      -6.087   9.710  68.206  1.00  0.00    -0.051 C  
BRANCH   4   5
HETATM    5  C   UNL     1      -6.464   8.871  69.407  1.00  0.00    -0.044 A  
HETATM    6  C   UNL     1      -7.248   7.314  71.601  1.00  0.00    -0.075 A  
HETATM    7  C   UNL     1      -6.983   9.476  70.561  1.00  0.00    -0.124 A  
HETATM    8  C   UNL     1      -6.310   7.479  69.383  1.00  0.00    -0.032 A  
HETATM    9  C   UNL     1      -7.372   8.701  71.656  1.00  0.00    -0.117 A  
HETATM   10  C   UNL     1      -6.699   6.703  70.477  1.00  0.00    -0.057 A  
BRANCH   6  11
HETATM   11  N   UNL     1      -7.650   6.505  72.701  1.00  0.00    -0.101 N  
HETATM   12  H   UNL     1      -7.035   6.360  73.503  1.00  0.00     0.000 HD 
BRANCH  11  13
HETATM   13  S   UNL     1      -9.180   5.793  72.632  1.00  0.00    -0.136 S  
HETATM   14  O   UNL     1      -8.962   4.463  72.102  1.00  0.00    -0.117 OA 
HETATM   15  O   UNL     1     -10.127   6.695  72.016  1.00  0.00    -0.184 OA 
HETATM   16  C   UNL     1      -9.570   5.623  74.360  1.00  0.00    -0.171 C  
ENDBRANCH  11  13
ENDBRANCH   6  11
ENDBRANCH   4   5
ENDBRANCH   3   4
ENDBRANCH   2   3
BRANCH   2  17
HETATM   17  C   UNL     1      -9.089   9.360  67.118  1.00  0.00    -0.130 C  
BRANCH  17  18
HETATM   18  C   UNL     1     -10.529   8.899  67.390  1.00  0.00    -0.277 C  
BRANCH  18  19
HETATM   19  O   UNL     1     -10.526   7.922  68.439  1.00  0.00    -0.205 OA 
BRANCH  19  20
HETATM   20  C   UNL     1     -10.258   6.633  68.055  1.00  0.00    -0.167 A  
HETATM   21  C   UNL     1      -9.532   5.700  68.801  1.00  0.00    -0.155 A  
HETATM   22  C   UNL     1     -10.771   6.261  66.810  1.00  0.00    -0.364 A  
HETATM   23  C   UNL     1      -9.783   4.070  67.036  1.00  0.00    -0.178 A  
HETATM   24  C   UNL     1     -10.540   4.979  66.299  1.00  0.00    -0.332 A  
HETATM   25  C   UNL     1      -9.297   4.422  68.292  1.00  0.00    -0.199 A  
BRANCH  23  26
HETATM   26  N   UNL     1      -9.519   2.763  66.537  1.00  0.00    -0.390 N  
HETATM   27  H   UNL     1     -10.252   2.053  66.501  1.00  0.00     0.000 HD 
BRANCH  26  28
HETATM   28  S   UNL     1      -7.952   2.427  66.006  1.00  0.00    -0.084 S  
HETATM   29  O   UNL     1      -7.099   2.124  67.131  1.00  0.00    -0.046 OA 
HETATM   30  C   UNL     1      -7.466   3.989  65.301  1.00  0.00    -0.080 C  
HETATM   31  O   UNL     1      -8.112   1.488  64.913  1.00  0.00    -0.071 OA 
ENDBRANCH  26  28
ENDBRANCH  23  26
ENDBRANCH  19  20
ENDBRANCH  18  19
ENDBRANCH  17  18
ENDBRANCH   2  17
TORSDOF 11
ENDMDL
MODEL      260
REMARK 921   NORMALIZED FREE ENERGY PREDICTED BY IDOCK:   -2.27 KCAL/MOL
REMARK 922        TOTAL FREE ENERGY PREDICTED BY IDOCK:   -5.30 KCAL/MOL
REMARK 923 INTER-LIGAND FREE ENERGY PREDICTED BY IDOCK:   -5.01 KCAL/MOL
REMARK 924 INTRA-LIGAND FREE ENERGY PREDICTED BY IDOCK:   -0.28 KCAL/MOL
REMARK 927      BINDING AFFINITY PREDICTED BY RF-SCORE:    0.00 PKD
ROOT
HETATM    1  C   UNL     1     -12.602  13.052  66.106  1.00  0.00     0.071 C  
HETATM    2  N   UNL     1     -12.054  13.263  67.450  1.00  0.00    -0.325 NA 
ENDROOT
BRANCH   2   3
HETATM    3  C   UNL     1     -11.511  14.629  67.606  1.00  0.00    -0.346 C  
BRANCH   3   4
HETATM    4  C   UNL     1     -10.929  15.278  66.330  1.00  0.00    -0.300 C  
BRANCH   4   5
HETATM    5  C   UNL     1      -9.833  16.287  66.596  1.00  0.00    -0.265 A  
HETATM    6  C   UNL     1      -7.829  18.158  67.174  1.00  0.00    -0.218 A  
HETATM    7  C   UNL     1     -10.112  17.661  66.568  1.00  0.00    -0.350 A  
HETATM    8  C   UNL     1      -8.527  15.866  66.880  1.00  0.00    -0.275 A  
HETATM    9  C   UNL     1      -9.112  18.595  66.855  1.00  0.00    -0.295 A  
HETATM   10  C   UNL     1      -7.528  16.799  67.167  1.00  0.00    -0.216 A  
BRANCH   6  11
HETATM   11  N   UNL     1      -6.798  19.092  67.480  1.00  0.00    -0.204 N  
HETATM   12  H   UNL     1      -6.222  19.503  66.746  1.00  0.00     0.000 HD 
BRANCH  11  13
HETATM   13  S   UNL     1      -6.567  19.495  69.104  1.00  0.00    -0.339 S  
HETATM   14  O   UNL     1      -6.319  20.923  69.114  1.00  0.00    -0.160 OA 
HETATM   15  O   UNL     1      -5.643  18.574  69.726  1.00  0.00    -0.211 OA 
HETATM   16  C   UNL     1      -8.196  19.232  69.770  1.00  0.00     0.614 C  
ENDBRANCH  11  13
ENDBRANCH   6  11
ENDBRANCH   4   5
ENDBRANCH   3   4
ENDBRANCH   2   3
BRANCH   2  17
HETATM   17  C   UNL     1     -11.035  12.223  67.723  1.00  0.00    -0.232 C  
BRANCH  17  18
HETATM   18  C   UNL     1     -11.607  10.850  68.110  1.00  0.00    -0.241 C  
BRANCH  18  19
HETATM   19  O   UNL     1     -11.356  10.605  69.499  1.00  0.00    -0.237 OA 
BRANCH  19  20
HETATM   20  C   UNL     1     -10.613   9.488  69.785  1.00  0.00    -0.236 A  
HETATM   21  C   UNL     1     -10.434   8.938  71.057  1.00  0.00    -0.316 A  
HETATM   22  C   UNL     1     -10.001   8.879  68.686  1.00  0.00    -0.192 A  
HETATM   23  C   UNL     1      -8.995   7.231  70.134  1.00  0.00    -0.148 A  
HETATM   24  C   UNL     1      -9.196   7.748  68.856  1.00  0.00    -0.140 A  
HETATM   25  C   UNL     1      -9.627   7.812  71.230  1.00  0.00    -0.178 A  
BRANCH  23  26
HETATM   26  N   UNL     1      -8.169   6.089  70.341  1.00  0.00    -0.114 N  
HETATM   27  H   UNL     1      -8.520   5.147  70.171  1.00  0.00     0.000 HD 
BRANCH  26  28
HETATM   28  S   UNL     1      -6.590   6.350  70.879  1.00  0.00    -0.054 S  
HETATM   29  O   UNL     1      -6.013   7.487  70.201  1.00  0.00    -0.024 OA 
HETATM   30  C   UNL     1      -5.773   4.862  70.337  1.00  0.00    -0.016 C  
HETATM   31  O   UNL     1      -6.667   6.300  72.326  1.00  0.00    -0.065 OA 
ENDBRANCH  26  28
ENDBRANCH  23  26
ENDBRANCH  19  20
ENDBRANCH  18  19
ENDBRANCH  17  18
ENDBRANCH   2  17
TORSDOF 11
ENDMDL
MODEL      261
REMARK 921   NORMALIZED FREE ENERGY PREDICTED BY IDOCK:   -2.27 KCAL/MOL
REMARK 922        TOTAL FREE ENERGY PREDICTED BY IDOCK:   -5.29 KCAL/MOL
REMARK 923 INTER-LIGAND FREE ENERGY PREDICTED BY IDOCK:   -4.14 KCAL/MOL
REMARK 924 INTRA-LIGAND FREE ENERGY PREDICTED BY IDOCK:   -1.15 KCAL/MOL
REMARK 927      BINDING AFFINITY PREDICTED BY RF-SCORE:    0.00 PKD
ROOT
HETATM    1  C   UNL     1      -8.663   3.616  69.889  1.00  0.00    -0.078 C  
HETATM    2  N   UNL     1      -9.717   3.809  68.887  1.00  0.00    -0.102 NA 
ENDROOT
BRANCH   2   3
HETATM    3  C   UNL     1      -9.319   3.267  67.570  1.00  0.00    -0.206 C  
BRANCH   3   4
HETATM    4  C   UNL     1      -7.833   3.444  67.183  1.00  0.00    -0.079 C  
BRANCH   4   5
HETATM    5  C   UNL     1      -7.589   4.531  66.160  1.00  0.00    -0.090 A  
HETATM    6  C   UNL     1      -7.167   6.604  64.323  1.00  0.00    -0.070 A  
HETATM    7  C   UNL     1      -8.618   4.940  65.299  1.00  0.00    -0.142 A  
HETATM    8  C   UNL     1      -6.336   5.150  66.061  1.00  0.00    -0.039 A  
HETATM    9  C   UNL     1      -8.408   5.973  64.382  1.00  0.00    -0.021 A  
HETATM   10  C   UNL     1      -6.126   6.183  65.144  1.00  0.00    -0.030 A  
BRANCH   6  11
HETATM   11  N   UNL     1      -6.936   7.667  63.403  1.00  0.00    -0.062 N  
HETATM   12  H   UNL     1      -6.557   7.487  62.473  1.00  0.00     0.000 HD 
BRANCH  11  13
HETATM   13  S   UNL     1      -7.314   9.234  63.907  1.00  0.00    -0.106 S  
HETATM   14  O   UNL     1      -6.056   9.815  64.332  1.00  0.00    -0.090 OA 
HETATM   15  O   UNL     1      -8.462   9.218  64.785  1.00  0.00    -0.154 OA 
HETATM   16  C   UNL     1      -7.763  10.002  62.366  1.00  0.00    -0.125 C  
ENDBRANCH  11  13
ENDBRANCH   6  11
ENDBRANCH   4   5
ENDBRANCH   3   4
ENDBRANCH   2   3
BRANCH   2  17
HETATM   17  C   UNL     1     -10.058   5.249  68.817  1.00  0.00    -0.177 C  
BRANCH  17  18
HETATM   18  C   UNL     1      -8.877   6.200  69.067  1.00  0.00    -0.123 C  
BRANCH  18  19
HETATM   19  O   UNL     1      -9.151   7.005  70.220  1.00  0.00    -0.155 OA 
BRANCH  19  20
HETATM   20  C   UNL     1      -9.403   8.331  69.978  1.00  0.00    -0.162 A  
HETATM   21  C   UNL     1     -10.083   9.197  70.837  1.00  0.00    -0.356 A  
HETATM   22  C   UNL     1      -8.922   8.818  68.760  1.00  0.00    -0.138 A  
HETATM   23  C   UNL     1      -9.853  10.993  69.238  1.00  0.00    -0.035 A  
HETATM   24  C   UNL     1      -9.141  10.150  68.389  1.00  0.00    -0.133 A  
HETATM   25  C   UNL     1     -10.306  10.525  70.468  1.00  0.00     0.408 A  
BRANCH  23  26
HETATM   26  N   UNL     1     -10.104  12.349  68.883  1.00  0.00    -0.428 N  
HETATM   27  H   UNL     1      -9.576  13.113  69.307  1.00  0.00     0.000 HD 
BRANCH  26  28
HETATM   28  S   UNL     1     -11.305  12.650  67.734  1.00  0.00    -0.319 S  
HETATM   29  O   UNL     1     -12.279  11.585  67.741  1.00  0.00    -0.560 OA 
HETATM   30  C   UNL     1     -10.376  12.591  66.215  1.00  0.00    -0.250 C  
HETATM   31  O   UNL     1     -11.700  14.029  67.948  1.00  0.00    -0.322 OA 
ENDBRANCH  26  28
ENDBRANCH  23  26
ENDBRANCH  19  20
ENDBRANCH  18  19
ENDBRANCH  17  18
ENDBRANCH   2  17
TORSDOF 11
ENDMDL
MODEL      262
REMARK 921   NORMALIZED FREE ENERGY PREDICTED BY IDOCK:   -2.20 KCAL/MOL
REMARK 922        TOTAL FREE ENERGY PREDICTED BY IDOCK:   -5.18 KCAL/MOL
REMARK 923 INTER-LIGAND FREE ENERGY PREDICTED BY IDOCK:   -4.11 KCAL/MOL
REMARK 924 INTRA-LIGAND FREE ENERGY PREDICTED BY IDOCK:   -1.08 KCAL/MOL
REMARK 927      BINDING AFFINITY PREDICTED BY RF-SCORE:    0.00 PKD
ROOT
HETATM    1  C   UNL     1      -5.326   3.539  70.719  1.00  0.00    -0.008 C  
HETATM    2  N   UNL     1      -6.052   3.817  69.475  1.00  0.00    -0.026 NA 
ENDROOT
BRANCH   2   3
HETATM    3  C   UNL     1      -6.156   5.270  69.221  1.00  0.00    -0.025 C  
BRANCH   3   4
HETATM    4  C   UNL     1      -5.559   5.771  67.886  1.00  0.00    -0.012 C  
BRANCH   4   5
HETATM    5  C   UNL     1      -6.538   6.533  67.021  1.00  0.00    -0.051 A  
HETATM    6  C   UNL     1      -8.418   7.916  65.469  1.00  0.00    -0.139 A  
HETATM    7  C   UNL     1      -7.185   5.897  65.951  1.00  0.00    -0.075 A  
HETATM    8  C   UNL     1      -6.819   7.882  67.278  1.00  0.00    -0.070 A  
HETATM    9  C   UNL     1      -8.121   6.586  65.176  1.00  0.00    -0.133 A  
HETATM   10  C   UNL     1      -7.756   8.570  66.504  1.00  0.00    -0.092 A  
BRANCH   6  11
HETATM   11  N   UNL     1      -9.377   8.633  64.699  1.00  0.00    -0.110 N  
HETATM   12  H   UNL     1     -10.378   8.481  64.827  1.00  0.00     0.000 HD 
BRANCH  11  13
HETATM   13  S   UNL     1      -8.798   9.743  63.564  1.00  0.00    -0.241 S  
HETATM   14  O   UNL     1      -7.718  10.443  64.229  1.00  0.00    -0.130 OA 
HETATM   15  O   UNL     1      -9.895  10.464  62.960  1.00  0.00    -0.293 OA 
HETATM   16  C   UNL     1      -8.067   8.662  62.354  1.00  0.00    -0.167 C  
ENDBRANCH  11  13
ENDBRANCH   6  11
ENDBRANCH   4   5
ENDBRANCH   3   4
ENDBRANCH   2   3
BRANCH   2  17
HETATM   17  C   UNL     1      -7.381   3.166  69.538  1.00  0.00    -0.045 C  
BRANCH  17  18
HETATM   18  C   UNL     1      -8.396   3.678  68.503  1.00  0.00    -0.078 C  
BRANCH  18  19
HETATM   19  O   UNL     1      -9.655   3.909  69.146  1.00  0.00    -0.178 OA 
BRANCH  19  20
HETATM   20  C   UNL     1     -10.026   5.222  69.281  1.00  0.00    -0.215 A  
HETATM   21  C   UNL     1     -10.010   5.950  70.473  1.00  0.00    -0.243 A  
HETATM   22  C   UNL     1     -10.450   5.848  68.106  1.00  0.00    -0.291 A  
HETATM   23  C   UNL     1     -10.892   7.884  69.324  1.00  0.00    -0.064 A  
HETATM   24  C   UNL     1     -10.879   7.179  68.122  1.00  0.00    -0.170 A  
HETATM   25  C   UNL     1     -10.441   7.278  70.493  1.00  0.00    -0.229 A  
BRANCH  23  26
HETATM   26  N   UNL     1     -11.336   9.236  69.376  1.00  0.00    -0.436 N  
HETATM   27  H   UNL     1     -11.995   9.548  70.090  1.00  0.00     0.000 HD 
BRANCH  26  28
HETATM   28  S   UNL     1     -10.735  10.305  68.215  1.00  0.00    -0.255 S  
HETATM   29  O   UNL     1      -9.292  10.244  68.182  1.00  0.00    -0.137 OA 
HETATM   30  C   UNL     1     -11.244  11.879  68.875  1.00  0.00    -0.254 C  
HETATM   31  O   UNL     1     -11.523  10.057  67.024  1.00  0.00     0.058 OA 
ENDBRANCH  26  28
ENDBRANCH  23  26
ENDBRANCH  19  20
ENDBRANCH  18  19
ENDBRANCH  17  18
ENDBRANCH   2  17
TORSDOF 11
ENDMDL
MODEL      263
REMARK 921   NORMALIZED FREE ENERGY PREDICTED BY IDOCK:   -2.19 KCAL/MOL
REMARK 922        TOTAL FREE ENERGY PREDICTED BY IDOCK:   -5.16 KCAL/MOL
REMARK 923 INTER-LIGAND FREE ENERGY PREDICTED BY IDOCK:   -4.39 KCAL/MOL
REMARK 924 INTRA-LIGAND FREE ENERGY PREDICTED BY IDOCK:   -0.78 KCAL/MOL
REMARK 927      BINDING AFFINITY PREDICTED BY RF-SCORE:    0.00 PKD
ROOT
HETATM    1  C   UNL     1     -10.834   9.735  68.545  1.00  0.00    -0.188 C  
HETATM    2  N   UNL     1      -9.570   9.030  68.783  1.00  0.00    -0.151 NA 
ENDROOT
BRANCH   2   3
HETATM    3  C   UNL     1      -8.442   9.975  68.934  1.00  0.00    -0.132 C  
BRANCH   3   4
HETATM    4  C   UNL     1      -7.612   9.841  70.230  1.00  0.00    -0.184 C  
BRANCH   4   5
HETATM    5  C   UNL     1      -7.988   8.649  71.082  1.00  0.00    -0.164 A  
HETATM    6  C   UNL     1      -8.743   6.415  72.597  1.00  0.00    -0.126 A  
HETATM    7  C   UNL     1      -9.094   8.712  71.943  1.00  0.00    -0.326 A  
HETATM    8  C   UNL     1      -7.244   7.463  71.021  1.00  0.00    -0.068 A  
HETATM    9  C   UNL     1      -9.470   7.599  72.700  1.00  0.00    -0.230 A  
HETATM   10  C   UNL     1      -7.620   6.350  71.777  1.00  0.00    -0.095 A  
BRANCH   6  11
HETATM   11  N   UNL     1      -9.116   5.266  73.351  1.00  0.00    -0.129 N  
HETATM   12  H   UNL     1      -8.765   5.118  74.298  1.00  0.00     0.000 HD 
BRANCH  11  13
HETATM   13  S   UNL     1     -10.160   4.157  72.621  1.00  0.00    -0.170 S  
HETATM   14  O   UNL     1      -9.915   2.898  73.294  1.00  0.00    -0.102 OA 
HETATM   15  O   UNL     1     -10.081   4.262  71.182  1.00  0.00    -0.179 OA 
HETATM   16  C   UNL     1     -11.746   4.754  73.167  1.00  0.00    -0.118 C  
ENDBRANCH  11  13
ENDBRANCH   6  11
ENDBRANCH   4   5
ENDBRANCH   3   4
ENDBRANCH   2   3
BRANCH   2  17
HETATM   17  C   UNL     1      -9.344   8.062  67.685  1.00  0.00    -0.143 C  
BRANCH  17  18
HETATM   18  C   UNL     1     -10.626   7.484  67.066  1.00  0.00    -0.339 C  
BRANCH  18  19
HETATM   19  O   UNL     1     -10.911   6.214  67.665  1.00  0.00    -0.312 OA 
BRANCH  19  20
HETATM   20  C   UNL     1     -10.255   5.137  67.127  1.00  0.00    -0.208 A  
HETATM   21  C   UNL     1      -9.345   4.321  67.804  1.00  0.00    -0.200 A  
HETATM   22  C   UNL     1     -10.547   4.867  65.787  1.00  0.00    -0.229 A  
HETATM   23  C   UNL     1      -8.986   3.026  65.797  1.00  0.00    -0.144 A  
HETATM   24  C   UNL     1      -9.918   3.810  65.121  1.00  0.00    -0.130 A  
HETATM   25  C   UNL     1      -8.714   3.267  67.140  1.00  0.00    -0.134 A  
BRANCH  23  26
HETATM   26  N   UNL     1      -8.319   1.951  65.142  1.00  0.00    -0.082 N  
HETATM   27  H   UNL     1      -8.795   1.068  64.958  1.00  0.00     0.000 HD 
BRANCH  26  28
HETATM   28  S   UNL     1      -6.712   2.189  64.681  1.00  0.00    -0.032 S  
HETATM   29  O   UNL     1      -5.825   1.841  65.765  1.00  0.00    -0.016 OA 
HETATM   30  C   UNL     1      -6.666   3.952  64.425  1.00  0.00    -0.044 C  
HETATM   31  O   UNL     1      -6.591   1.559  63.381  1.00  0.00    -0.013 OA 
ENDBRANCH  26  28
ENDBRANCH  23  26
ENDBRANCH  19  20
ENDBRANCH  18  19
ENDBRANCH  17  18
ENDBRANCH   2  17
TORSDOF 11
ENDMDL
MODEL      264
REMARK 921   NORMALIZED FREE ENERGY PREDICTED BY IDOCK:   -2.19 KCAL/MOL
REMARK 922        TOTAL FREE ENERGY PREDICTED BY IDOCK:   -5.16 KCAL/MOL
REMARK 923 INTER-LIGAND FREE ENERGY PREDICTED BY IDOCK:   -5.01 KCAL/MOL
REMARK 924 INTRA-LIGAND FREE ENERGY PREDICTED BY IDOCK:   -0.15 KCAL/MOL
REMARK 927      BINDING AFFINITY PREDICTED BY RF-SCORE:    0.00 PKD
ROOT
HETATM    1  C   UNL     1      -8.085   8.386  67.128  1.00  0.00    -0.104 C  
HETATM    2  N   UNL     1      -8.356   8.820  65.753  1.00  0.00    -0.126 NA 
ENDROOT
BRANCH   2   3
HETATM    3  C   UNL     1      -7.182   9.494  65.157  1.00  0.00    -0.108 C  
BRANCH   3   4
HETATM    4  C   UNL     1      -6.668   8.907  63.822  1.00  0.00    -0.088 C  
BRANCH   4   5
HETATM    5  C   UNL     1      -7.138   7.496  63.548  1.00  0.00    -0.070 A  
HETATM    6  C   UNL     1      -8.063   4.887  63.108  1.00  0.00    -0.095 A  
HETATM    7  C   UNL     1      -6.560   6.411  64.223  1.00  0.00    -0.034 A  
HETATM    8  C   UNL     1      -8.160   7.250  62.622  1.00  0.00    -0.083 A  
HETATM    9  C   UNL     1      -7.020   5.110  64.004  1.00  0.00    -0.048 A  
HETATM   10  C   UNL     1      -8.621   5.950  62.403  1.00  0.00     0.013 A  
BRANCH   6  11
HETATM   11  N   UNL     1      -8.555   3.571  62.879  1.00  0.00    -0.085 N  
HETATM   12  H   UNL     1      -8.266   3.034  62.061  1.00  0.00     0.000 HD 
BRANCH  11  13
HETATM   13  S   UNL     1      -9.633   2.930  64.011  1.00  0.00    -0.144 S  
HETATM   14  O   UNL     1     -10.594   2.169  63.238  1.00  0.00    -0.163 OA 
HETATM   15  O   UNL     1     -10.062   3.955  64.934  1.00  0.00    -0.197 OA 
HETATM   16  C   UNL     1      -8.595   1.765  64.867  1.00  0.00    -0.099 C  
ENDBRANCH  11  13
ENDBRANCH   6  11
ENDBRANCH   4   5
ENDBRANCH   3   4
ENDBRANCH   2   3
BRANCH   2  17
HETATM   17  C   UNL     1      -9.558   9.686  65.749  1.00  0.00    -0.263 C  
BRANCH  17  18
HETATM   18  C   UNL     1      -9.321  11.109  65.220  1.00  0.00    -0.219 C  
BRANCH  18  19
HETATM   19  O   UNL     1      -9.279  12.024  66.322  1.00  0.00    -0.225 OA 
BRANCH  19  20
HETATM   20  C   UNL     1      -9.895  11.603  67.473  1.00  0.00    -0.188 A  
HETATM   21  C   UNL     1      -9.246  11.082  68.595  1.00  0.00    -0.186 A  
HETATM   22  C   UNL     1     -11.287  11.721  67.484  1.00  0.00    -0.377 A  
HETATM   23  C   UNL     1     -11.372  10.747  69.691  1.00  0.00    -0.294 A  
HETATM   24  C   UNL     1     -12.029  11.299  68.593  1.00  0.00    -0.314 A  
HETATM   25  C   UNL     1      -9.984  10.657  69.701  1.00  0.00    -0.090 A  
BRANCH  23  26
HETATM   26  N   UNL     1     -12.101  10.296  70.829  1.00  0.00    -0.324 N  
HETATM   27  H   UNL     1     -12.759  10.908  71.311  1.00  0.00     0.000 HD 
BRANCH  26  28
HETATM   28  S   UNL     1     -11.836   8.712  71.352  1.00  0.00    -0.311 S  
HETATM   29  O   UNL     1     -11.519   7.862  70.229  1.00  0.00    -0.215 OA 
HETATM   30  C   UNL     1     -13.439   8.271  71.992  1.00  0.00    -0.311 C  
HETATM   31  O   UNL     1     -10.935   8.830  72.482  1.00  0.00    -0.258 OA 
ENDBRANCH  26  28
ENDBRANCH  23  26
ENDBRANCH  19  20
ENDBRANCH  18  19
ENDBRANCH  17  18
ENDBRANCH   2  17
TORSDOF 11
ENDMDL
MODEL      265
REMARK 921   NORMALIZED FREE ENERGY PREDICTED BY IDOCK:   -2.06 KCAL/MOL
REMARK 922        TOTAL FREE ENERGY PREDICTED BY IDOCK:   -4.94 KCAL/MOL
REMARK 923 INTER-LIGAND FREE ENERGY PREDICTED BY IDOCK:   -5.08 KCAL/MOL
REMARK 924 INTRA-LIGAND FREE ENERGY PREDICTED BY IDOCK:    0.14 KCAL/MOL
REMARK 927      BINDING AFFINITY PREDICTED BY RF-SCORE:    0.00 PKD
ROOT
HETATM    1  C   UNL     1      -9.737   6.798  67.969  1.00  0.00    -0.124 C  
HETATM    2  N   UNL     1      -8.729   6.119  67.148  1.00  0.00    -0.107 NA 
ENDROOT
BRANCH   2   3
HETATM    3  C   UNL     1      -7.392   6.168  67.780  1.00  0.00    -0.084 C  
BRANCH   3   4
HETATM    4  C   UNL     1      -7.329   6.808  69.186  1.00  0.00    -0.093 C  
BRANCH   4   5
HETATM    5  C   UNL     1      -6.860   8.246  69.188  1.00  0.00    -0.051 A  
HETATM    6  C   UNL     1      -5.932  10.890  69.254  1.00  0.00    -0.044 A  
HETATM    7  C   UNL     1      -7.383   9.162  70.113  1.00  0.00    -0.077 A  
HETATM    8  C   UNL     1      -5.894   8.685  68.272  1.00  0.00    -0.042 A  
HETATM    9  C   UNL     1      -6.921  10.481  70.145  1.00  0.00    -0.119 A  
HETATM   10  C   UNL     1      -5.433  10.002  68.305  1.00  0.00    -0.038 A  
BRANCH   6  11
HETATM   11  N   UNL     1      -5.440  12.226  69.278  1.00  0.00    -0.068 N  
HETATM   12  H   UNL     1      -4.809  12.544  70.014  1.00  0.00     0.000 HD 
BRANCH  11  13
HETATM   13  S   UNL     1      -5.939  13.265  68.043  1.00  0.00    -0.135 S  
HETATM   14  O   UNL     1      -5.215  12.837  66.863  1.00  0.00    -0.324 OA 
HETATM   15  O   UNL     1      -5.890  14.639  68.490  1.00  0.00    -0.087 OA 
HETATM   16  C   UNL     1      -7.637  12.776  67.834  1.00  0.00    -0.138 C  
ENDBRANCH  11  13
ENDBRANCH   6  11
ENDBRANCH   4   5
ENDBRANCH   3   4
ENDBRANCH   2   3
BRANCH   2  17
HETATM   17  C   UNL     1      -8.727   6.717  65.793  1.00  0.00    -0.110 C  
BRANCH  17  18
HETATM   18  C   UNL     1      -8.248   8.177  65.738  1.00  0.00    -0.126 C  
BRANCH  18  19
HETATM   19  O   UNL     1      -9.174   8.951  64.965  1.00  0.00    -0.130 OA 
BRANCH  19  20
HETATM   20  C   UNL     1      -9.867   9.914  65.651  1.00  0.00    -0.298 A  
HETATM   21  C   UNL     1     -10.532  10.999  65.074  1.00  0.00    -0.344 A  
HETATM   22  C   UNL     1      -9.886   9.763  67.040  1.00  0.00    -0.245 A  
HETATM   23  C   UNL     1     -11.168  11.795  67.265  1.00  0.00    -0.305 A  
HETATM   24  C   UNL     1     -10.539  10.698  67.849  1.00  0.00    -0.266 A  
HETATM   25  C   UNL     1     -11.182  11.936  65.880  1.00  0.00    -0.373 A  
BRANCH  23  26
HETATM   26  N   UNL     1     -11.830  12.772  68.063  1.00  0.00    -0.352 N  
HETATM   27  H   UNL     1     -12.418  12.500  68.850  1.00  0.00     0.000 HD 
BRANCH  26  28
HETATM   28  S   UNL     1     -11.606  14.397  67.660  1.00  0.00    -0.386 S  
HETATM   29  O   UNL     1     -12.407  15.238  68.519  1.00  0.00    -0.044 OA 
HETATM   30  C   UNL     1     -12.259  14.452  66.004  1.00  0.00    -0.336 C  
HETATM   31  O   UNL     1     -10.170  14.573  67.567  1.00  0.00    -0.232 OA 
ENDBRANCH  26  28
ENDBRANCH  23  26
ENDBRANCH  19  20
ENDBRANCH  18  19
ENDBRANCH  17  18
ENDBRANCH   2  17
TORSDOF 11
ENDMDL
MODEL      266
REMARK 921   NORMALIZED FREE ENERGY PREDICTED BY IDOCK:   -2.03 KCAL/MOL
REMARK 922        TOTAL FREE ENERGY PREDICTED BY IDOCK:   -4.89 KCAL/MOL
REMARK 923 INTER-LIGAND FREE ENERGY PREDICTED BY IDOCK:   -3.99 KCAL/MOL
REMARK 924 INTRA-LIGAND FREE ENERGY PREDICTED BY IDOCK:   -0.90 KCAL/MOL
REMARK 927      BINDING AFFINITY PREDICTED BY RF-SCORE:    0.00 PKD
ROOT
HETATM    1  C   UNL     1     -11.310  13.598  68.636  1.00  0.00    -0.286 C  
HETATM    2  N   UNL     1     -11.082  13.261  67.227  1.00  0.00    -0.272 NA 
ENDROOT
BRANCH   2   3
HETATM    3  C   UNL     1     -11.525  11.885  66.919  1.00  0.00    -0.322 C  
BRANCH   3   4
HETATM    4  C   UNL     1     -11.024  11.293  65.582  1.00  0.00    -0.201 C  
BRANCH   4   5
HETATM    5  C   UNL     1     -10.283   9.982  65.727  1.00  0.00    -0.270 A  
HETATM    6  C   UNL     1      -8.969   7.516  65.941  1.00  0.00    -0.089 A  
HETATM    7  C   UNL     1     -10.697   9.034  66.674  1.00  0.00    -0.043 A  
HETATM    8  C   UNL     1      -9.179   9.692  64.915  1.00  0.00    -0.306 A  
HETATM    9  C   UNL     1     -10.042   7.805  66.782  1.00  0.00    -0.341 A  
HETATM   10  C   UNL     1      -8.524   8.463  65.022  1.00  0.00    -0.160 A  
BRANCH   6  11
HETATM   11  N   UNL     1      -8.295   6.265  66.026  1.00  0.00    -0.131 N  
HETATM   12  H   UNL     1      -7.542   6.116  66.698  1.00  0.00     0.000 HD 
BRANCH  11  13
HETATM   13  S   UNL     1      -8.788   5.037  64.976  1.00  0.00    -0.125 S  
HETATM   14  O   UNL     1      -7.692   4.089  64.951  1.00  0.00    -0.079 OA 
HETATM   15  O   UNL     1      -9.315   5.601  63.754  1.00  0.00     0.582 OA 
HETATM   16  C   UNL     1     -10.115   4.294  65.900  1.00  0.00    -0.205 C  
ENDBRANCH  11  13
ENDBRANCH   6  11
ENDBRANCH   4   5
ENDBRANCH   3   4
ENDBRANCH   2   3
BRANCH   2  17
HETATM   17  C   UNL     1      -9.650  13.471  66.907  1.00  0.00    -0.258 C  
BRANCH  17  18
HETATM   18  C   UNL     1      -8.673  12.949  67.972  1.00  0.00    -0.191 C  
BRANCH  18  19
HETATM   19  O   UNL     1      -7.938  11.840  67.440  1.00  0.00    -0.138 OA 
BRANCH  19  20
HETATM   20  C   UNL     1      -7.829  10.746  68.260  1.00  0.00    -0.115 A  
HETATM   21  C   UNL     1      -8.862  10.205  69.029  1.00  0.00    -0.166 A  
HETATM   22  C   UNL     1      -6.565  10.154  68.302  1.00  0.00    -0.054 A  
HETATM   23  C   UNL     1      -7.353   8.539  69.914  1.00  0.00    -0.055 A  
HETATM   24  C   UNL     1      -6.324   9.047  69.124  1.00  0.00    -0.043 A  
HETATM   25  C   UNL     1      -8.624   9.103  69.853  1.00  0.00    -0.155 A  
BRANCH  23  26
HETATM   26  N   UNL     1      -7.135   7.422  70.771  1.00  0.00    -0.062 N  
HETATM   27  H   UNL     1      -6.285   7.343  71.329  1.00  0.00     0.000 HD 
BRANCH  26  28
HETATM   28  S   UNL     1      -8.334   6.234  70.832  1.00  0.00    -0.128 S  
HETATM   29  O   UNL     1      -7.887   5.115  71.627  1.00  0.00    -0.103 OA 
HETATM   30  C   UNL     1      -8.440   5.739  69.123  1.00  0.00    -0.107 C  
HETATM   31  O   UNL     1      -9.557   6.942  71.155  1.00  0.00    -0.167 OA 
ENDBRANCH  26  28
ENDBRANCH  23  26
ENDBRANCH  19  20
ENDBRANCH  18  19
ENDBRANCH  17  18
ENDBRANCH   2  17
TORSDOF 11
ENDMDL
MODEL      267
REMARK 921   NORMALIZED FREE ENERGY PREDICTED BY IDOCK:   -1.99 KCAL/MOL
REMARK 922        TOTAL FREE ENERGY PREDICTED BY IDOCK:   -4.83 KCAL/MOL
REMARK 923 INTER-LIGAND FREE ENERGY PREDICTED BY IDOCK:   -4.49 KCAL/MOL
REMARK 924 INTRA-LIGAND FREE ENERGY PREDICTED BY IDOCK:   -0.33 KCAL/MOL
REMARK 927      BINDING AFFINITY PREDICTED BY RF-SCORE:    0.00 PKD
ROOT
HETATM    1  C   UNL     1      -9.553   8.925  71.659  1.00  0.00    -0.293 C  
HETATM    2  N   UNL     1      -9.291   7.785  70.774  1.00  0.00    -0.160 NA 
ENDROOT
BRANCH   2   3
HETATM    3  C   UNL     1      -9.507   6.498  71.470  1.00  0.00    -0.157 C  
BRANCH   3   4
HETATM    4  C   UNL     1      -8.650   5.308  70.980  1.00  0.00    -0.127 C  
BRANCH   4   5
HETATM    5  C   UNL     1      -9.008   4.820  69.594  1.00  0.00    -0.135 A  
HETATM    6  C   UNL     1      -9.724   3.855  67.063  1.00  0.00    -0.148 A  
HETATM    7  C   UNL     1      -8.307   3.753  69.014  1.00  0.00    -0.089 A  
HETATM    8  C   UNL     1     -10.048   5.420  68.871  1.00  0.00    -0.265 A  
HETATM    9  C   UNL     1      -8.662   3.272  67.751  1.00  0.00    -0.135 A  
HETATM   10  C   UNL     1     -10.403   4.939  67.609  1.00  0.00    -0.082 A  
BRANCH   6  11
HETATM   11  N   UNL     1     -10.110   3.372  65.780  1.00  0.00    -0.369 N  
HETATM   12  H   UNL     1     -10.946   2.800  65.660  1.00  0.00     0.000 HD 
BRANCH  11  13
HETATM   13  S   UNL     1      -9.133   3.781  64.464  1.00  0.00    -0.146 S  
HETATM   14  O   UNL     1      -8.749   5.161  64.685  1.00  0.00    -0.152 OA 
HETATM   15  O   UNL     1      -9.756   3.369  63.226  1.00  0.00    -0.106 OA 
HETATM   16  C   UNL     1      -7.697   2.773  64.762  1.00  0.00    -0.077 C  
ENDBRANCH  11  13
ENDBRANCH   6  11
ENDBRANCH   4   5
ENDBRANCH   3   4
ENDBRANCH   2   3
BRANCH   2  17
HETATM   17  C   UNL     1      -7.918   7.901  70.232  1.00  0.00    -0.102 C  
BRANCH  17  18
HETATM   18  C   UNL     1      -7.225   9.242  70.522  1.00  0.00    -0.110 C  
BRANCH  18  19
HETATM   19  O   UNL     1      -6.098   9.394  69.651  1.00  0.00    -0.038 OA 
BRANCH  19  20
HETATM   20  C   UNL     1      -6.387   9.726  68.352  1.00  0.00    -0.054 A  
HETATM   21  C   UNL     1      -7.126  10.840  67.946  1.00  0.00    -0.085 A  
HETATM   22  C   UNL     1      -5.883   8.853  67.385  1.00  0.00    -0.043 A  
HETATM   23  C   UNL     1      -6.904  10.168  65.637  1.00  0.00    -0.124 A  
HETATM   24  C   UNL     1      -6.135   9.073  66.026  1.00  0.00    -0.052 A  
HETATM   25  C   UNL     1      -7.382  11.060  66.592  1.00  0.00    -0.143 A  
BRANCH  23  26
HETATM   26  N   UNL     1      -7.190  10.411  64.263  1.00  0.00    -0.324 N  
HETATM   27  H   UNL     1      -6.586  11.005  63.695  1.00  0.00     0.000 HD 
BRANCH  26  28
HETATM   28  S   UNL     1      -8.564   9.681  63.606  1.00  0.00    -0.223 S  
HETATM   29  O   UNL     1      -8.211   8.432  62.973  1.00  0.00    -0.175 OA 
HETATM   30  C   UNL     1      -9.039  10.861  62.358  1.00  0.00    -0.293 C  
HETATM   31  O   UNL     1      -9.562   9.733  64.656  1.00  0.00    -0.286 OA 
ENDBRANCH  26  28
ENDBRANCH  23  26
ENDBRANCH  19  20
ENDBRANCH  18  19
ENDBRANCH  17  18
ENDBRANCH   2  17
TORSDOF 11
ENDMDL
MODEL      268
REMARK 921   NORMALIZED FREE ENERGY PREDICTED BY IDOCK:   -1.81 KCAL/MOL
REMARK 922        TOTAL FREE ENERGY PREDICTED BY IDOCK:   -4.54 KCAL/MOL
REMARK 923 INTER-LIGAND FREE ENERGY PREDICTED BY IDOCK:   -3.56 KCAL/MOL
REMARK 924 INTRA-LIGAND FREE ENERGY PREDICTED BY IDOCK:   -0.97 KCAL/MOL
REMARK 927      BINDING AFFINITY PREDICTED BY RF-SCORE:    0.00 PKD
ROOT
HETATM    1  C   UNL     1     -11.017  20.056  65.755  1.00  0.00    -0.015 C  
HETATM    2  N   UNL     1     -10.326  20.399  67.003  1.00  0.00    -0.287 NA 
ENDROOT
BRANCH   2   3
HETATM    3  C   UNL     1      -8.870  20.551  66.792  1.00  0.00    -0.131 C  
BRANCH   3   4
HETATM    4  C   UNL     1      -8.016  20.748  68.065  1.00  0.00     0.124 C  
BRANCH   4   5
HETATM    5  C   UNL     1      -7.302  19.497  68.528  1.00  0.00    -0.368 A  
HETATM    6  C   UNL     1      -5.902  17.220  69.370  1.00  0.00    -0.222 A  
HETATM    7  C   UNL     1      -6.882  18.534  67.598  1.00  0.00    -0.206 A  
HETATM    8  C   UNL     1      -7.043  19.283  69.888  1.00  0.00     0.109 A  
HETATM    9  C   UNL     1      -6.185  17.398  68.017  1.00  0.00    -0.149 A  
HETATM   10  C   UNL     1      -6.346  18.148  70.307  1.00  0.00     0.297 A  
BRANCH   6  11
HETATM   11  N   UNL     1      -5.183  16.075  69.816  1.00  0.00    -0.117 N  
HETATM   12  H   UNL     1      -4.163  16.049  69.792  1.00  0.00     0.000 HD 
BRANCH  11  13
HETATM   13  S   UNL     1      -6.080  14.762  70.388  1.00  0.00    -0.137 S  
HETATM   14  O   UNL     1      -7.376  15.306  70.739  1.00  0.00     0.655 OA 
HETATM   15  O   UNL     1      -5.307  14.002  71.343  1.00  0.00    -0.149 OA 
HETATM   16  C   UNL     1      -6.287  13.803  68.903  1.00  0.00    -0.096 C  
ENDBRANCH  11  13
ENDBRANCH   6  11
ENDBRANCH   4   5
ENDBRANCH   3   4
ENDBRANCH   2   3
BRANCH   2  17
HETATM   17  C   UNL     1     -10.636  19.371  68.023  1.00  0.00    -0.338 C  
BRANCH  17  18
HETATM   18  C   UNL     1     -10.478  17.920  67.541  1.00  0.00    -0.390 C  
BRANCH  18  19
HETATM   19  O   UNL     1     -11.368  17.074  68.280  1.00  0.00    -0.174 OA 
BRANCH  19  20
HETATM   20  C   UNL     1     -11.258  15.730  68.032  1.00  0.00    -0.338 A  
HETATM   21  C   UNL     1     -12.325  14.863  67.784  1.00  0.00     0.269 A  
HETATM   22  C   UNL     1      -9.956  15.225  68.038  1.00  0.00    -0.224 A  
HETATM   23  C   UNL     1     -10.795  13.001  67.614  1.00  0.00    -0.239 A  
HETATM   24  C   UNL     1      -9.720  13.862  67.825  1.00  0.00    -0.225 A  
HETATM   25  C   UNL     1     -12.093  13.502  67.575  1.00  0.00    -0.340 A  
BRANCH  23  26
HETATM   26  N   UNL     1     -10.587  11.607  67.408  1.00  0.00    -0.212 N  
HETATM   27  H   UNL     1     -10.353  11.239  66.486  1.00  0.00     0.000 HD 
BRANCH  26  28
HETATM   28  S   UNL     1     -10.742  10.585  68.743  1.00  0.00    -0.234 S  
HETATM   29  O   UNL     1      -9.799  10.960  69.770  1.00  0.00     0.055 OA 
HETATM   30  C   UNL     1     -10.268   9.013  68.052  1.00  0.00    -0.212 C  
HETATM   31  O   UNL     1     -12.165  10.528  69.017  1.00  0.00    -0.272 OA 
ENDBRANCH  26  28
ENDBRANCH  23  26
ENDBRANCH  19  20
ENDBRANCH  18  19
ENDBRANCH  17  18
ENDBRANCH   2  17
TORSDOF 11
ENDMDL
MODEL      269
REMARK 921   NORMALIZED FREE ENERGY PREDICTED BY IDOCK:   -1.74 KCAL/MOL
REMARK 922        TOTAL FREE ENERGY PREDICTED BY IDOCK:   -4.42 KCAL/MOL
REMARK 923 INTER-LIGAND FREE ENERGY PREDICTED BY IDOCK:   -5.34 KCAL/MOL
REMARK 924 INTRA-LIGAND FREE ENERGY PREDICTED BY IDOCK:    0.93 KCAL/MOL
REMARK 927      BINDING AFFINITY PREDICTED BY RF-SCORE:    0.00 PKD
ROOT
HETATM    1  C   UNL     1     -11.645  16.341  67.521  1.00  0.00     0.299 C  
HETATM    2  N   UNL     1     -10.635  16.138  66.477  1.00  0.00    -0.297 NA 
ENDROOT
BRANCH   2   3
HETATM    3  C   UNL     1     -10.430  17.364  65.676  1.00  0.00    -0.165 C  
BRANCH   3   4
HETATM    4  C   UNL     1     -10.602  18.704  66.427  1.00  0.00    -0.399 C  
BRANCH   4   5
HETATM    5  C   UNL     1      -9.354  19.175  67.140  1.00  0.00    -0.358 A  
HETATM    6  C   UNL     1      -7.088  20.118  68.492  1.00  0.00    -0.229 A  
HETATM    7  C   UNL     1      -8.516  20.131  66.546  1.00  0.00    -0.314 A  
HETATM    8  C   UNL     1      -9.019  18.672  68.404  1.00  0.00    -0.356 A  
HETATM    9  C   UNL     1      -7.385  20.600  67.219  1.00  0.00    -0.394 A  
HETATM   10  C   UNL     1      -7.889  19.142  69.077  1.00  0.00    -0.294 A  
BRANCH   6  11
HETATM   11  N   UNL     1      -5.947  20.591  69.200  1.00  0.00    -0.346 N  
HETATM   12  H   UNL     1      -5.250  21.182  68.745  1.00  0.00     0.000 HD 
BRANCH  11  13
HETATM   13  S   UNL     1      -5.788  20.140  70.820  1.00  0.00    -0.297 S  
HETATM   14  O   UNL     1      -5.135  21.259  71.469  1.00  0.00    -0.536 OA 
HETATM   15  O   UNL     1      -5.251  18.802  70.920  1.00  0.00    -0.236 OA 
HETATM   16  C   UNL     1      -7.487  20.132  71.352  1.00  0.00     1.381 C  
ENDBRANCH  11  13
ENDBRANCH   6  11
ENDBRANCH   4   5
ENDBRANCH   3   4
ENDBRANCH   2   3
BRANCH   2  17
HETATM   17  C   UNL     1     -11.034  14.984  65.639  1.00  0.00    -0.354 C  
BRANCH  17  18
HETATM   18  C   UNL     1     -11.351  13.701  66.423  1.00  0.00    -0.316 C  
BRANCH  18  19
HETATM   19  O   UNL     1     -11.469  12.603  65.510  1.00  0.00    -0.311 OA 
BRANCH  19  20
HETATM   20  C   UNL     1     -10.767  11.472  65.840  1.00  0.00    -0.272 A  
HETATM   21  C   UNL     1     -10.748  10.870  67.101  1.00  0.00    -0.320 A  
HETATM   22  C   UNL     1     -10.022  10.906  64.803  1.00  0.00    -0.366 A  
HETATM   23  C   UNL     1      -9.204   9.195  66.296  1.00  0.00    -0.194 A  
HETATM   24  C   UNL     1      -9.244   9.765  65.025  1.00  0.00    -0.307 A  
HETATM   25  C   UNL     1      -9.969   9.734  67.327  1.00  0.00    -0.242 A  
BRANCH  23  26
HETATM   26  N   UNL     1      -8.411   8.042  66.558  1.00  0.00    -0.117 N  
HETATM   27  H   UNL     1      -7.400   8.112  66.673  1.00  0.00     0.000 HD 
BRANCH  26  28
HETATM   28  S   UNL     1      -9.202   6.554  66.671  1.00  0.00    -0.155 S  
HETATM   29  O   UNL     1      -9.107   6.041  68.018  1.00  0.00    -0.119 OA 
HETATM   30  C   UNL     1      -8.222   5.540  65.583  1.00  0.00    -0.127 C  
HETATM   31  O   UNL     1     -10.488   6.757  66.035  1.00  0.00     0.398 OA 
ENDBRANCH  26  28
ENDBRANCH  23  26
ENDBRANCH  19  20
ENDBRANCH  18  19
ENDBRANCH  17  18
ENDBRANCH   2  17
TORSDOF 11
ENDMDL
MODEL      270
REMARK 921   NORMALIZED FREE ENERGY PREDICTED BY IDOCK:   -0.94 KCAL/MOL
REMARK 922        TOTAL FREE ENERGY PREDICTED BY IDOCK:   -3.11 KCAL/MOL
REMARK 923 INTER-LIGAND FREE ENERGY PREDICTED BY IDOCK:   -5.87 KCAL/MOL
REMARK 924 INTRA-LIGAND FREE ENERGY PREDICTED BY IDOCK:    2.77 KCAL/MOL
REMARK 927      BINDING AFFINITY PREDICTED BY RF-SCORE:    0.00 PKD
ROOT
HETATM    1  C   UNL     1     -10.881  14.925  67.864  1.00  0.00    -0.276 C  
HETATM    2  N   UNL     1     -11.363  14.069  68.953  1.00  0.00    -0.262 NA 
ENDROOT
BRANCH   2   3
HETATM    3  C   UNL     1     -11.260  14.747  70.263  1.00  0.00    -0.195 C  
BRANCH   3   4
HETATM    4  C   UNL     1     -11.397  16.287  70.243  1.00  0.00    -0.299 C  
BRANCH   4   5
HETATM    5  C   UNL     1     -10.248  16.999  69.564  1.00  0.00    -0.106 A  
HETATM    6  C   UNL     1      -8.143  18.278  68.229  1.00  0.00    -0.297 A  
HETATM    7  C   UNL     1      -9.003  16.368  69.427  1.00  0.00    -0.014 A  
HETATM    8  C   UNL     1     -10.411  18.294  69.055  1.00  0.00    -0.104 A  
HETATM    9  C   UNL     1      -7.952  17.005  68.762  1.00  0.00    -0.248 A  
HETATM   10  C   UNL     1      -9.361  18.932  68.391  1.00  0.00    -0.396 A  
BRANCH   6  11
HETATM   11  N   UNL     1      -7.089  18.941  67.538  1.00  0.00    -0.207 N  
HETATM   12  H   UNL     1      -6.677  19.801  67.901  1.00  0.00     0.000 HD 
BRANCH  11  13
HETATM   13  S   UNL     1      -6.545  18.252  66.094  1.00  0.00    -0.271 S  
HETATM   14  O   UNL     1      -7.507  17.216  65.776  1.00  0.00    -0.338 OA 
HETATM   15  O   UNL     1      -5.133  17.959  66.177  1.00  0.00    -0.149 OA 
HETATM   16  C   UNL     1      -6.801  19.589  64.947  1.00  0.00     0.103 C  
ENDBRANCH  11  13
ENDBRANCH   6  11
ENDBRANCH   4   5
ENDBRANCH   3   4
ENDBRANCH   2   3
BRANCH   2  17
HETATM   17  C   UNL     1     -10.617  12.789  68.927  1.00  0.00    -0.122 C  
BRANCH  17  18
HETATM   18  C   UNL     1     -11.500  11.532  68.887  1.00  0.00    -0.289 C  
BRANCH  18  19
HETATM   19  O   UNL     1     -11.704  11.052  70.222  1.00  0.00    -0.309 OA 
BRANCH  19  20
HETATM   20  C   UNL     1     -11.029   9.906  70.554  1.00  0.00    -0.326 A  
HETATM   21  C   UNL     1      -9.699   9.625  70.228  1.00  0.00    -0.314 A  
HETATM   22  C   UNL     1     -11.767   8.966  71.278  1.00  0.00    -0.370 A  
HETATM   23  C   UNL     1      -9.878   7.462  71.288  1.00  0.00    -0.176 A  
HETATM   24  C   UNL     1     -11.194   7.745  71.651  1.00  0.00    -0.286 A  
HETATM   25  C   UNL     1      -9.126   8.406  70.596  1.00  0.00    -0.174 A  
BRANCH  23  26
HETATM   26  N   UNL     1      -9.272   6.223  71.641  1.00  0.00    -0.145 N  
HETATM   27  H   UNL     1      -9.752   5.552  72.241  1.00  0.00     0.000 HD 
BRANCH  26  28
HETATM   28  S   UNL     1      -7.730   5.902  71.032  1.00  0.00    -0.103 S  
HETATM   29  O   UNL     1      -7.775   4.776  70.128  1.00  0.00    -0.057 OA 
HETATM   30  C   UNL     1      -6.846   5.439  72.508  1.00  0.00    -0.076 C  
HETATM   31  O   UNL     1      -7.214   7.187  70.602  1.00  0.00    -0.065 OA 
ENDBRANCH  26  28
ENDBRANCH  23  26
ENDBRANCH  19  20
ENDBRANCH  18  19
ENDBRANCH  17  18
ENDBRANCH   2  17
TORSDOF 11
ENDMDL
MODEL      271
REMARK 921   NORMALIZED FREE ENERGY PREDICTED BY IDOCK:   -0.89 KCAL/MOL
REMARK 922        TOTAL FREE ENERGY PREDICTED BY IDOCK:   -3.02 KCAL/MOL
REMARK 923 INTER-LIGAND FREE ENERGY PREDICTED BY IDOCK:   -3.94 KCAL/MOL
REMARK 924 INTRA-LIGAND FREE ENERGY PREDICTED BY IDOCK:    0.92 KCAL/MOL
REMARK 927      BINDING AFFINITY PREDICTED BY RF-SCORE:    0.00 PKD
ROOT
HETATM    1  C   UNL     1      -5.648   9.797  71.277  1.00  0.00    -0.075 C  
HETATM    2  N   UNL     1      -6.348   9.740  69.990  1.00  0.00    -0.056 NA 
ENDROOT
BRANCH   2   3
HETATM    3  C   UNL     1      -5.420   9.430  68.881  1.00  0.00    -0.037 C  
BRANCH   3   4
HETATM    4  C   UNL     1      -6.073   9.115  67.516  1.00  0.00    -0.050 C  
BRANCH   4   5
HETATM    5  C   UNL     1      -6.360   7.646  67.296  1.00  0.00    -0.054 A  
HETATM    6  C   UNL     1      -6.919   4.944  66.804  1.00  0.00    -0.067 A  
HETATM    7  C   UNL     1      -7.652   7.137  67.497  1.00  0.00    -0.110 A  
HETATM    8  C   UNL     1      -5.345   6.773  66.881  1.00  0.00    -0.017 A  
HETATM    9  C   UNL     1      -7.931   5.790  67.253  1.00  0.00    -0.102 A  
HETATM   10  C   UNL     1      -5.624   5.427  66.637  1.00  0.00    -0.017 A  
BRANCH   6  11
HETATM   11  N   UNL     1      -7.185   3.571  66.539  1.00  0.00    -0.066 N  
HETATM   12  H   UNL     1      -6.713   2.831  67.060  1.00  0.00     0.000 HD 
BRANCH  11  13
HETATM   13  S   UNL     1      -8.310   3.211  65.331  1.00  0.00    -0.099 S  
HETATM   14  O   UNL     1      -8.751   1.859  65.608  1.00  0.00    -0.109 OA 
HETATM   15  O   UNL     1      -7.789   3.575  64.033  1.00  0.00    -0.079 OA 
HETATM   16  C   UNL     1      -9.646   4.306  65.756  1.00  0.00    -0.189 C  
ENDBRANCH  11  13
ENDBRANCH   6  11
ENDBRANCH   4   5
ENDBRANCH   3   4
ENDBRANCH   2   3
BRANCH   2  17
HETATM   17  C   UNL     1      -7.067  11.017  69.775  1.00  0.00    -0.047 C  
BRANCH  17  18
HETATM   18  C   UNL     1      -6.246  12.103  69.063  1.00  0.00    -0.081 C  
BRANCH  18  19
HETATM   19  O   UNL     1      -6.454  13.361  69.717  1.00  0.00    -0.109 OA 
BRANCH  19  20
HETATM   20  C   UNL     1      -7.154  14.298  69.002  1.00  0.00    -0.116 A  
HETATM   21  C   UNL     1      -7.691  14.109  67.726  1.00  0.00    -0.175 A  
HETATM   22  C   UNL     1      -7.324  15.531  69.637  1.00  0.00    -0.163 A  
HETATM   23  C   UNL     1      -8.497  16.386  67.709  1.00  0.00    -0.167 A  
HETATM   24  C   UNL     1      -7.998  16.576  68.996  1.00  0.00    -0.225 A  
HETATM   25  C   UNL     1      -8.362  15.150  67.083  1.00  0.00    -0.247 A  
BRANCH  23  26
HETATM   26  N   UNL     1      -9.176  17.434  67.024  1.00  0.00    -0.240 N  
HETATM   27  H   UNL     1     -10.097  17.285  66.611  1.00  0.00     0.000 HD 
BRANCH  26  28
HETATM   28  S   UNL     1      -8.405  18.933  66.921  1.00  0.00    -0.290 S  
HETATM   29  O   UNL     1      -9.206  19.853  66.148  1.00  0.00    -0.380 OA 
HETATM   30  C   UNL     1      -6.933  18.519  66.005  1.00  0.00    -0.275 C  
HETATM   31  O   UNL     1      -7.999  19.247  68.276  1.00  0.00    -0.300 OA 
ENDBRANCH  26  28
ENDBRANCH  23  26
ENDBRANCH  19  20
ENDBRANCH  18  19
ENDBRANCH  17  18
ENDBRANCH   2  17
TORSDOF 11
ENDMDL
MODEL      272
REMARK 921   NORMALIZED FREE ENERGY PREDICTED BY IDOCK:   -0.50 KCAL/MOL
REMARK 922        TOTAL FREE ENERGY PREDICTED BY IDOCK:   -2.38 KCAL/MOL
REMARK 923 INTER-LIGAND FREE ENERGY PREDICTED BY IDOCK:   -5.09 KCAL/MOL
REMARK 924 INTRA-LIGAND FREE ENERGY PREDICTED BY IDOCK:    2.70 KCAL/MOL
REMARK 927      BINDING AFFINITY PREDICTED BY RF-SCORE:    0.00 PKD
ROOT
HETATM    1  C   UNL     1     -10.391  18.041  67.329  1.00  0.00    -0.378 C  
HETATM    2  N   UNL     1      -9.762  17.815  66.024  1.00  0.00    -0.533 NA 
ENDROOT
BRANCH   2   3
HETATM    3  C   UNL     1      -9.453  19.091  65.343  1.00  0.00     1.217 C  
BRANCH   3   4
HETATM    4  C   UNL     1      -9.479  20.357  66.229  1.00  0.00    -0.302 C  
BRANCH   4   5
HETATM    5  C   UNL     1      -8.365  20.418  67.251  1.00  0.00    -0.398 A  
HETATM    6  C   UNL     1      -6.331  20.610  69.169  1.00  0.00    -0.150 A  
HETATM    7  C   UNL     1      -7.153  21.053  66.943  1.00  0.00    -0.298 A  
HETATM    8  C   UNL     1      -8.528  19.848  68.521  1.00  0.00    -0.177 A  
HETATM    9  C   UNL     1      -6.138  21.148  67.898  1.00  0.00    -0.400 A  
HETATM   10  C   UNL     1      -7.514  19.943  69.476  1.00  0.00    -0.005 A  
BRANCH   6  11
HETATM   11  N   UNL     1      -5.314  20.706  70.160  1.00  0.00    -0.331 N  
HETATM   12  H   UNL     1      -4.427  21.170  69.965  1.00  0.00     0.000 HD 
BRANCH  11  13
HETATM   13  S   UNL     1      -5.629  20.022  71.673  1.00  0.00    -0.379 S  
HETATM   14  O   UNL     1      -5.155  20.992  72.639  1.00  0.00    -0.186 OA 
HETATM   15  O   UNL     1      -5.177  18.650  71.710  1.00  0.00    -0.534 OA 
HETATM   16  C   UNL     1      -7.408  20.056  71.712  1.00  0.00     1.421 C  
ENDBRANCH  11  13
ENDBRANCH   6  11
ENDBRANCH   4   5
ENDBRANCH   3   4
ENDBRANCH   2   3
BRANCH   2  17
HETATM   17  C   UNL     1     -10.643  16.947  65.208  1.00  0.00    -0.120 C  
BRANCH  17  18
HETATM   18  C   UNL     1     -11.197  15.719  65.948  1.00  0.00     0.004 C  
BRANCH  18  19
HETATM   19  O   UNL     1     -11.804  14.830  65.003  1.00  0.00    -0.369 OA 
BRANCH  19  20
HETATM   20  C   UNL     1     -11.310  13.551  64.983  1.00  0.00    -0.320 A  
HETATM   21  C   UNL     1     -10.584  12.946  66.012  1.00  0.00    -0.287 A  
HETATM   22  C   UNL     1     -11.576  12.825  63.819  1.00  0.00    -0.548 A  
HETATM   23  C   UNL     1     -10.345  10.940  64.689  1.00  0.00    -0.338 A  
HETATM   24  C   UNL     1     -11.099  11.518  63.670  1.00  0.00    -0.469 A  
HETATM   25  C   UNL     1     -10.104  11.644  65.865  1.00  0.00    -0.267 A  
BRANCH  23  26
HETATM   26  N   UNL     1      -9.834   9.616  64.562  1.00  0.00    -0.361 N  
HETATM   27  H   UNL     1     -10.345   8.815  64.933  1.00  0.00     0.000 HD 
BRANCH  26  28
HETATM   28  S   UNL     1      -8.353   9.419  63.774  1.00  0.00    -0.195 S  
HETATM   29  O   UNL     1      -8.567   9.094  62.384  1.00  0.00    -0.195 OA 
HETATM   30  C   UNL     1      -7.683   7.998  64.616  1.00  0.00    -0.126 C  
HETATM   31  O   UNL     1      -7.559  10.568  64.162  1.00  0.00    -0.061 OA 
ENDBRANCH  26  28
ENDBRANCH  23  26
ENDBRANCH  19  20
ENDBRANCH  18  19
ENDBRANCH  17  18
ENDBRANCH   2  17
TORSDOF 11
ENDMDL
MODEL      273
REMARK 921   NORMALIZED FREE ENERGY PREDICTED BY IDOCK:   -0.40 KCAL/MOL
REMARK 922        TOTAL FREE ENERGY PREDICTED BY IDOCK:   -2.21 KCAL/MOL
REMARK 923 INTER-LIGAND FREE ENERGY PREDICTED BY IDOCK:   -4.72 KCAL/MOL
REMARK 924 INTRA-LIGAND FREE ENERGY PREDICTED BY IDOCK:    2.51 KCAL/MOL
REMARK 927      BINDING AFFINITY PREDICTED BY RF-SCORE:    0.00 PKD
ROOT
HETATM    1  C   UNL     1     -10.814  15.737  67.683  1.00  0.00    -0.310 C  
HETATM    2  N   UNL     1     -11.265  14.868  68.774  1.00  0.00    -0.261 NA 
ENDROOT
BRANCH   2   3
HETATM    3  C   UNL     1     -11.164  15.546  70.085  1.00  0.00    -0.318 C  
BRANCH   3   4
HETATM    4  C   UNL     1     -11.353  17.080  70.072  1.00  0.00     0.717 C  
BRANCH   4   5
HETATM    5  C   UNL     1     -10.249  17.830  69.361  1.00  0.00    -0.008 A  
HETATM    6  C   UNL     1      -8.227  19.181  67.969  1.00  0.00    -0.304 A  
HETATM    7  C   UNL     1      -8.987  17.243  69.190  1.00  0.00     0.024 A  
HETATM    8  C   UNL     1     -10.470  19.119  68.857  1.00  0.00     0.039 A  
HETATM    9  C   UNL     1      -7.978  17.916  68.497  1.00  0.00    -0.302 A  
HETATM   10  C   UNL     1      -9.462  19.792  68.164  1.00  0.00    -0.454 A  
BRANCH   6  11
HETATM   11  N   UNL     1      -7.216  19.879  67.249  1.00  0.00    -0.229 N  
HETATM   12  H   UNL     1      -6.828  20.756  67.599  1.00  0.00     0.000 HD 
BRANCH  11  13
HETATM   13  S   UNL     1      -6.682  19.204  65.796  1.00  0.00    -0.274 S  
HETATM   14  O   UNL     1      -7.607  18.125  65.510  1.00  0.00    -0.527 OA 
HETATM   15  O   UNL     1      -5.256  18.972  65.842  1.00  0.00    -0.143 OA 
HETATM   16  C   UNL     1      -7.026  20.520  64.648  1.00  0.00     0.045 C  
ENDBRANCH  11  13
ENDBRANCH   6  11
ENDBRANCH   4   5
ENDBRANCH   3   4
ENDBRANCH   2   3
BRANCH   2  17
HETATM   17  C   UNL     1     -10.488  13.607  68.738  1.00  0.00    -0.202 C  
BRANCH  17  18
HETATM   18  C   UNL     1     -11.341  12.329  68.705  1.00  0.00    -0.291 C  
BRANCH  18  19
HETATM   19  O   UNL     1     -10.772  11.354  69.588  1.00  0.00    -0.125 OA 
BRANCH  19  20
HETATM   20  C   UNL     1     -10.135  10.301  68.985  1.00  0.00    -0.213 A  
HETATM   21  C   UNL     1     -10.720   9.409  68.082  1.00  0.00    -0.230 A  
HETATM   22  C   UNL     1      -8.790  10.140  69.327  1.00  0.00    -0.191 A  
HETATM   23  C   UNL     1      -8.647   8.180  67.926  1.00  0.00    -0.132 A  
HETATM   24  C   UNL     1      -8.041   9.084  68.796  1.00  0.00    -0.105 A  
HETATM   25  C   UNL     1      -9.976   8.352  67.554  1.00  0.00    -0.259 A  
BRANCH  23  26
HETATM   26  N   UNL     1      -7.915   7.086  67.380  1.00  0.00    -0.111 N  
HETATM   27  H   UNL     1      -6.912   6.990  67.540  1.00  0.00     0.000 HD 
BRANCH  26  28
HETATM   28  S   UNL     1      -8.765   5.956  66.457  1.00  0.00    -0.130 S  
HETATM   29  O   UNL     1     -10.186   6.121  66.652  1.00  0.00    -0.189 OA 
HETATM   30  C   UNL     1      -8.243   4.421  67.195  1.00  0.00    -0.101 C  
HETATM   31  O   UNL     1      -8.177   6.024  65.134  1.00  0.00    -0.133 OA 
ENDBRANCH  26  28
ENDBRANCH  23  26
ENDBRANCH  19  20
ENDBRANCH  18  19
ENDBRANCH  17  18
ENDBRANCH   2  17
TORSDOF 11
ENDMDL
MODEL      274
REMARK 921   NORMALIZED FREE ENERGY PREDICTED BY IDOCK:   -0.27 KCAL/MOL
REMARK 922        TOTAL FREE ENERGY PREDICTED BY IDOCK:   -2.01 KCAL/MOL
REMARK 923 INTER-LIGAND FREE ENERGY PREDICTED BY IDOCK:   -2.25 KCAL/MOL
REMARK 924 INTRA-LIGAND FREE ENERGY PREDICTED BY IDOCK:    0.25 KCAL/MOL
REMARK 927      BINDING AFFINITY PREDICTED BY RF-SCORE:    0.00 PKD
ROOT
HETATM    1  C   UNL     1      -5.794  15.335  72.098  1.00  0.00     0.797 C  
HETATM    2  N   UNL     1      -5.667  14.730  70.768  1.00  0.00    -0.152 NA 
ENDROOT
BRANCH   2   3
HETATM    3  C   UNL     1      -6.942  14.791  70.021  1.00  0.00    -0.083 C  
BRANCH   3   4
HETATM    4  C   UNL     1      -6.879  15.450  68.624  1.00  0.00    -0.106 C  
BRANCH   4   5
HETATM    5  C   UNL     1      -7.745  14.775  67.584  1.00  0.00    -0.199 A  
HETATM    6  C   UNL     1      -9.279  13.518  65.604  1.00  0.00     0.448 A  
HETATM    7  C   UNL     1      -8.355  15.527  66.569  1.00  0.00    -0.234 A  
HETATM    8  C   UNL     1      -7.947  13.388  67.613  1.00  0.00    -0.174 A  
HETATM    9  C   UNL     1      -9.121  14.902  65.583  1.00  0.00     0.370 A  
HETATM   10  C   UNL     1      -8.713  12.763  66.627  1.00  0.00    -0.065 A  
BRANCH   6  11
HETATM   11  N   UNL     1     -10.047  12.859  64.602  1.00  0.00    -0.544 N  
HETATM   12  H   UNL     1     -10.653  13.383  63.971  1.00  0.00     0.000 HD 
BRANCH  11  13
HETATM   13  S   UNL     1      -9.915  11.178  64.495  1.00  0.00    -0.322 S  
HETATM   14  O   UNL     1     -10.965  10.656  65.346  1.00  0.00    -0.008 OA 
HETATM   15  O   UNL     1      -8.541  10.768  64.668  1.00  0.00    -0.154 OA 
HETATM   16  C   UNL     1     -10.405  10.892  62.808  1.00  0.00     0.204 C  
ENDBRANCH  11  13
ENDBRANCH   6  11
ENDBRANCH   4   5
ENDBRANCH   3   4
ENDBRANCH   2   3
BRANCH   2  17
HETATM   17  C   UNL     1      -5.174  13.341  70.916  1.00  0.00    -0.148 C  
BRANCH  17  18
HETATM   18  C   UNL     1      -5.935  12.298  70.082  1.00  0.00    -0.148 C  
BRANCH  18  19
HETATM   19  O   UNL     1      -5.901  11.034  70.757  1.00  0.00    -0.237 OA 
BRANCH  19  20
HETATM   20  C   UNL     1      -6.796  10.095  70.312  1.00  0.00    -0.148 A  
HETATM   21  C   UNL     1      -6.509   8.747  70.085  1.00  0.00    -0.038 A  
HETATM   22  C   UNL     1      -8.091  10.565  70.080  1.00  0.00     0.281 A  
HETATM   23  C   UNL     1      -8.777   8.372  69.341  1.00  0.00    -0.137 A  
HETATM   24  C   UNL     1      -9.085   9.706  69.599  1.00  0.00    -0.224 A  
HETATM   25  C   UNL     1      -7.498   7.888  69.602  1.00  0.00    -0.092 A  
BRANCH  23  26
HETATM   26  N   UNL     1      -9.763   7.476  68.839  1.00  0.00    -0.150 N  
HETATM   27  H   UNL     1     -10.218   6.796  69.448  1.00  0.00     0.000 HD 
BRANCH  26  28
HETATM   28  S   UNL     1     -10.153   7.578  67.199  1.00  0.00    -0.275 S  
HETATM   29  O   UNL     1     -10.851   6.386  66.777  1.00  0.00    -0.326 OA 
HETATM   30  C   UNL     1      -8.540   7.615  66.444  1.00  0.00    -0.143 C  
HETATM   31  O   UNL     1     -10.743   8.892  67.028  1.00  0.00    -0.248 OA 
ENDBRANCH  26  28
ENDBRANCH  23  26
ENDBRANCH  19  20
ENDBRANCH  18  19
ENDBRANCH  17  18
ENDBRANCH   2  17
TORSDOF 11
ENDMDL
MODEL      275
REMARK 921   NORMALIZED FREE ENERGY PREDICTED BY IDOCK:    0.18 KCAL/MOL
REMARK 922        TOTAL FREE ENERGY PREDICTED BY IDOCK:   -1.27 KCAL/MOL
REMARK 923 INTER-LIGAND FREE ENERGY PREDICTED BY IDOCK:   -2.68 KCAL/MOL
REMARK 924 INTRA-LIGAND FREE ENERGY PREDICTED BY IDOCK:    1.41 KCAL/MOL
REMARK 927      BINDING AFFINITY PREDICTED BY RF-SCORE:    0.00 PKD
ROOT
HETATM    1  C   UNL     1      -8.407   8.189  72.945  1.00  0.00    -0.188 C  
HETATM    2  N   UNL     1      -8.681   6.932  72.242  1.00  0.00    -0.127 NA 
ENDROOT
BRANCH   2   3
HETATM    3  C   UNL     1      -8.949   5.828  73.189  1.00  0.00    -0.124 C  
BRANCH   3   4
HETATM    4  C   UNL     1      -8.629   4.404  72.681  1.00  0.00    -0.110 C  
BRANCH   4   5
HETATM    5  C   UNL     1      -8.914   4.196  71.210  1.00  0.00    -0.163 A  
HETATM    6  C   UNL     1      -9.483   3.735  68.505  1.00  0.00    -0.145 A  
HETATM    7  C   UNL     1      -8.059   3.406  70.426  1.00  0.00    -0.057 A  
HETATM    8  C   UNL     1     -10.036   4.781  70.609  1.00  0.00    -0.288 A  
HETATM    9  C   UNL     1      -8.342   3.177  69.077  1.00  0.00    -0.084 A  
HETATM   10  C   UNL     1     -10.319   4.552  69.261  1.00  0.00     0.229 A  
BRANCH   6  11
HETATM   11  N   UNL     1      -9.796   3.504  67.135  1.00  0.00    -0.311 N  
HETATM   12  H   UNL     1     -10.569   2.897  66.864  1.00  0.00     0.000 HD 
BRANCH  11  13
HETATM   13  S   UNL     1      -8.840   4.274  65.974  1.00  0.00    -0.124 S  
HETATM   14  O   UNL     1      -8.204   5.375  66.669  1.00  0.00    -0.108 OA 
HETATM   15  O   UNL     1      -9.597   4.494  64.763  1.00  0.00    -0.154 OA 
HETATM   16  C   UNL     1      -7.592   3.042  65.671  1.00  0.00    -0.074 C  
ENDBRANCH  11  13
ENDBRANCH   6  11
ENDBRANCH   4   5
ENDBRANCH   3   4
ENDBRANCH   2   3
BRANCH   2  17
HETATM   17  C   UNL     1      -7.546   6.628  71.339  1.00  0.00    -0.093 C  
BRANCH  17  18
HETATM   18  C   UNL     1      -6.158   6.874  71.950  1.00  0.00    -0.038 C  
BRANCH  18  19
HETATM   19  O   UNL     1      -5.158   6.710  70.937  1.00  0.00    -0.018 OA 
BRANCH  19  20
HETATM   20  C   UNL     1      -5.395   7.359  69.752  1.00  0.00    -0.023 A  
HETATM   21  C   UNL     1      -5.661   8.724  69.615  1.00  0.00    -0.030 A  
HETATM   22  C   UNL     1      -5.359   6.553  68.611  1.00  0.00    -0.015 A  
HETATM   23  C   UNL     1      -5.912   8.452  67.228  1.00  0.00    -0.051 A  
HETATM   24  C   UNL     1      -5.612   7.097  67.347  1.00  0.00    -0.024 A  
HETATM   25  C   UNL     1      -5.917   9.268  68.355  1.00  0.00    -0.045 A  
BRANCH  23  26
HETATM   26  N   UNL     1      -6.188   9.033  65.957  1.00  0.00    -0.059 N  
HETATM   27  H   UNL     1      -5.451   9.164  65.265  1.00  0.00     0.000 HD 
BRANCH  26  28
HETATM   28  S   UNL     1      -7.780   9.496  65.635  1.00  0.00    -0.103 S  
HETATM   29  O   UNL     1      -8.352  10.151  66.788  1.00  0.00    -0.121 OA 
HETATM   30  C   UNL     1      -8.575   7.919  65.397  1.00  0.00    -0.095 C  
HETATM   31  O   UNL     1      -7.732  10.156  64.345  1.00  0.00    -0.143 OA 
ENDBRANCH  26  28
ENDBRANCH  23  26
ENDBRANCH  19  20
ENDBRANCH  18  19
ENDBRANCH  17  18
ENDBRANCH   2  17
TORSDOF 11
ENDMDL
MODEL      276
REMARK 921   NORMALIZED FREE ENERGY PREDICTED BY IDOCK:    1.22 KCAL/MOL
REMARK 922        TOTAL FREE ENERGY PREDICTED BY IDOCK:    0.44 KCAL/MOL
REMARK 923 INTER-LIGAND FREE ENERGY PREDICTED BY IDOCK:   -4.31 KCAL/MOL
REMARK 924 INTRA-LIGAND FREE ENERGY PREDICTED BY IDOCK:    4.75 KCAL/MOL
REMARK 927      BINDING AFFINITY PREDICTED BY RF-SCORE:    0.00 PKD
ROOT
HETATM    1  C   UNL     1     -11.835  14.558  71.472  1.00  0.00    -0.212 C  
HETATM    2  N   UNL     1     -10.902  14.456  70.345  1.00  0.00     0.164 NA 
ENDROOT
BRANCH   2   3
HETATM    3  C   UNL     1     -10.273  15.760  70.043  1.00  0.00    -0.233 C  
BRANCH   3   4
HETATM    4  C   UNL     1     -10.314  16.208  68.565  1.00  0.00    -0.254 C  
BRANCH   4   5
HETATM    5  C   UNL     1     -10.797  15.139  67.610  1.00  0.00    -0.295 A  
HETATM    6  C   UNL     1     -11.706  13.105  65.911  1.00  0.00    -0.384 A  
HETATM    7  C   UNL     1      -9.915  14.154  67.142  1.00  0.00    -0.255 A  
HETATM    8  C   UNL     1     -12.132  15.111  67.184  1.00  0.00     0.230 A  
HETATM    9  C   UNL     1     -10.367  13.141  66.293  1.00  0.00    -0.291 A  
HETATM   10  C   UNL     1     -12.584  14.098  66.337  1.00  0.00    -0.235 A  
BRANCH   6  11
HETATM   11  N   UNL     1     -12.190  12.074  65.056  1.00  0.00    -0.175 N  
HETATM   12  H   UNL     1     -12.564  11.204  65.436  1.00  0.00     0.000 HD 
BRANCH  11  13
HETATM   13  S   UNL     1     -12.123  12.344  63.389  1.00  0.00    -0.467 S  
HETATM   14  O   UNL     1     -12.081  13.784  63.234  1.00  0.00    -0.467 OA 
HETATM   15  O   UNL     1     -13.121  11.549  62.710  1.00  0.00    -0.033 OA 
HETATM   16  C   UNL     1     -10.505  11.717  62.996  1.00  0.00    -0.197 C  
ENDBRANCH  11  13
ENDBRANCH   6  11
ENDBRANCH   4   5
ENDBRANCH   3   4
ENDBRANCH   2   3
BRANCH   2  17
HETATM   17  C   UNL     1     -11.620  13.900  69.175  1.00  0.00    -0.313 C  
BRANCH  17  18
HETATM   18  C   UNL     1     -12.590  12.754  69.503  1.00  0.00     0.432 C  
BRANCH  18  19
HETATM   19  O   UNL     1     -11.888  11.724  70.209  1.00  0.00    -0.329 OA 
BRANCH  19  20
HETATM   20  C   UNL     1     -10.923  11.061  69.496  1.00  0.00    -0.243 A  
HETATM   21  C   UNL     1      -9.556  11.061  69.788  1.00  0.00     0.586 A  
HETATM   22  C   UNL     1     -11.385  10.338  68.394  1.00  0.00    -0.244 A  
HETATM   23  C   UNL     1      -9.126   9.680  67.853  1.00  0.00    -0.125 A  
HETATM   24  C   UNL     1     -10.491   9.642  67.573  1.00  0.00    -0.321 A  
HETATM   25  C   UNL     1      -8.661  10.371  68.968  1.00  0.00    -0.170 A  
BRANCH  23  26
HETATM   26  N   UNL     1      -8.190   8.993  67.029  1.00  0.00    -0.109 N  
HETATM   27  H   UNL     1      -7.972   8.008  67.183  1.00  0.00     0.000 HD 
BRANCH  26  28
HETATM   28  S   UNL     1      -7.451   9.865  65.785  1.00  0.00    -0.116 S  
HETATM   29  O   UNL     1      -7.838  11.255  65.853  1.00  0.00    -0.040 OA 
HETATM   30  C   UNL     1      -8.178   9.120  64.339  1.00  0.00    -0.158 C  
HETATM   31  O   UNL     1      -6.056   9.473  65.821  1.00  0.00    -0.058 OA 
ENDBRANCH  26  28
ENDBRANCH  23  26
ENDBRANCH  19  20
ENDBRANCH  18  19
ENDBRANCH  17  18
ENDBRANCH   2  17
TORSDOF 11
ENDMDL
MODEL      277
REMARK 921   NORMALIZED FREE ENERGY PREDICTED BY IDOCK:    1.23 KCAL/MOL
REMARK 922        TOTAL FREE ENERGY PREDICTED BY IDOCK:    0.46 KCAL/MOL
REMARK 923 INTER-LIGAND FREE ENERGY PREDICTED BY IDOCK:   -1.82 KCAL/MOL
REMARK 924 INTRA-LIGAND FREE ENERGY PREDICTED BY IDOCK:    2.28 KCAL/MOL
REMARK 927      BINDING AFFINITY PREDICTED BY RF-SCORE:    0.00 PKD
ROOT
HETATM    1  C   UNL     1      -9.858  19.065  65.842  1.00  0.00    -0.092 C  
HETATM    2  N   UNL     1      -9.322  19.959  66.873  1.00  0.00    -0.357 NA 
ENDROOT
BRANCH   2   3
HETATM    3  C   UNL     1      -7.887  19.701  67.123  1.00  0.00    -0.268 C  
BRANCH   3   4
HETATM    4  C   UNL     1      -7.558  18.846  68.367  1.00  0.00    -0.339 C  
BRANCH   4   5
HETATM    5  C   UNL     1      -7.373  17.374  68.073  1.00  0.00    -0.195 A  
HETATM    6  C   UNL     1      -6.954  14.665  67.489  1.00  0.00    -0.168 A  
HETATM    7  C   UNL     1      -7.751  16.846  66.829  1.00  0.00    -0.283 A  
HETATM    8  C   UNL     1      -6.818  16.517  69.032  1.00  0.00    -0.203 A  
HETATM    9  C   UNL     1      -7.543  15.495  66.538  1.00  0.00     0.317 A  
HETATM   10  C   UNL     1      -6.610  15.167  68.741  1.00  0.00    -0.094 A  
BRANCH   6  11
HETATM   11  N   UNL     1      -6.723  13.288  67.208  1.00  0.00    -0.300 N  
HETATM   12  H   UNL     1      -6.263  12.995  66.347  1.00  0.00     0.000 HD 
BRANCH  11  13
HETATM   13  S   UNL     1      -7.239  12.159  68.354  1.00  0.00    -0.103 S  
HETATM   14  O   UNL     1      -8.678  12.319  68.430  1.00  0.00    -0.182 OA 
HETATM   15  O   UNL     1      -6.417  12.233  69.540  1.00  0.00    -0.116 OA 
HETATM   16  C   UNL     1      -6.916  10.626  67.510  1.00  0.00    -0.083 C  
ENDBRANCH  11  13
ENDBRANCH   6  11
ENDBRANCH   4   5
ENDBRANCH   3   4
ENDBRANCH   2   3
BRANCH   2  17
HETATM   17  C   UNL     1     -10.136  19.819  68.103  1.00  0.00    -0.452 C  
BRANCH  17  18
HETATM   18  C   UNL     1      -9.738  18.638  69.003  1.00  0.00    -0.259 C  
BRANCH  18  19
HETATM   19  O   UNL     1     -10.885  18.196  69.740  1.00  0.00     0.786 OA 
BRANCH  19  20
HETATM   20  C   UNL     1     -11.087  16.840  69.773  1.00  0.00    -0.013 A  
HETATM   21  C   UNL     1     -11.448  16.102  70.904  1.00  0.00    -0.421 A  
HETATM   22  C   UNL     1     -10.908  16.178  68.556  1.00  0.00    -0.313 A  
HETATM   23  C   UNL     1     -11.384  14.061  69.613  1.00  0.00    -0.214 A  
HETATM   24  C   UNL     1     -11.060  14.790  68.471  1.00  0.00    -0.275 A  
HETATM   25  C   UNL     1     -11.597  14.716  70.822  1.00  0.00    -0.289 A  
BRANCH  23  26
HETATM   26  N   UNL     1     -11.532  12.645  69.561  1.00  0.00    -0.422 N  
HETATM   27  H   UNL     1     -10.901  12.068  69.005  1.00  0.00     0.000 HD 
BRANCH  26  28
HETATM   28  S   UNL     1     -12.789  11.955  70.453  1.00  0.00     0.300 S  
HETATM   29  O   UNL     1     -13.409  10.890  69.700  1.00  0.00     0.223 OA 
HETATM   30  C   UNL     1     -13.927  13.319  70.592  1.00  0.00     1.881 C  
HETATM   31  O   UNL     1     -12.235  11.716  71.772  1.00  0.00     0.114 OA 
ENDBRANCH  26  28
ENDBRANCH  23  26
ENDBRANCH  19  20
ENDBRANCH  18  19
ENDBRANCH  17  18
ENDBRANCH   2  17
TORSDOF 11
ENDMDL
MODEL      278
REMARK 921   NORMALIZED FREE ENERGY PREDICTED BY IDOCK:    2.72 KCAL/MOL
REMARK 922        TOTAL FREE ENERGY PREDICTED BY IDOCK:    2.91 KCAL/MOL
REMARK 923 INTER-LIGAND FREE ENERGY PREDICTED BY IDOCK:   -0.38 KCAL/MOL
REMARK 924 INTRA-LIGAND FREE ENERGY PREDICTED BY IDOCK:    3.30 KCAL/MOL
REMARK 927      BINDING AFFINITY PREDICTED BY RF-SCORE:    0.00 PKD
ROOT
HETATM    1  C   UNL     1      -8.617  13.778  69.571  1.00  0.00     0.997 C  
HETATM    2  N   UNL     1      -8.964  12.688  68.654  1.00  0.00    -0.029 NA 
ENDROOT
BRANCH   2   3
HETATM    3  C   UNL     1      -9.211  11.425  69.383  1.00  0.00     0.527 C  
BRANCH   3   4
HETATM    4  C   UNL     1      -8.028  10.431  69.440  1.00  0.00    -0.161 C  
BRANCH   4   5
HETATM    5  C   UNL     1      -7.953   9.493  68.256  1.00  0.00    -0.094 A  
HETATM    6  C   UNL     1      -7.852   7.693  66.112  1.00  0.00    -0.096 A  
HETATM    7  C   UNL     1      -6.878   8.602  68.124  1.00  0.00    -0.069 A  
HETATM    8  C   UNL     1      -8.956   9.495  67.278  1.00  0.00    -0.143 A  
HETATM    9  C   UNL     1      -6.826   7.704  67.054  1.00  0.00    -0.068 A  
HETATM   10  C   UNL     1      -8.905   8.598  66.209  1.00  0.00    -0.187 A  
BRANCH   6  11
HETATM   11  N   UNL     1      -7.824   6.778  65.020  1.00  0.00    -0.111 N  
HETATM   12  H   UNL     1      -7.631   7.095  64.070  1.00  0.00     0.000 HD 
BRANCH  11  13
HETATM   13  S   UNL     1      -8.123   5.150  65.356  1.00  0.00    -0.124 S  
HETATM   14  O   UNL     1      -9.058   4.713  64.339  1.00  0.00    -0.155 OA 
HETATM   15  O   UNL     1      -8.410   4.970  66.761  1.00  0.00    -0.108 OA 
HETATM   16  C   UNL     1      -6.545   4.417  64.981  1.00  0.00    -0.044 C  
ENDBRANCH  11  13
ENDBRANCH   6  11
ENDBRANCH   4   5
ENDBRANCH   3   4
ENDBRANCH   2   3
BRANCH   2  17
HETATM   17  C   UNL     1      -7.890  12.547  67.644  1.00  0.00    -0.162 C  
BRANCH  17  18
HETATM   18  C   UNL     1      -8.192  13.211  66.291  1.00  0.00     0.944 C  
BRANCH  18  19
HETATM   19  O   UNL     1      -9.600  13.455  66.185  1.00  0.00    -0.268 OA 
BRANCH  19  20
HETATM   20  C   UNL     1     -10.008  14.733  66.467  1.00  0.00    -0.271 A  
HETATM   21  C   UNL     1     -10.213  15.744  65.524  1.00  0.00    -0.407 A  
HETATM   22  C   UNL     1     -10.227  15.008  67.819  1.00  0.00    -0.236 A  
HETATM   23  C   UNL     1     -10.785  17.295  67.286  1.00  0.00    -0.215 A  
HETATM   24  C   UNL     1     -10.620  16.285  68.232  1.00  0.00    -0.300 A  
HETATM   25  C   UNL     1     -10.601  17.021  65.934  1.00  0.00    -0.221 A  
BRANCH  23  26
HETATM   26  N   UNL     1     -11.171  18.609  67.677  1.00  0.00     0.029 N  
HETATM   27  H   UNL     1     -12.042  18.775  68.180  1.00  0.00     0.000 HD 
BRANCH  26  28
HETATM   28  S   UNL     1     -10.136  19.882  67.278  1.00  0.00    -0.450 S  
HETATM   29  O   UNL     1     -10.892  20.992  66.749  1.00  0.00     1.376 OA 
HETATM   30  C   UNL     1      -9.159  19.159  65.975  1.00  0.00    -0.078 C  
HETATM   31  O   UNL     1      -9.271  20.045  68.429  1.00  0.00    -0.260 OA 
ENDBRANCH  26  28
ENDBRANCH  23  26
ENDBRANCH  19  20
ENDBRANCH  18  19
ENDBRANCH  17  18
ENDBRANCH   2  17
TORSDOF 11
ENDMDL
