MODEL        1
REMARK 921   NORMALIZED FREE ENERGY PREDICTED BY IDOCK:   -7.88 KCAL/MOL
REMARK 922        TOTAL FREE ENERGY PREDICTED BY IDOCK:   -9.90 KCAL/MOL
REMARK 923 INTER-LIGAND FREE ENERGY PREDICTED BY IDOCK:   -9.27 KCAL/MOL
REMARK 924 INTRA-LIGAND FREE ENERGY PREDICTED BY IDOCK:   -0.63 KCAL/MOL
REMARK 927      BINDING AFFINITY PREDICTED BY RF-SCORE:    0.00 PKD
ROOT
HETATM    1  C   UNL     1      -9.884  12.482  68.389  1.00  0.00    -0.202 C  
HETATM    2  C   UNL     1      -9.745  11.803  67.015  1.00  0.00    -0.198 C  
HETATM    3  C   UNL     1      -9.404  13.919  68.222  1.00  0.00    -0.209 C  
HETATM    4  C   UNL     1     -10.275  12.629  65.814  1.00  0.00    -0.272 C  
HETATM    5  N   UNL     1      -9.819  14.059  65.808  1.00  0.00    -0.287 NA 
HETATM    6  C   UNL     1     -10.182  14.660  67.109  1.00  0.00    -0.256 C  
HETATM    7  O   UNL     1     -12.777  14.884  63.874  1.00  0.00    -0.789 OA 
HETATM    8  C   UNL     1     -11.809  12.521  65.782  1.00  0.00    -0.494 C  
HETATM    9  C   UNL     1     -11.999  14.614  64.782  1.00  0.00    -0.433 C  
HETATM   10  C   UNL     1     -12.411  13.899  66.045  1.00  0.00    -0.501 C  
HETATM   11  C   UNL     1     -10.498  14.883  64.741  1.00  0.00    -0.264 C  
HETATM   12  C   UNL     1     -11.738  14.717  67.181  1.00  0.00    -0.351 C  
ENDROOT
BRANCH   1  13
HETATM   13  O   UNL     1     -11.187  12.659  68.980  1.00  0.00    -0.256 OA 
BRANCH  13  14
HETATM   14  C   UNL     1     -11.788  11.777  69.809  1.00  0.00    -0.349 C  
HETATM   15  O   UNL     1     -11.831  10.570  69.607  1.00  0.00    -0.263 OA 
BRANCH  14  16
HETATM   16  C   UNL     1     -12.481  12.447  70.916  1.00  0.00    -0.367 A  
HETATM   17  C   UNL     1     -13.169  14.045  72.405  1.00  0.00    -0.488 A  
HETATM   18  C   UNL     1     -12.337  13.819  71.304  1.00  0.00    -0.394 A  
HETATM   19  N   UNL     1     -13.771  12.843  72.714  1.00  0.00    -0.719 NA 
HETATM   20  C   UNL     1     -11.537  14.881  70.834  1.00  0.00    -0.344 A  
HETATM   21  C   UNL     1     -13.352  11.870  71.843  1.00  0.00    -0.300 A  
HETATM   22  C   UNL     1     -11.637  16.130  71.440  1.00  0.00    -0.495 A  
HETATM   23  C   UNL     1     -12.511  16.341  72.501  1.00  0.00    -0.424 A  
HETATM   24  H   UNL     1     -14.430  12.700  73.478  1.00  0.00     0.000 HD 
HETATM   25  C   UNL     1     -13.290  15.298  73.015  1.00  0.00    -0.610 A  
ENDBRANCH  14  16
ENDBRANCH  13  14
ENDBRANCH   1  13
TORSDOF 3
ENDMDL
MODEL        2
REMARK 921   NORMALIZED FREE ENERGY PREDICTED BY IDOCK:   -7.69 KCAL/MOL
REMARK 922        TOTAL FREE ENERGY PREDICTED BY IDOCK:   -9.67 KCAL/MOL
REMARK 923 INTER-LIGAND FREE ENERGY PREDICTED BY IDOCK:   -9.02 KCAL/MOL
REMARK 924 INTRA-LIGAND FREE ENERGY PREDICTED BY IDOCK:   -0.65 KCAL/MOL
REMARK 927      BINDING AFFINITY PREDICTED BY RF-SCORE:    0.00 PKD
ROOT
HETATM    1  C   UNL     1      -9.689  14.322  67.559  1.00  0.00    -0.223 C  
HETATM    2  C   UNL     1      -9.358  12.870  67.175  1.00  0.00    -0.229 C  
HETATM    3  C   UNL     1      -9.629  15.143  66.277  1.00  0.00    -0.325 C  
HETATM    4  C   UNL     1     -10.090  12.337  65.916  1.00  0.00    -0.251 C  
HETATM    5  N   UNL     1     -10.053  13.275  64.745  1.00  0.00    -0.276 NA 
HETATM    6  C   UNL     1     -10.577  14.583  65.190  1.00  0.00    -0.410 C  
HETATM    7  O   UNL     1     -13.113  11.734  63.546  1.00  0.00    -0.617 OA 
HETATM    8  C   UNL     1     -11.533  11.971  66.306  1.00  0.00    -0.408 C  
HETATM    9  C   UNL     1     -12.295  12.418  64.152  1.00  0.00    -0.467 C  
HETATM   10  C   UNL     1     -12.498  12.897  65.569  1.00  0.00    -0.462 C  
HETATM   11  C   UNL     1     -10.929  12.818  63.604  1.00  0.00    -0.358 C  
HETATM   12  C   UNL     1     -12.087  14.394  65.526  1.00  0.00    -0.358 C  
ENDROOT
BRANCH   1  13
HETATM   13  O   UNL     1     -10.992  14.654  68.077  1.00  0.00    -0.254 OA 
BRANCH  13  14
HETATM   14  C   UNL     1     -11.232  15.558  69.053  1.00  0.00    -0.303 C  
HETATM   15  O   UNL     1     -10.749  16.683  69.075  1.00  0.00    -0.312 OA 
BRANCH  14  16
HETATM   16  C   UNL     1     -12.042  14.994  70.138  1.00  0.00    -0.378 A  
HETATM   17  C   UNL     1     -13.075  13.502  71.537  1.00  0.00    -0.344 A  
HETATM   18  C   UNL     1     -12.228  13.603  70.428  1.00  0.00    -0.434 A  
HETATM   19  N   UNL     1     -13.436  14.785  71.891  1.00  0.00    -0.340 NA 
HETATM   20  C   UNL     1     -11.776  12.416  69.814  1.00  0.00    -0.361 A  
HETATM   21  C   UNL     1     -12.842  15.690  71.049  1.00  0.00    -0.463 A  
HETATM   22  C   UNL     1     -12.139  11.187  70.358  1.00  0.00    -0.475 A  
HETATM   23  C   UNL     1     -12.941  11.116  71.493  1.00  0.00    -0.542 A  
HETATM   24  H   UNL     1     -14.054  15.025  72.665  1.00  0.00     0.000 HD 
HETATM   25  C   UNL     1     -13.436  12.274  72.101  1.00  0.00    -0.431 A  
ENDBRANCH  14  16
ENDBRANCH  13  14
ENDBRANCH   1  13
TORSDOF 3
ENDMDL
MODEL        3
REMARK 921   NORMALIZED FREE ENERGY PREDICTED BY IDOCK:   -7.63 KCAL/MOL
REMARK 922        TOTAL FREE ENERGY PREDICTED BY IDOCK:   -9.60 KCAL/MOL
REMARK 923 INTER-LIGAND FREE ENERGY PREDICTED BY IDOCK:   -9.02 KCAL/MOL
REMARK 924 INTRA-LIGAND FREE ENERGY PREDICTED BY IDOCK:   -0.58 KCAL/MOL
REMARK 927      BINDING AFFINITY PREDICTED BY RF-SCORE:    0.00 PKD
ROOT
HETATM    1  C   UNL     1      -9.715  14.721  66.938  1.00  0.00    -0.240 C  
HETATM    2  C   UNL     1      -9.422  13.220  66.768  1.00  0.00    -0.257 C  
HETATM    3  C   UNL     1      -9.720  15.330  65.541  1.00  0.00    -0.313 C  
HETATM    4  C   UNL     1     -10.231  12.511  65.651  1.00  0.00    -0.267 C  
HETATM    5  N   UNL     1     -10.252  13.255  64.347  1.00  0.00    -0.357 NA 
HETATM    6  C   UNL     1     -10.735  14.626  64.609  1.00  0.00    -0.286 C  
HETATM    7  O   UNL     1     -13.392  11.605  63.576  1.00  0.00    -0.407 OA 
HETATM    8  C   UNL     1     -11.653  12.239  66.173  1.00  0.00    -0.450 C  
HETATM    9  C   UNL     1     -12.534  12.359  64.021  1.00  0.00    -0.459 C  
HETATM   10  C   UNL     1     -12.649  13.058  65.354  1.00  0.00    -0.481 C  
HETATM   11  C   UNL     1     -11.198  12.642  63.342  1.00  0.00    -0.344 C  
HETATM   12  C   UNL     1     -12.225  14.521  65.054  1.00  0.00    -0.376 C  
ENDROOT
BRANCH   1  13
HETATM   13  O   UNL     1     -10.982  15.155  67.468  1.00  0.00    -0.294 OA 
BRANCH  13  14
HETATM   14  C   UNL     1     -11.155  15.766  68.662  1.00  0.00    -0.327 C  
HETATM   15  O   UNL     1     -10.760  16.898  68.912  1.00  0.00    -0.329 OA 
BRANCH  14  16
HETATM   16  C   UNL     1     -11.766  14.874  69.653  1.00  0.00    -0.356 A  
HETATM   17  C   UNL     1     -12.622  14.059  71.615  1.00  0.00    -0.317 A  
HETATM   18  C   UNL     1     -12.045  15.188  71.023  1.00  0.00    -0.389 A  
HETATM   19  N   UNL     1     -12.655  13.069  70.656  1.00  0.00    -0.243 NA 
HETATM   20  C   UNL     1     -11.819  16.328  71.822  1.00  0.00    -0.510 A  
HETATM   21  C   UNL     1     -12.126  13.535  69.480  1.00  0.00    -0.297 A  
HETATM   22  C   UNL     1     -12.223  16.318  73.154  1.00  0.00    -0.620 A  
HETATM   23  C   UNL     1     -12.842  15.199  73.705  1.00  0.00    -0.621 A  
HETATM   24  H   UNL     1     -13.020  12.128  70.801  1.00  0.00     0.000 HD 
HETATM   25  C   UNL     1     -13.045  14.040  72.949  1.00  0.00    -0.481 A  
ENDBRANCH  14  16
ENDBRANCH  13  14
ENDBRANCH   1  13
TORSDOF 3
ENDMDL
MODEL        4
REMARK 921   NORMALIZED FREE ENERGY PREDICTED BY IDOCK:   -7.59 KCAL/MOL
REMARK 922        TOTAL FREE ENERGY PREDICTED BY IDOCK:   -9.56 KCAL/MOL
REMARK 923 INTER-LIGAND FREE ENERGY PREDICTED BY IDOCK:   -8.55 KCAL/MOL
REMARK 924 INTRA-LIGAND FREE ENERGY PREDICTED BY IDOCK:   -1.01 KCAL/MOL
REMARK 927      BINDING AFFINITY PREDICTED BY RF-SCORE:    0.00 PKD
ROOT
HETATM    1  C   UNL     1      -9.867  16.013  66.061  1.00  0.00    -0.337 C  
HETATM    2  C   UNL     1      -8.852  14.971  66.563  1.00  0.00    -0.286 C  
HETATM    3  C   UNL     1     -10.736  15.318  65.020  1.00  0.00    -0.461 C  
HETATM    4  C   UNL     1      -9.448  13.579  66.901  1.00  0.00    -0.258 C  
HETATM    5  N   UNL     1     -10.371  13.038  65.848  1.00  0.00    -0.283 NA 
HETATM    6  C   UNL     1     -11.416  14.051  65.591  1.00  0.00    -0.319 C  
HETATM    7  O   UNL     1     -12.000  11.078  68.433  1.00  0.00    -0.565 OA 
HETATM    8  C   UNL     1     -10.138  13.661  68.274  1.00  0.00    -0.240 C  
HETATM    9  C   UNL     1     -11.643  11.985  67.688  1.00  0.00    -0.321 C  
HETATM   10  C   UNL     1     -11.637  13.439  68.092  1.00  0.00    -0.376 C  
HETATM   11  C   UNL     1     -11.080  11.779  66.286  1.00  0.00    -0.311 C  
HETATM   12  C   UNL     1     -12.280  14.171  66.882  1.00  0.00    -0.400 C  
ENDROOT
BRANCH   1  13
HETATM   13  O   UNL     1     -10.846  16.562  66.964  1.00  0.00    -0.245 OA 
BRANCH  13  14
HETATM   14  C   UNL     1     -10.567  17.353  68.024  1.00  0.00    -0.389 C  
HETATM   15  O   UNL     1     -10.871  17.078  69.178  1.00  0.00    -0.288 OA 
BRANCH  14  16
HETATM   16  C   UNL     1      -9.964  18.626  67.616  1.00  0.00    -0.375 A  
HETATM   17  C   UNL     1      -8.466  20.336  67.336  1.00  0.00    -0.339 A  
HETATM   18  C   UNL     1      -8.631  19.067  67.902  1.00  0.00    -0.333 A  
HETATM   19  N   UNL     1      -9.671  20.685  66.762  1.00  0.00    -0.655 NA 
HETATM   20  C   UNL     1      -7.560  18.508  68.628  1.00  0.00    -0.330 A  
HETATM   21  C   UNL     1     -10.586  19.680  66.940  1.00  0.00    -0.484 A  
HETATM   22  C   UNL     1      -6.358  19.206  68.717  1.00  0.00    -0.274 A  
HETATM   23  C   UNL     1      -6.204  20.444  68.101  1.00  0.00    -0.323 A  
HETATM   24  H   UNL     1      -9.854  21.563  66.277  1.00  0.00     0.000 HD 
HETATM   25  C   UNL     1      -7.261  21.042  67.406  1.00  0.00    -0.354 A  
ENDBRANCH  14  16
ENDBRANCH  13  14
ENDBRANCH   1  13
TORSDOF 3
ENDMDL
MODEL        5
REMARK 921   NORMALIZED FREE ENERGY PREDICTED BY IDOCK:   -7.59 KCAL/MOL
REMARK 922        TOTAL FREE ENERGY PREDICTED BY IDOCK:   -9.56 KCAL/MOL
REMARK 923 INTER-LIGAND FREE ENERGY PREDICTED BY IDOCK:   -8.69 KCAL/MOL
REMARK 924 INTRA-LIGAND FREE ENERGY PREDICTED BY IDOCK:   -0.86 KCAL/MOL
REMARK 927      BINDING AFFINITY PREDICTED BY RF-SCORE:    0.00 PKD
ROOT
HETATM    1  C   UNL     1      -9.170  15.189  67.596  1.00  0.00    -0.181 C  
HETATM    2  C   UNL     1      -8.664  15.880  66.317  1.00  0.00    -0.372 C  
HETATM    3  C   UNL     1      -8.437  15.835  68.766  1.00  0.00    -0.198 C  
HETATM    4  C   UNL     1      -8.592  17.427  66.387  1.00  0.00    -0.247 C  
HETATM    5  N   UNL     1      -7.940  17.953  67.632  1.00  0.00    -0.217 NA 
HETATM    6  C   UNL     1      -8.639  17.369  68.796  1.00  0.00    -0.221 C  
HETATM    7  O   UNL     1      -9.845  21.014  67.211  1.00  0.00    -0.386 OA 
HETATM    8  C   UNL     1     -10.011  17.993  66.206  1.00  0.00    -0.338 C  
HETATM    9  C   UNL     1      -9.494  19.870  67.481  1.00  0.00    -0.359 C  
HETATM   10  C   UNL     1     -10.437  18.692  67.495  1.00  0.00    -0.473 C  
HETATM   11  C   UNL     1      -8.054  19.453  67.761  1.00  0.00    -0.291 C  
HETATM   12  C   UNL     1     -10.088  17.942  68.809  1.00  0.00    -0.384 C  
ENDROOT
BRANCH   1  13
HETATM   13  O   UNL     1     -10.551  15.317  67.989  1.00  0.00    -0.250 OA 
BRANCH  13  14
HETATM   14  C   UNL     1     -11.513  14.400  67.749  1.00  0.00    -0.336 C  
HETATM   15  O   UNL     1     -12.109  14.299  66.683  1.00  0.00    -0.426 OA 
BRANCH  14  16
HETATM   16  C   UNL     1     -11.841  13.619  68.947  1.00  0.00    -0.402 A  
HETATM   17  C   UNL     1     -12.580  13.045  71.038  1.00  0.00    -0.299 A  
HETATM   18  C   UNL     1     -12.450  14.115  70.146  1.00  0.00    -0.391 A  
HETATM   19  N   UNL     1     -12.029  11.938  70.428  1.00  0.00    -0.460 NA 
HETATM   20  C   UNL     1     -12.867  15.396  70.563  1.00  0.00    -0.425 A  
HETATM   21  C   UNL     1     -11.562  12.270  69.182  1.00  0.00    -0.318 A  
HETATM   22  C   UNL     1     -13.443  15.549  71.821  1.00  0.00    -0.576 A  
HETATM   23  C   UNL     1     -13.607  14.458  72.669  1.00  0.00    -0.589 A  
HETATM   24  H   UNL     1     -11.976  11.008  70.843  1.00  0.00     0.000 HD 
HETATM   25  C   UNL     1     -13.169  13.182  72.299  1.00  0.00    -0.555 A  
ENDBRANCH  14  16
ENDBRANCH  13  14
ENDBRANCH   1  13
TORSDOF 3
ENDMDL
MODEL        6
REMARK 921   NORMALIZED FREE ENERGY PREDICTED BY IDOCK:   -7.57 KCAL/MOL
REMARK 922        TOTAL FREE ENERGY PREDICTED BY IDOCK:   -9.53 KCAL/MOL
REMARK 923 INTER-LIGAND FREE ENERGY PREDICTED BY IDOCK:   -8.46 KCAL/MOL
REMARK 924 INTRA-LIGAND FREE ENERGY PREDICTED BY IDOCK:   -1.08 KCAL/MOL
REMARK 927      BINDING AFFINITY PREDICTED BY RF-SCORE:    0.00 PKD
ROOT
HETATM    1  C   UNL     1     -10.477  18.667  66.518  1.00  0.00    -0.420 C  
HETATM    2  C   UNL     1     -10.441  18.790  68.051  1.00  0.00    -0.410 C  
HETATM    3  C   UNL     1      -9.541  19.737  65.967  1.00  0.00    -0.425 C  
HETATM    4  C   UNL     1      -9.025  18.929  68.669  1.00  0.00    -0.350 C  
HETATM    5  N   UNL     1      -8.155  19.940  67.981  1.00  0.00    -0.295 NA 
HETATM    6  C   UNL     1      -8.111  19.602  66.543  1.00  0.00    -0.320 C  
HETATM    7  O   UNL     1      -5.260  18.096  69.161  1.00  0.00    -0.180 OA 
HETATM    8  C   UNL     1      -8.366  17.539  68.702  1.00  0.00    -0.258 C  
HETATM    9  C   UNL     1      -6.241  18.474  68.530  1.00  0.00    -0.206 C  
HETATM   10  C   UNL     1      -7.154  17.541  67.773  1.00  0.00    -0.187 C  
HETATM   11  C   UNL     1      -6.730  19.918  68.479  1.00  0.00    -0.303 C  
HETATM   12  C   UNL     1      -7.363  18.242  66.403  1.00  0.00    -0.283 C  
ENDROOT
BRANCH   1  13
HETATM   13  O   UNL     1      -9.991  17.472  65.876  1.00  0.00    -0.511 OA 
BRANCH  13  14
HETATM   14  C   UNL     1     -10.749  16.614  65.157  1.00  0.00    -0.189 C  
HETATM   15  O   UNL     1     -11.480  16.957  64.237  1.00  0.00    -1.142 OA 
BRANCH  14  16
HETATM   16  C   UNL     1     -10.681  15.246  65.683  1.00  0.00    -0.376 A  
HETATM   17  C   UNL     1     -10.820  13.444  67.091  1.00  0.00    -0.276 A  
HETATM   18  C   UNL     1     -11.040  14.823  67.004  1.00  0.00    -0.333 A  
HETATM   19  N   UNL     1     -10.300  13.039  65.880  1.00  0.00    -0.283 NA 
HETATM   20  C   UNL     1     -11.499  15.506  68.150  1.00  0.00    -0.332 A  
HETATM   21  C   UNL     1     -10.190  14.111  65.032  1.00  0.00    -0.370 A  
HETATM   22  C   UNL     1     -11.770  14.786  69.310  1.00  0.00    -0.347 A  
HETATM   23  C   UNL     1     -11.591  13.406  69.353  1.00  0.00    -0.365 A  
HETATM   24  H   UNL     1     -10.035  12.082  65.649  1.00  0.00     0.000 HD 
HETATM   25  C   UNL     1     -11.101  12.706  68.245  1.00  0.00    -0.295 A  
ENDBRANCH  14  16
ENDBRANCH  13  14
ENDBRANCH   1  13
TORSDOF 3
ENDMDL
MODEL        7
REMARK 921   NORMALIZED FREE ENERGY PREDICTED BY IDOCK:   -7.44 KCAL/MOL
REMARK 922        TOTAL FREE ENERGY PREDICTED BY IDOCK:   -9.38 KCAL/MOL
REMARK 923 INTER-LIGAND FREE ENERGY PREDICTED BY IDOCK:   -8.81 KCAL/MOL
REMARK 924 INTRA-LIGAND FREE ENERGY PREDICTED BY IDOCK:   -0.57 KCAL/MOL
REMARK 927      BINDING AFFINITY PREDICTED BY RF-SCORE:    0.00 PKD
ROOT
HETATM    1  C   UNL     1     -10.254  14.534  68.649  1.00  0.00    -0.243 C  
HETATM    2  C   UNL     1      -9.348  13.453  68.034  1.00  0.00    -0.217 C  
HETATM    3  C   UNL     1     -10.473  15.591  67.572  1.00  0.00    -0.282 C  
HETATM    4  C   UNL     1      -9.745  12.991  66.607  1.00  0.00    -0.256 C  
HETATM    5  N   UNL     1     -10.037  14.118  65.660  1.00  0.00    -0.326 NA 
HETATM    6  C   UNL     1     -11.065  14.982  66.279  1.00  0.00    -0.334 C  
HETATM    7  O   UNL     1     -12.157  11.848  63.781  1.00  0.00    -0.450 OA 
HETATM    8  C   UNL     1     -10.933  12.020  66.720  1.00  0.00    -0.329 C  
HETATM    9  C   UNL     1     -11.713  12.631  64.614  1.00  0.00    -0.357 C  
HETATM   10  C   UNL     1     -12.156  12.649  66.057  1.00  0.00    -0.429 C  
HETATM   11  C   UNL     1     -10.603  13.641  64.344  1.00  0.00    -0.341 C  
HETATM   12  C   UNL     1     -12.383  14.155  66.365  1.00  0.00    -0.431 C  
ENDROOT
BRANCH   1  13
HETATM   13  O   UNL     1     -11.602  14.209  69.041  1.00  0.00    -0.262 OA 
BRANCH  13  14
HETATM   14  C   UNL     1     -12.229  14.694  70.136  1.00  0.00    -0.335 C  
HETATM   15  O   UNL     1     -12.270  15.883  70.428  1.00  0.00    -0.372 OA 
BRANCH  14  16
HETATM   16  C   UNL     1     -12.752  13.622  70.991  1.00  0.00    -0.408 A  
HETATM   17  C   UNL     1     -13.179  11.552  71.872  1.00  0.00    -0.374 A  
HETATM   18  C   UNL     1     -12.481  12.222  70.861  1.00  0.00    -0.371 A  
HETATM   19  N   UNL     1     -13.893  12.502  72.571  1.00  0.00    -0.544 NA 
HETATM   20  C   UNL     1     -11.727  11.461  69.943  1.00  0.00    -0.424 A  
HETATM   21  C   UNL     1     -13.665  13.746  72.042  1.00  0.00    -0.482 A  
HETATM   22  C   UNL     1     -11.657  10.079  70.100  1.00  0.00    -0.320 A  
HETATM   23  C   UNL     1     -12.320   9.443  71.145  1.00  0.00    -0.386 A  
HETATM   24  H   UNL     1     -14.502  12.308  73.365  1.00  0.00     0.000 HD 
HETATM   25  C   UNL     1     -13.106  10.166  72.048  1.00  0.00    -0.538 A  
ENDBRANCH  14  16
ENDBRANCH  13  14
ENDBRANCH   1  13
TORSDOF 3
ENDMDL
MODEL        8
REMARK 921   NORMALIZED FREE ENERGY PREDICTED BY IDOCK:   -7.43 KCAL/MOL
REMARK 922        TOTAL FREE ENERGY PREDICTED BY IDOCK:   -9.36 KCAL/MOL
REMARK 923 INTER-LIGAND FREE ENERGY PREDICTED BY IDOCK:   -8.77 KCAL/MOL
REMARK 924 INTRA-LIGAND FREE ENERGY PREDICTED BY IDOCK:   -0.59 KCAL/MOL
REMARK 927      BINDING AFFINITY PREDICTED BY RF-SCORE:    0.00 PKD
ROOT
HETATM    1  C   UNL     1     -10.608  18.626  66.365  1.00  0.00    -0.349 C  
HETATM    2  C   UNL     1     -10.555  18.613  67.903  1.00  0.00    -0.397 C  
HETATM    3  C   UNL     1      -9.783  19.823  65.905  1.00  0.00    -0.360 C  
HETATM    4  C   UNL     1      -9.147  18.825  68.516  1.00  0.00    -0.342 C  
HETATM    5  N   UNL     1      -8.384  19.970  67.914  1.00  0.00    -0.288 NA 
HETATM    6  C   UNL     1      -8.337  19.768  66.451  1.00  0.00    -0.350 C  
HETATM    7  O   UNL     1      -5.313  18.300  68.891  1.00  0.00    -0.185 OA 
HETATM    8  C   UNL     1      -8.364  17.505  68.415  1.00  0.00    -0.278 C  
HETATM    9  C   UNL     1      -6.336  18.642  68.308  1.00  0.00    -0.213 C  
HETATM   10  C   UNL     1      -7.174  17.701  67.478  1.00  0.00    -0.194 C  
HETATM   11  C   UNL     1      -6.954  20.033  68.394  1.00  0.00    -0.294 C  
HETATM   12  C   UNL     1      -7.471  18.501  66.180  1.00  0.00    -0.282 C  
ENDROOT
BRANCH   1  13
HETATM   13  O   UNL     1     -10.028  17.543  65.612  1.00  0.00    -0.561 OA 
BRANCH  13  14
HETATM   14  C   UNL     1     -10.728  16.606  64.935  1.00  0.00    -0.082 C  
HETATM   15  O   UNL     1     -11.655  16.863  64.176  1.00  0.00    -1.091 OA 
BRANCH  14  16
HETATM   16  C   UNL     1     -10.326  15.245  65.304  1.00  0.00    -0.430 A  
HETATM   17  C   UNL     1     -10.214  12.960  65.409  1.00  0.00    -0.287 A  
HETATM   18  C   UNL     1     -10.877  14.026  64.791  1.00  0.00    -0.430 A  
HETATM   19  N   UNL     1      -9.318  13.502  66.306  1.00  0.00    -0.457 NA 
HETATM   20  C   UNL     1     -11.913  13.738  63.879  1.00  0.00    -0.414 A  
HETATM   21  C   UNL     1      -9.388  14.871  66.271  1.00  0.00    -0.296 A  
HETATM   22  C   UNL     1     -12.209  12.411  63.580  1.00  0.00    -0.661 A  
HETATM   23  C   UNL     1     -11.500  11.370  64.170  1.00  0.00    -0.197 A  
HETATM   24  H   UNL     1      -8.695  12.964  66.907  1.00  0.00     0.000 HD 
HETATM   25  C   UNL     1     -10.492  11.622  65.108  1.00  0.00    -0.329 A  
ENDBRANCH  14  16
ENDBRANCH  13  14
ENDBRANCH   1  13
TORSDOF 3
ENDMDL
MODEL        9
REMARK 921   NORMALIZED FREE ENERGY PREDICTED BY IDOCK:   -7.40 KCAL/MOL
REMARK 922        TOTAL FREE ENERGY PREDICTED BY IDOCK:   -9.32 KCAL/MOL
REMARK 923 INTER-LIGAND FREE ENERGY PREDICTED BY IDOCK:   -8.06 KCAL/MOL
REMARK 924 INTRA-LIGAND FREE ENERGY PREDICTED BY IDOCK:   -1.26 KCAL/MOL
REMARK 927      BINDING AFFINITY PREDICTED BY RF-SCORE:    0.00 PKD
ROOT
HETATM    1  C   UNL     1      -9.858  12.892  68.286  1.00  0.00    -0.228 C  
HETATM    2  C   UNL     1     -11.377  13.070  68.452  1.00  0.00    -0.326 C  
HETATM    3  C   UNL     1      -9.651  11.884  67.161  1.00  0.00    -0.192 C  
HETATM    4  C   UNL     1     -12.168  13.257  67.131  1.00  0.00    -0.227 C  
HETATM    5  N   UNL     1     -11.808  12.271  66.058  1.00  0.00    -0.562 NA 
HETATM    6  C   UNL     1     -10.346  12.332  65.852  1.00  0.00    -0.252 C  
HETATM    7  O   UNL     1     -12.902  14.706  63.598  1.00  0.00    -0.637 OA 
HETATM    8  C   UNL     1     -11.987  14.709  66.653  1.00  0.00    -0.293 C  
HETATM    9  C   UNL     1     -12.256  14.077  64.429  1.00  0.00    -0.426 C  
HETATM   10  C   UNL     1     -11.223  14.706  65.331  1.00  0.00    -0.347 C  
HETATM   11  C   UNL     1     -12.450  12.594  64.730  1.00  0.00    -0.484 C  
HETATM   12  C   UNL     1     -10.013  13.734  65.260  1.00  0.00    -0.245 C  
ENDROOT
BRANCH   1  13
HETATM   13  O   UNL     1      -9.042  14.001  67.860  1.00  0.00    -0.174 OA 
BRANCH  13  14
HETATM   14  C   UNL     1      -8.950  15.187  68.502  1.00  0.00    -0.186 C  
HETATM   15  O   UNL     1      -9.234  15.348  69.682  1.00  0.00    -0.264 OA 
BRANCH  14  16
HETATM   16  C   UNL     1      -8.583  16.278  67.592  1.00  0.00    -0.181 A  
HETATM   17  C   UNL     1      -8.601  18.270  66.461  1.00  0.00    -0.266 A  
HETATM   18  C   UNL     1      -9.279  17.520  67.427  1.00  0.00    -0.238 A  
HETATM   19  N   UNL     1      -7.549  17.499  66.012  1.00  0.00    -0.482 NA 
HETATM   20  C   UNL     1     -10.456  18.054  67.993  1.00  0.00    -0.388 A  
HETATM   21  C   UNL     1      -7.537  16.293  66.665  1.00  0.00    -0.232 A  
HETATM   22  C   UNL     1     -10.875  19.327  67.616  1.00  0.00    -0.484 A  
HETATM   23  C   UNL     1     -10.153  20.073  66.690  1.00  0.00    -0.607 A  
HETATM   24  H   UNL     1      -6.878  17.784  65.299  1.00  0.00     0.000 HD 
HETATM   25  C   UNL     1      -9.003  19.555  66.083  1.00  0.00    -0.342 A  
ENDBRANCH  14  16
ENDBRANCH  13  14
ENDBRANCH   1  13
TORSDOF 3
ENDMDL
MODEL       10
REMARK 921   NORMALIZED FREE ENERGY PREDICTED BY IDOCK:   -7.37 KCAL/MOL
REMARK 922        TOTAL FREE ENERGY PREDICTED BY IDOCK:   -9.30 KCAL/MOL
REMARK 923 INTER-LIGAND FREE ENERGY PREDICTED BY IDOCK:   -8.56 KCAL/MOL
REMARK 924 INTRA-LIGAND FREE ENERGY PREDICTED BY IDOCK:   -0.74 KCAL/MOL
REMARK 927      BINDING AFFINITY PREDICTED BY RF-SCORE:    0.00 PKD
ROOT
HETATM    1  C   UNL     1     -11.656  13.875  64.720  1.00  0.00    -0.374 C  
HETATM    2  C   UNL     1     -11.414  12.385  64.419  1.00  0.00    -0.408 C  
HETATM    3  C   UNL     1     -12.530  13.937  65.968  1.00  0.00    -0.501 C  
HETATM    4  C   UNL     1     -11.023  11.519  65.645  1.00  0.00    -0.236 C  
HETATM    5  N   UNL     1     -11.891  11.739  66.850  1.00  0.00    -0.585 NA 
HETATM    6  C   UNL     1     -11.888  13.184  67.158  1.00  0.00    -0.369 C  
HETATM    7  O   UNL     1      -9.117  10.638  68.917  1.00  0.00    -0.165 OA 
HETATM    8  C   UNL     1      -9.537  11.761  65.962  1.00  0.00    -0.248 C  
HETATM    9  C   UNL     1      -9.879  11.298  68.217  1.00  0.00    -0.197 C  
HETATM   10  C   UNL     1      -9.422  12.430  67.330  1.00  0.00    -0.191 C  
HETATM   11  C   UNL     1     -11.373  11.029  68.077  1.00  0.00    -0.306 C  
HETATM   12  C   UNL     1     -10.445  13.565  67.606  1.00  0.00    -0.239 C  
ENDROOT
BRANCH   1  13
HETATM   13  O   UNL     1     -10.551  14.729  65.075  1.00  0.00    -0.386 OA 
BRANCH  13  14
HETATM   14  C   UNL     1     -10.568  16.080  65.025  1.00  0.00    -0.316 C  
HETATM   15  O   UNL     1     -11.268  16.725  64.255  1.00  0.00    -1.163 OA 
BRANCH  14  16
HETATM   16  C   UNL     1      -9.567  16.676  65.917  1.00  0.00    -0.248 A  
HETATM   17  C   UNL     1      -8.504  18.122  67.339  1.00  0.00    -0.240 A  
HETATM   18  C   UNL     1      -9.676  17.931  66.600  1.00  0.00    -0.319 A  
HETATM   19  N   UNL     1      -7.681  17.045  67.083  1.00  0.00    -0.166 NA 
HETATM   20  C   UNL     1     -10.660  18.941  66.622  1.00  0.00    -0.469 A  
HETATM   21  C   UNL     1      -8.296  16.179  66.216  1.00  0.00    -0.287 A  
HETATM   22  C   UNL     1     -10.462  20.068  67.416  1.00  0.00    -0.490 A  
HETATM   23  C   UNL     1      -9.309  20.210  68.181  1.00  0.00    -0.294 A  
HETATM   24  H   UNL     1      -6.752  16.912  67.482  1.00  0.00     0.000 HD 
HETATM   25  C   UNL     1      -8.298  19.243  68.151  1.00  0.00    -0.358 A  
ENDBRANCH  14  16
ENDBRANCH  13  14
ENDBRANCH   1  13
TORSDOF 3
ENDMDL
MODEL       11
REMARK 921   NORMALIZED FREE ENERGY PREDICTED BY IDOCK:   -7.29 KCAL/MOL
REMARK 922        TOTAL FREE ENERGY PREDICTED BY IDOCK:   -9.20 KCAL/MOL
REMARK 923 INTER-LIGAND FREE ENERGY PREDICTED BY IDOCK:   -8.32 KCAL/MOL
REMARK 924 INTRA-LIGAND FREE ENERGY PREDICTED BY IDOCK:   -0.88 KCAL/MOL
REMARK 927      BINDING AFFINITY PREDICTED BY RF-SCORE:    0.00 PKD
ROOT
HETATM    1  C   UNL     1      -9.336  15.281  67.307  1.00  0.00    -0.205 C  
HETATM    2  C   UNL     1      -8.624  16.088  66.207  1.00  0.00    -0.363 C  
HETATM    3  C   UNL     1      -8.792  15.778  68.641  1.00  0.00    -0.199 C  
HETATM    4  C   UNL     1      -8.547  17.617  66.456  1.00  0.00    -0.259 C  
HETATM    5  N   UNL     1      -8.097  17.989  67.839  1.00  0.00    -0.238 NA 
HETATM    6  C   UNL     1      -8.980  17.304  68.806  1.00  0.00    -0.231 C  
HETATM    7  O   UNL     1      -9.877  21.130  67.459  1.00  0.00    -0.306 OA 
HETATM    8  C   UNL     1      -9.913  18.238  66.116  1.00  0.00    -0.313 C  
HETATM    9  C   UNL     1      -9.586  19.955  67.653  1.00  0.00    -0.372 C  
HETATM   10  C   UNL     1     -10.532  18.809  67.389  1.00  0.00    -0.490 C  
HETATM   11  C   UNL     1      -8.214  19.469  68.111  1.00  0.00    -0.317 C  
HETATM   12  C   UNL     1     -10.406  17.914  68.653  1.00  0.00    -0.342 C  
ENDROOT
BRANCH   1  13
HETATM   13  O   UNL     1     -10.760  15.405  67.488  1.00  0.00    -0.281 OA 
BRANCH  13  14
HETATM   14  C   UNL     1     -11.656  14.412  67.294  1.00  0.00    -0.379 C  
HETATM   15  O   UNL     1     -12.277  13.867  68.198  1.00  0.00    -0.329 OA 
BRANCH  14  16
HETATM   16  C   UNL     1     -11.712  13.987  65.891  1.00  0.00    -0.373 A  
HETATM   17  C   UNL     1     -11.354  12.821  63.953  1.00  0.00    -0.442 A  
HETATM   18  C   UNL     1     -11.035  12.864  65.314  1.00  0.00    -0.310 A  
HETATM   19  N   UNL     1     -12.162  13.906  63.690  1.00  0.00    -0.971 NA 
HETATM   20  C   UNL     1     -10.143  11.900  65.829  1.00  0.00    -0.272 A  
HETATM   21  C   UNL     1     -12.369  14.628  64.837  1.00  0.00    -0.315 A  
HETATM   22  C   UNL     1      -9.652  10.907  64.986  1.00  0.00    -0.299 A  
HETATM   23  C   UNL     1     -10.026  10.856  63.647  1.00  0.00    -0.415 A  
HETATM   24  H   UNL     1     -12.550  14.138  62.775  1.00  0.00     0.000 HD 
HETATM   25  C   UNL     1     -10.878  11.821  63.097  1.00  0.00    -0.299 A  
ENDBRANCH  14  16
ENDBRANCH  13  14
ENDBRANCH   1  13
TORSDOF 3
ENDMDL
MODEL       12
REMARK 921   NORMALIZED FREE ENERGY PREDICTED BY IDOCK:   -7.25 KCAL/MOL
REMARK 922        TOTAL FREE ENERGY PREDICTED BY IDOCK:   -9.15 KCAL/MOL
REMARK 923 INTER-LIGAND FREE ENERGY PREDICTED BY IDOCK:   -8.07 KCAL/MOL
REMARK 924 INTRA-LIGAND FREE ENERGY PREDICTED BY IDOCK:   -1.08 KCAL/MOL
REMARK 927      BINDING AFFINITY PREDICTED BY RF-SCORE:    0.00 PKD
ROOT
HETATM    1  C   UNL     1     -10.309  14.427  68.183  1.00  0.00    -0.231 C  
HETATM    2  C   UNL     1     -11.256  13.225  68.017  1.00  0.00    -0.307 C  
HETATM    3  C   UNL     1      -9.168  14.230  67.191  1.00  0.00    -0.230 C  
HETATM    4  C   UNL     1     -11.600  12.854  66.551  1.00  0.00    -0.371 C  
HETATM    5  N   UNL     1     -10.408  12.790  65.641  1.00  0.00    -0.276 NA 
HETATM    6  C   UNL     1      -9.686  14.075  65.742  1.00  0.00    -0.194 C  
HETATM    7  O   UNL     1     -12.624  13.516  62.859  1.00  0.00    -0.607 OA 
HETATM    8  C   UNL     1     -12.660  13.841  66.031  1.00  0.00    -0.458 C  
HETATM    9  C   UNL     1     -11.899  13.604  63.844  1.00  0.00    -0.374 C  
HETATM   10  C   UNL     1     -12.056  14.671  64.900  1.00  0.00    -0.386 C  
HETATM   11  C   UNL     1     -10.791  12.615  64.191  1.00  0.00    -0.396 C  
HETATM   12  C   UNL     1     -10.609  15.180  65.144  1.00  0.00    -0.447 C  
ENDROOT
BRANCH   1  13
HETATM   13  O   UNL     1     -10.766  15.757  67.868  1.00  0.00    -0.284 OA 
BRANCH  13  14
HETATM   14  C   UNL     1     -10.548  16.853  68.628  1.00  0.00    -0.360 C  
HETATM   15  O   UNL     1     -10.779  16.906  69.829  1.00  0.00    -0.291 OA 
BRANCH  14  16
HETATM   16  C   UNL     1     -10.112  18.001  67.826  1.00  0.00    -0.359 A  
HETATM   17  C   UNL     1      -8.837  19.396  66.531  1.00  0.00    -0.352 A  
HETATM   18  C   UNL     1      -8.840  18.159  67.186  1.00  0.00    -0.259 A  
HETATM   19  N   UNL     1     -10.048  19.999  66.797  1.00  0.00    -0.450 NA 
HETATM   20  C   UNL     1      -7.673  17.369  67.140  1.00  0.00    -0.229 A  
HETATM   21  C   UNL     1     -10.816  19.185  67.589  1.00  0.00    -0.369 A  
HETATM   22  C   UNL     1      -6.577  17.814  66.405  1.00  0.00    -0.276 A  
HETATM   23  C   UNL     1      -6.619  19.024  65.721  1.00  0.00    -0.289 A  
HETATM   24  H   UNL     1     -10.331  20.917  66.454  1.00  0.00     0.000 HD 
HETATM   25  C   UNL     1      -7.748  19.848  65.778  1.00  0.00    -0.275 A  
ENDBRANCH  14  16
ENDBRANCH  13  14
ENDBRANCH   1  13
TORSDOF 3
ENDMDL
MODEL       13
REMARK 921   NORMALIZED FREE ENERGY PREDICTED BY IDOCK:   -7.15 KCAL/MOL
REMARK 922        TOTAL FREE ENERGY PREDICTED BY IDOCK:   -9.03 KCAL/MOL
REMARK 923 INTER-LIGAND FREE ENERGY PREDICTED BY IDOCK:   -7.93 KCAL/MOL
REMARK 924 INTRA-LIGAND FREE ENERGY PREDICTED BY IDOCK:   -1.09 KCAL/MOL
REMARK 927      BINDING AFFINITY PREDICTED BY RF-SCORE:    0.00 PKD
ROOT
HETATM    1  C   UNL     1     -10.951  14.964  69.118  1.00  0.00    -0.260 C  
HETATM    2  C   UNL     1      -9.432  14.806  69.308  1.00  0.00    -0.061 C  
HETATM    3  C   UNL     1     -11.263  16.449  69.268  1.00  0.00    -0.272 C  
HETATM    4  C   UNL     1      -8.560  15.831  68.537  1.00  0.00    -0.183 C  
HETATM    5  N   UNL     1      -9.023  17.253  68.674  1.00  0.00    -0.274 NA 
HETATM    6  C   UNL     1     -10.445  17.311  68.278  1.00  0.00    -0.385 C  
HETATM    7  O   UNL     1      -7.439  17.966  65.487  1.00  0.00    -0.524 OA 
HETATM    8  C   UNL     1      -8.485  15.398  67.062  1.00  0.00    -0.262 C  
HETATM    9  C   UNL     1      -8.216  17.602  66.363  1.00  0.00    -0.263 C  
HETATM   10  C   UNL     1      -9.176  16.450  66.198  1.00  0.00    -0.365 C  
HETATM   11  C   UNL     1      -8.276  18.198  67.766  1.00  0.00    -0.242 C  
HETATM   12  C   UNL     1     -10.521  16.993  66.754  1.00  0.00    -0.257 C  
ENDROOT
BRANCH   1  13
HETATM   13  O   UNL     1     -11.558  14.648  67.850  1.00  0.00    -0.319 OA 
BRANCH  13  14
HETATM   14  C   UNL     1     -11.846  13.400  67.417  1.00  0.00    -0.375 C  
HETATM   15  O   UNL     1     -12.130  12.469  68.161  1.00  0.00    -0.307 OA 
BRANCH  14  16
HETATM   16  C   UNL     1     -11.665  13.264  65.968  1.00  0.00    -0.408 A  
HETATM   17  C   UNL     1     -10.999  12.486  63.920  1.00  0.00    -0.424 A  
HETATM   18  C   UNL     1     -10.920  12.242  65.295  1.00  0.00    -0.347 A  
HETATM   19  N   UNL     1     -11.728  13.644  63.753  1.00  0.00    -0.665 NA 
HETATM   20  C   UNL     1     -10.152  11.148  65.744  1.00  0.00    -0.299 A  
HETATM   21  C   UNL     1     -12.117  14.135  64.972  1.00  0.00    -0.421 A  
HETATM   22  C   UNL     1      -9.541  10.315  64.810  1.00  0.00    -0.369 A  
HETATM   23  C   UNL     1      -9.678  10.550  63.445  1.00  0.00    -0.368 A  
HETATM   24  H   UNL     1     -11.946  14.073  62.854  1.00  0.00     0.000 HD 
HETATM   25  C   UNL     1     -10.402  11.650  62.970  1.00  0.00    -0.284 A  
ENDBRANCH  14  16
ENDBRANCH  13  14
ENDBRANCH   1  13
TORSDOF 3
ENDMDL
MODEL       14
REMARK 921   NORMALIZED FREE ENERGY PREDICTED BY IDOCK:   -7.14 KCAL/MOL
REMARK 922        TOTAL FREE ENERGY PREDICTED BY IDOCK:   -9.03 KCAL/MOL
REMARK 923 INTER-LIGAND FREE ENERGY PREDICTED BY IDOCK:   -7.88 KCAL/MOL
REMARK 924 INTRA-LIGAND FREE ENERGY PREDICTED BY IDOCK:   -1.15 KCAL/MOL
REMARK 927      BINDING AFFINITY PREDICTED BY RF-SCORE:    0.00 PKD
ROOT
HETATM    1  C   UNL     1     -11.554  14.184  64.728  1.00  0.00    -0.396 C  
HETATM    2  C   UNL     1     -11.006  12.789  64.381  1.00  0.00    -0.393 C  
HETATM    3  C   UNL     1     -12.645  13.983  65.774  1.00  0.00    -0.512 C  
HETATM    4  C   UNL     1     -10.709  11.875  65.599  1.00  0.00    -0.280 C  
HETATM    5  N   UNL     1     -11.813  11.834  66.615  1.00  0.00    -0.541 NA 
HETATM    6  C   UNL     1     -12.118  13.223  67.015  1.00  0.00    -0.320 C  
HETATM    7  O   UNL     1      -9.331  10.977  69.121  1.00  0.00    -0.139 OA 
HETATM    8  C   UNL     1      -9.374  12.313  66.226  1.00  0.00    -0.206 C  
HETATM    9  C   UNL     1     -10.049  11.577  68.329  1.00  0.00    -0.199 C  
HETATM   10  C   UNL     1      -9.636  12.850  67.631  1.00  0.00    -0.196 C  
HETATM   11  C   UNL     1     -11.421  11.093  67.871  1.00  0.00    -0.284 C  
HETATM   12  C   UNL     1     -10.874  13.778  67.772  1.00  0.00    -0.262 C  
ENDROOT
BRANCH   1  13
HETATM   13  O   UNL     1     -10.701  15.161  65.356  1.00  0.00    -0.327 OA 
BRANCH  13  14
HETATM   14  C   UNL     1     -10.830  16.500  65.229  1.00  0.00    -0.221 C  
HETATM   15  O   UNL     1     -11.337  17.047  64.257  1.00  0.00    -1.191 OA 
BRANCH  14  16
HETATM   16  C   UNL     1     -10.188  17.222  66.333  1.00  0.00    -0.333 A  
HETATM   17  C   UNL     1      -8.672  17.867  67.924  1.00  0.00    -0.252 A  
HETATM   18  C   UNL     1      -8.896  16.951  66.891  1.00  0.00    -0.248 A  
HETATM   19  N   UNL     1      -9.805  18.645  68.031  1.00  0.00    -0.325 NA 
HETATM   20  C   UNL     1      -7.912  15.976  66.627  1.00  0.00    -0.291 A  
HETATM   21  C   UNL     1     -10.732  18.258  67.098  1.00  0.00    -0.305 A  
HETATM   22  C   UNL     1      -6.730  15.986  67.362  1.00  0.00    -0.224 A  
HETATM   23  C   UNL     1      -6.510  16.940  68.351  1.00  0.00    -0.149 A  
HETATM   24  H   UNL     1      -9.935  19.399  68.705  1.00  0.00     0.000 HD 
HETATM   25  C   UNL     1      -7.484  17.896  68.661  1.00  0.00    -0.280 A  
ENDBRANCH  14  16
ENDBRANCH  13  14
ENDBRANCH   1  13
TORSDOF 3
ENDMDL
MODEL       15
REMARK 921   NORMALIZED FREE ENERGY PREDICTED BY IDOCK:   -7.06 KCAL/MOL
REMARK 922        TOTAL FREE ENERGY PREDICTED BY IDOCK:   -8.93 KCAL/MOL
REMARK 923 INTER-LIGAND FREE ENERGY PREDICTED BY IDOCK:   -8.24 KCAL/MOL
REMARK 924 INTRA-LIGAND FREE ENERGY PREDICTED BY IDOCK:   -0.70 KCAL/MOL
REMARK 927      BINDING AFFINITY PREDICTED BY RF-SCORE:    0.00 PKD
ROOT
HETATM    1  C   UNL     1     -10.048   9.390  69.751  1.00  0.00    -0.211 C  
HETATM    2  C   UNL     1      -9.134   9.116  70.959  1.00  0.00    -0.305 C  
HETATM    3  C   UNL     1     -10.130   8.093  68.956  1.00  0.00    -0.211 C  
HETATM    4  C   UNL     1      -9.423   7.795  71.718  1.00  0.00    -0.151 C  
HETATM    5  N   UNL     1      -9.587   6.600  70.825  1.00  0.00    -0.175 NA 
HETATM    6  C   UNL     1     -10.629   6.915  69.826  1.00  0.00    -0.233 C  
HETATM    7  O   UNL     1     -11.621   5.074  73.415  1.00  0.00    -0.291 OA 
HETATM    8  C   UNL     1     -10.654   8.006  72.618  1.00  0.00    -0.419 C  
HETATM    9  C   UNL     1     -11.221   5.753  72.476  1.00  0.00    -0.297 C  
HETATM   10  C   UNL     1     -11.788   7.108  72.128  1.00  0.00    -0.315 C  
HETATM   11  C   UNL     1     -10.052   5.374  71.572  1.00  0.00    -0.195 C  
HETATM   12  C   UNL     1     -11.981   7.055  70.588  1.00  0.00    -0.361 C  
ENDROOT
BRANCH   1  13
HETATM   13  O   UNL     1     -11.437   9.716  69.955  1.00  0.00    -0.203 OA 
BRANCH  13  14
HETATM   14  C   UNL     1     -12.023  10.878  69.590  1.00  0.00    -0.343 C  
HETATM   15  O   UNL     1     -11.975  11.339  68.456  1.00  0.00    -0.519 OA 
BRANCH  14  16
HETATM   16  C   UNL     1     -12.620  11.576  70.734  1.00  0.00    -0.390 A  
HETATM   17  C   UNL     1     -13.281  13.232  72.172  1.00  0.00    -0.464 A  
HETATM   18  C   UNL     1     -12.607  12.989  70.970  1.00  0.00    -0.386 A  
HETATM   19  N   UNL     1     -13.656  12.007  72.682  1.00  0.00    -0.403 NA 
HETATM   20  C   UNL     1     -12.043  14.082  70.280  1.00  0.00    -0.425 A  
HETATM   21  C   UNL     1     -13.249  11.002  71.842  1.00  0.00    -0.398 A  
HETATM   22  C   UNL     1     -12.218  15.369  70.782  1.00  0.00    -0.430 A  
HETATM   23  C   UNL     1     -12.938  15.587  71.953  1.00  0.00    -0.522 A  
HETATM   24  H   UNL     1     -14.163  11.869  73.556  1.00  0.00     0.000 HD 
HETATM   25  C   UNL     1     -13.476  14.520  72.681  1.00  0.00    -0.590 A  
ENDBRANCH  14  16
ENDBRANCH  13  14
ENDBRANCH   1  13
TORSDOF 3
ENDMDL
MODEL       16
REMARK 921   NORMALIZED FREE ENERGY PREDICTED BY IDOCK:   -7.03 KCAL/MOL
REMARK 922        TOTAL FREE ENERGY PREDICTED BY IDOCK:   -8.89 KCAL/MOL
REMARK 923 INTER-LIGAND FREE ENERGY PREDICTED BY IDOCK:   -8.04 KCAL/MOL
REMARK 924 INTRA-LIGAND FREE ENERGY PREDICTED BY IDOCK:   -0.85 KCAL/MOL
REMARK 927      BINDING AFFINITY PREDICTED BY RF-SCORE:    0.00 PKD
ROOT
HETATM    1  C   UNL     1     -11.747   7.947  72.510  1.00  0.00    -0.367 C  
HETATM    2  C   UNL     1     -12.030   6.774  71.556  1.00  0.00    -0.396 C  
HETATM    3  C   UNL     1     -10.344   7.735  73.067  1.00  0.00    -0.410 C  
HETATM    4  C   UNL     1     -10.882   6.433  70.570  1.00  0.00    -0.279 C  
HETATM    5  N   UNL     1      -9.529   6.351  71.214  1.00  0.00    -0.166 NA 
HETATM    6  C   UNL     1      -9.290   7.615  71.941  1.00  0.00    -0.145 C  
HETATM    7  O   UNL     1      -8.064   7.176  67.997  1.00  0.00    -0.117 OA 
HETATM    8  C   UNL     1     -10.904   7.455  69.420  1.00  0.00    -0.184 C  
HETATM    9  C   UNL     1      -8.610   7.230  69.093  1.00  0.00    -0.133 C  
HETATM   10  C   UNL     1      -9.623   8.285  69.467  1.00  0.00    -0.171 C  
HETATM   11  C   UNL     1      -8.413   6.207  70.207  1.00  0.00    -0.126 C  
HETATM   12  C   UNL     1      -9.180   8.752  70.881  1.00  0.00    -0.261 C  
ENDROOT
BRANCH   1  13
HETATM   13  O   UNL     1     -11.676   9.293  72.000  1.00  0.00    -0.356 OA 
BRANCH  13  14
HETATM   14  C   UNL     1     -12.743  10.082  71.740  1.00  0.00    -0.428 C  
HETATM   15  O   UNL     1     -13.902   9.755  71.963  1.00  0.00    -0.305 OA 
BRANCH  14  16
HETATM   16  C   UNL     1     -12.358  11.320  71.054  1.00  0.00    -0.472 A  
HETATM   17  C   UNL     1     -12.188  13.532  70.486  1.00  0.00    -0.361 A  
HETATM   18  C   UNL     1     -12.781  12.647  71.392  1.00  0.00    -0.347 A  
HETATM   19  N   UNL     1     -11.463  12.774  69.592  1.00  0.00    -0.467 NA 
HETATM   20  C   UNL     1     -13.651  13.167  72.373  1.00  0.00    -0.667 A  
HETATM   21  C   UNL     1     -11.572  11.444  69.906  1.00  0.00    -0.323 A  
HETATM   22  C   UNL     1     -13.852  14.543  72.445  1.00  0.00    -0.587 A  
HETATM   23  C   UNL     1     -13.210  15.406  71.563  1.00  0.00    -0.572 A  
HETATM   24  H   UNL     1     -10.924  13.148  68.811  1.00  0.00     0.000 HD 
HETATM   25  C   UNL     1     -12.371  14.918  70.556  1.00  0.00    -0.400 A  
ENDBRANCH  14  16
ENDBRANCH  13  14
ENDBRANCH   1  13
TORSDOF 3
ENDMDL
MODEL       17
REMARK 921   NORMALIZED FREE ENERGY PREDICTED BY IDOCK:   -7.02 KCAL/MOL
REMARK 922        TOTAL FREE ENERGY PREDICTED BY IDOCK:   -8.88 KCAL/MOL
REMARK 923 INTER-LIGAND FREE ENERGY PREDICTED BY IDOCK:   -8.13 KCAL/MOL
REMARK 924 INTRA-LIGAND FREE ENERGY PREDICTED BY IDOCK:   -0.75 KCAL/MOL
REMARK 927      BINDING AFFINITY PREDICTED BY RF-SCORE:    0.00 PKD
ROOT
HETATM    1  C   UNL     1     -10.901  11.672  66.950  1.00  0.00    -0.278 C  
HETATM    2  C   UNL     1     -11.835  12.382  65.955  1.00  0.00    -0.467 C  
HETATM    3  C   UNL     1      -9.478  12.085  66.591  1.00  0.00    -0.222 C  
HETATM    4  C   UNL     1     -11.534  13.885  65.723  1.00  0.00    -0.321 C  
HETATM    5  N   UNL     1     -10.084  14.187  65.481  1.00  0.00    -0.340 NA 
HETATM    6  C   UNL     1      -9.305  13.623  66.603  1.00  0.00    -0.254 C  
HETATM    7  O   UNL     1     -10.680  17.540  66.737  1.00  0.00    -0.244 OA 
HETATM    8  C   UNL     1     -12.090  14.686  66.913  1.00  0.00    -0.224 C  
HETATM    9  C   UNL     1     -10.471  16.336  66.642  1.00  0.00    -0.290 C  
HETATM   10  C   UNL     1     -10.929  15.328  67.668  1.00  0.00    -0.311 C  
HETATM   11  C   UNL     1      -9.794  15.668  65.449  1.00  0.00    -0.218 C  
HETATM   12  C   UNL     1      -9.689  14.418  67.887  1.00  0.00    -0.223 C  
ENDROOT
BRANCH   1  13
HETATM   13  O   UNL     1     -10.968  11.985  68.355  1.00  0.00    -0.210 OA 
BRANCH  13  14
HETATM   14  C   UNL     1     -10.866  11.084  69.356  1.00  0.00    -0.231 C  
HETATM   15  O   UNL     1     -10.107  10.122  69.334  1.00  0.00    -0.205 OA 
BRANCH  14  16
HETATM   16  C   UNL     1     -11.849  11.326  70.417  1.00  0.00    -0.443 A  
HETATM   17  C   UNL     1     -13.236  12.385  71.901  1.00  0.00    -0.382 A  
HETATM   18  C   UNL     1     -12.307  12.603  70.879  1.00  0.00    -0.352 A  
HETATM   19  N   UNL     1     -13.314  11.022  72.095  1.00  0.00    -0.585 NA 
HETATM   20  C   UNL     1     -11.979  13.932  70.537  1.00  0.00    -0.384 A  
HETATM   21  C   UNL     1     -12.473  10.374  71.228  1.00  0.00    -0.415 A  
HETATM   22  C   UNL     1     -12.625  14.981  71.185  1.00  0.00    -0.416 A  
HETATM   23  C   UNL     1     -13.583  14.736  72.163  1.00  0.00    -0.518 A  
HETATM   24  H   UNL     1     -13.911  10.563  72.784  1.00  0.00     0.000 HD 
HETATM   25  C   UNL     1     -13.902  13.429  72.551  1.00  0.00    -0.595 A  
ENDBRANCH  14  16
ENDBRANCH  13  14
ENDBRANCH   1  13
TORSDOF 3
ENDMDL
MODEL       18
REMARK 921   NORMALIZED FREE ENERGY PREDICTED BY IDOCK:   -7.01 KCAL/MOL
REMARK 922        TOTAL FREE ENERGY PREDICTED BY IDOCK:   -8.87 KCAL/MOL
REMARK 923 INTER-LIGAND FREE ENERGY PREDICTED BY IDOCK:   -7.85 KCAL/MOL
REMARK 924 INTRA-LIGAND FREE ENERGY PREDICTED BY IDOCK:   -1.03 KCAL/MOL
REMARK 927      BINDING AFFINITY PREDICTED BY RF-SCORE:    0.00 PKD
ROOT
HETATM    1  C   UNL     1     -11.304  14.505  67.946  1.00  0.00    -0.310 C  
HETATM    2  C   UNL     1      -9.869  14.118  68.344  1.00  0.00    -0.231 C  
HETATM    3  C   UNL     1     -11.596  15.851  68.599  1.00  0.00    -0.383 C  
HETATM    4  C   UNL     1      -8.819  15.252  68.212  1.00  0.00    -0.171 C  
HETATM    5  N   UNL     1      -9.257  16.561  68.802  1.00  0.00    -0.244 NA 
HETATM    6  C   UNL     1     -10.556  16.923  68.197  1.00  0.00    -0.360 C  
HETATM    7  O   UNL     1      -6.994  18.231  66.506  1.00  0.00    -0.192 OA 
HETATM    8  C   UNL     1      -8.436  15.396  66.729  1.00  0.00    -0.307 C  
HETATM    9  C   UNL     1      -7.954  17.656  67.007  1.00  0.00    -0.220 C  
HETATM   10  C   UNL     1      -8.890  16.765  66.228  1.00  0.00    -0.334 C  
HETATM   11  C   UNL     1      -8.301  17.688  68.492  1.00  0.00    -0.291 C  
HETATM   12  C   UNL     1     -10.306  17.208  66.685  1.00  0.00    -0.310 C  
ENDROOT
BRANCH   1  13
HETATM   13  O   UNL     1     -11.628  14.756  66.564  1.00  0.00    -0.355 OA 
BRANCH  13  14
HETATM   14  C   UNL     1     -12.250  13.881  65.742  1.00  0.00    -0.460 C  
HETATM   15  O   UNL     1     -13.463  13.846  65.575  1.00  0.00    -0.657 OA 
BRANCH  14  16
HETATM   16  C   UNL     1     -11.316  12.907  65.167  1.00  0.00    -0.331 A  
HETATM   17  C   UNL     1     -10.015  11.044  64.878  1.00  0.00    -0.288 A  
HETATM   18  C   UNL     1     -10.920  11.660  65.749  1.00  0.00    -0.329 A  
HETATM   19  N   UNL     1      -9.823  11.904  63.817  1.00  0.00    -0.492 NA 
HETATM   20  C   UNL     1     -11.228  11.018  66.967  1.00  0.00    -0.255 A  
HETATM   21  C   UNL     1     -10.580  13.035  63.985  1.00  0.00    -0.344 A  
HETATM   22  C   UNL     1     -10.667   9.773  67.241  1.00  0.00    -0.296 A  
HETATM   23  C   UNL     1      -9.809   9.159  66.334  1.00  0.00    -0.350 A  
HETATM   24  H   UNL     1      -9.209  11.724  63.023  1.00  0.00     0.000 HD 
HETATM   25  C   UNL     1      -9.455   9.788  65.135  1.00  0.00    -0.338 A  
ENDBRANCH  14  16
ENDBRANCH  13  14
ENDBRANCH   1  13
TORSDOF 3
ENDMDL
MODEL       19
REMARK 921   NORMALIZED FREE ENERGY PREDICTED BY IDOCK:   -6.99 KCAL/MOL
REMARK 922        TOTAL FREE ENERGY PREDICTED BY IDOCK:   -8.84 KCAL/MOL
REMARK 923 INTER-LIGAND FREE ENERGY PREDICTED BY IDOCK:   -8.10 KCAL/MOL
REMARK 924 INTRA-LIGAND FREE ENERGY PREDICTED BY IDOCK:   -0.74 KCAL/MOL
REMARK 927      BINDING AFFINITY PREDICTED BY RF-SCORE:    0.00 PKD
ROOT
HETATM    1  C   UNL     1     -10.504  17.169  67.865  1.00  0.00    -0.369 C  
HETATM    2  C   UNL     1     -11.008  18.611  67.681  1.00  0.00    -0.213 C  
HETATM    3  C   UNL     1      -9.678  16.829  66.630  1.00  0.00    -0.281 C  
HETATM    4  C   UNL     1      -9.939  19.627  67.198  1.00  0.00    -0.387 C  
HETATM    5  N   UNL     1      -9.116  19.142  66.040  1.00  0.00    -0.447 NA 
HETATM    6  C   UNL     1      -8.527  17.839  66.412  1.00  0.00    -0.239 C  
HETATM    7  O   UNL     1      -6.467  21.375  67.127  1.00  0.00    -0.485 OA 
HETATM    8  C   UNL     1      -9.059  20.020  68.397  1.00  0.00    -0.192 C  
HETATM    9  C   UNL     1      -7.238  20.428  67.007  1.00  0.00    -0.299 C  
HETATM   10  C   UNL     1      -7.635  19.528  68.152  1.00  0.00    -0.338 C  
HETATM   11  C   UNL     1      -7.966  20.066  65.717  1.00  0.00    -0.158 C  
HETATM   12  C   UNL     1      -7.513  18.094  67.568  1.00  0.00    -0.217 C  
ENDROOT
BRANCH   1  13
HETATM   13  O   UNL     1      -9.599  16.851  68.940  1.00  0.00    -0.258 OA 
BRANCH  13  14
HETATM   14  C   UNL     1      -9.513  15.649  69.552  1.00  0.00    -0.275 C  
HETATM   15  O   UNL     1      -8.455  15.098  69.829  1.00  0.00    -0.157 OA 
BRANCH  14  16
HETATM   16  C   UNL     1     -10.831  15.032  69.740  1.00  0.00    -0.277 A  
HETATM   17  C   UNL     1     -12.872  14.481  70.622  1.00  0.00    -0.340 A  
HETATM   18  C   UNL     1     -11.736  15.272  70.825  1.00  0.00    -0.377 A  
HETATM   19  N   UNL     1     -12.655  13.744  69.476  1.00  0.00    -0.273 NA 
HETATM   20  C   UNL     1     -11.668  16.069  71.986  1.00  0.00    -0.588 A  
HETATM   21  C   UNL     1     -11.427  14.048  68.947  1.00  0.00    -0.294 A  
HETATM   22  C   UNL     1     -12.748  16.088  72.864  1.00  0.00    -0.563 A  
HETATM   23  C   UNL     1     -13.888  15.330  72.612  1.00  0.00    -0.585 A  
HETATM   24  H   UNL     1     -13.312  13.072  69.081  1.00  0.00     0.000 HD 
HETATM   25  C   UNL     1     -13.970  14.500  71.489  1.00  0.00    -0.487 A  
ENDBRANCH  14  16
ENDBRANCH  13  14
ENDBRANCH   1  13
TORSDOF 3
ENDMDL
MODEL       20
REMARK 921   NORMALIZED FREE ENERGY PREDICTED BY IDOCK:   -6.98 KCAL/MOL
REMARK 922        TOTAL FREE ENERGY PREDICTED BY IDOCK:   -8.83 KCAL/MOL
REMARK 923 INTER-LIGAND FREE ENERGY PREDICTED BY IDOCK:   -7.96 KCAL/MOL
REMARK 924 INTRA-LIGAND FREE ENERGY PREDICTED BY IDOCK:   -0.87 KCAL/MOL
REMARK 927      BINDING AFFINITY PREDICTED BY RF-SCORE:    0.00 PKD
ROOT
HETATM    1  C   UNL     1     -11.751  14.926  66.151  1.00  0.00    -0.178 C  
HETATM    2  C   UNL     1     -10.538  14.904  65.204  1.00  0.00    -0.450 C  
HETATM    3  C   UNL     1     -12.839  14.084  65.494  1.00  0.00    -0.453 C  
HETATM    4  C   UNL     1     -10.162  13.507  64.646  1.00  0.00    -0.316 C  
HETATM    5  N   UNL     1     -11.330  12.725  64.118  1.00  0.00    -0.363 NA 
HETATM    6  C   UNL     1     -12.349  12.649  65.186  1.00  0.00    -0.484 C  
HETATM    7  O   UNL     1      -9.465   9.685  64.795  1.00  0.00    -0.267 OA 
HETATM    8  C   UNL     1      -9.404  12.731  65.737  1.00  0.00     0.075 C  
HETATM    9  C   UNL     1     -10.155  10.694  64.898  1.00  0.00    -0.335 C  
HETATM   10  C   UNL     1     -10.236  11.521  66.157  1.00  0.00    -0.272 C  
HETATM   11  C   UNL     1     -10.965  11.305  63.759  1.00  0.00    -0.301 C  
HETATM   12  C   UNL     1     -11.755  11.787  66.340  1.00  0.00    -0.131 C  
ENDROOT
BRANCH   1  13
HETATM   13  O   UNL     1     -11.655  14.337  67.463  1.00  0.00    -0.324 OA 
BRANCH  13  14
HETATM   14  C   UNL     1     -11.121  14.942  68.547  1.00  0.00    -0.266 C  
HETATM   15  O   UNL     1     -10.071  15.572  68.529  1.00  0.00    -0.206 OA 
BRANCH  14  16
HETATM   16  C   UNL     1     -11.884  14.658  69.768  1.00  0.00    -0.366 A  
HETATM   17  C   UNL     1     -12.953  13.540  71.457  1.00  0.00    -0.355 A  
HETATM   18  C   UNL     1     -12.216  13.362  70.281  1.00  0.00    -0.405 A  
HETATM   19  N   UNL     1     -13.109  14.898  71.637  1.00  0.00    -0.317 NA 
HETATM   20  C   UNL     1     -11.984  12.049  69.823  1.00  0.00    -0.370 A  
HETATM   21  C   UNL     1     -12.492  15.582  70.621  1.00  0.00    -0.435 A  
HETATM   22  C   UNL     1     -12.445  10.972  70.577  1.00  0.00    -0.432 A  
HETATM   23  C   UNL     1     -13.131  11.177  71.770  1.00  0.00    -0.536 A  
HETATM   24  H   UNL     1     -13.611  15.331  72.412  1.00  0.00     0.000 HD 
HETATM   25  C   UNL     1     -13.410  12.468  72.231  1.00  0.00    -0.475 A  
ENDBRANCH  14  16
ENDBRANCH  13  14
ENDBRANCH   1  13
TORSDOF 3
ENDMDL
MODEL       21
REMARK 921   NORMALIZED FREE ENERGY PREDICTED BY IDOCK:   -6.93 KCAL/MOL
REMARK 922        TOTAL FREE ENERGY PREDICTED BY IDOCK:   -8.77 KCAL/MOL
REMARK 923 INTER-LIGAND FREE ENERGY PREDICTED BY IDOCK:   -7.97 KCAL/MOL
REMARK 924 INTRA-LIGAND FREE ENERGY PREDICTED BY IDOCK:   -0.80 KCAL/MOL
REMARK 927      BINDING AFFINITY PREDICTED BY RF-SCORE:    0.00 PKD
ROOT
HETATM    1  C   UNL     1      -9.672  15.428  69.190  1.00  0.00    -0.252 C  
HETATM    2  C   UNL     1      -8.160  15.624  69.401  1.00  0.00    -0.227 C  
HETATM    3  C   UNL     1     -10.295  16.818  69.142  1.00  0.00    -0.326 C  
HETATM    4  C   UNL     1      -7.503  16.703  68.502  1.00  0.00    -0.205 C  
HETATM    5  N   UNL     1      -8.259  17.999  68.450  1.00  0.00    -0.292 NA 
HETATM    6  C   UNL     1      -9.650  17.700  68.047  1.00  0.00    -0.289 C  
HETATM    7  O   UNL     1      -6.769  18.617  65.198  1.00  0.00    -0.507 OA 
HETATM    8  C   UNL     1      -7.293  16.110  67.097  1.00  0.00    -0.250 C  
HETATM    9  C   UNL     1      -7.477  18.212  66.114  1.00  0.00    -0.262 C  
HETATM   10  C   UNL     1      -8.166  16.869  66.101  1.00  0.00    -0.295 C  
HETATM   11  C   UNL     1      -7.703  18.957  67.425  1.00  0.00    -0.231 C  
HETATM   12  C   UNL     1      -9.611  17.180  66.579  1.00  0.00    -0.294 C  
ENDROOT
BRANCH   1  13
HETATM   13  O   UNL     1     -10.160  14.828  67.973  1.00  0.00    -0.215 OA 
BRANCH  13  14
HETATM   14  C   UNL     1     -11.350  14.201  67.841  1.00  0.00    -0.294 C  
HETATM   15  O   UNL     1     -12.109  14.371  66.895  1.00  0.00    -0.425 OA 
BRANCH  14  16
HETATM   16  C   UNL     1     -11.675  13.385  69.016  1.00  0.00    -0.368 A  
HETATM   17  C   UNL     1     -12.533  12.711  71.029  1.00  0.00    -0.260 A  
HETATM   18  C   UNL     1     -12.481  13.782  70.132  1.00  0.00    -0.332 A  
HETATM   19  N   UNL     1     -11.749  11.704  70.507  1.00  0.00    -0.491 NA 
HETATM   20  C   UNL     1     -13.141  14.981  70.472  1.00  0.00    -0.305 A  
HETATM   21  C   UNL     1     -11.210  12.100  69.310  1.00  0.00    -0.226 A  
HETATM   22  C   UNL     1     -13.867  15.046  71.659  1.00  0.00    -0.571 A  
HETATM   23  C   UNL     1     -13.945  13.948  72.510  1.00  0.00    -0.565 A  
HETATM   24  H   UNL     1     -11.593  10.797  70.947  1.00  0.00     0.000 HD 
HETATM   25  C   UNL     1     -13.269  12.757  72.218  1.00  0.00    -0.491 A  
ENDBRANCH  14  16
ENDBRANCH  13  14
ENDBRANCH   1  13
TORSDOF 3
ENDMDL
MODEL       22
REMARK 921   NORMALIZED FREE ENERGY PREDICTED BY IDOCK:   -6.86 KCAL/MOL
REMARK 922        TOTAL FREE ENERGY PREDICTED BY IDOCK:   -8.69 KCAL/MOL
REMARK 923 INTER-LIGAND FREE ENERGY PREDICTED BY IDOCK:   -8.15 KCAL/MOL
REMARK 924 INTRA-LIGAND FREE ENERGY PREDICTED BY IDOCK:   -0.54 KCAL/MOL
REMARK 927      BINDING AFFINITY PREDICTED BY RF-SCORE:    0.00 PKD
ROOT
HETATM    1  C   UNL     1      -9.925  12.925  68.393  1.00  0.00    -0.211 C  
HETATM    2  C   UNL     1      -9.209  12.567  67.078  1.00  0.00    -0.214 C  
HETATM    3  C   UNL     1     -10.228  14.418  68.337  1.00  0.00    -0.243 C  
HETATM    4  C   UNL     1      -9.857  13.146  65.794  1.00  0.00    -0.203 C  
HETATM    5  N   UNL     1     -10.208  14.603  65.891  1.00  0.00    -0.309 NA 
HETATM    6  C   UNL     1     -11.058  14.790  67.085  1.00  0.00    -0.333 C  
HETATM    7  O   UNL     1     -12.760  14.048  63.369  1.00  0.00    -0.796 OA 
HETATM    8  C   UNL     1     -11.083  12.289  65.434  1.00  0.00    -0.353 C  
HETATM    9  C   UNL     1     -12.134  14.103  64.423  1.00  0.00    -0.463 C  
HETATM   10  C   UNL     1     -12.343  13.141  65.566  1.00  0.00    -0.529 C  
HETATM   11  C   UNL     1     -11.006  15.089  64.706  1.00  0.00    -0.373 C  
HETATM   12  C   UNL     1     -12.406  14.052  66.823  1.00  0.00    -0.368 C  
ENDROOT
BRANCH   1  13
HETATM   13  O   UNL     1     -11.216  12.358  68.691  1.00  0.00    -0.233 OA 
BRANCH  13  14
HETATM   14  C   UNL     1     -11.618  11.947  69.914  1.00  0.00    -0.256 C  
HETATM   15  O   UNL     1     -12.067  12.696  70.772  1.00  0.00    -0.329 OA 
BRANCH  14  16
HETATM   16  C   UNL     1     -11.347  10.521  70.131  1.00  0.00    -0.400 A  
HETATM   17  C   UNL     1     -11.589   8.326  70.738  1.00  0.00    -0.236 A  
HETATM   18  C   UNL     1     -12.241   9.564  70.711  1.00  0.00    -0.269 A  
HETATM   19  N   UNL     1     -10.320   8.524  70.235  1.00  0.00    -0.200 NA 
HETATM   20  C   UNL     1     -13.540   9.654  71.252  1.00  0.00    -0.294 A  
HETATM   21  C   UNL     1     -10.152   9.839  69.887  1.00  0.00    -0.251 A  
HETATM   22  C   UNL     1     -14.154   8.505  71.745  1.00  0.00    -0.515 A  
HETATM   23  C   UNL     1     -13.503   7.276  71.713  1.00  0.00    -0.373 A  
HETATM   24  H   UNL     1      -9.611   7.798  70.137  1.00  0.00     0.000 HD 
HETATM   25  C   UNL     1     -12.199   7.162  71.218  1.00  0.00    -0.403 A  
ENDBRANCH  14  16
ENDBRANCH  13  14
ENDBRANCH   1  13
TORSDOF 3
ENDMDL
MODEL       23
REMARK 921   NORMALIZED FREE ENERGY PREDICTED BY IDOCK:   -6.80 KCAL/MOL
REMARK 922        TOTAL FREE ENERGY PREDICTED BY IDOCK:   -8.63 KCAL/MOL
REMARK 923 INTER-LIGAND FREE ENERGY PREDICTED BY IDOCK:   -7.74 KCAL/MOL
REMARK 924 INTRA-LIGAND FREE ENERGY PREDICTED BY IDOCK:   -0.89 KCAL/MOL
REMARK 927      BINDING AFFINITY PREDICTED BY RF-SCORE:    0.00 PKD
ROOT
HETATM    1  C   UNL     1      -9.356  15.255  68.458  1.00  0.00    -0.200 C  
HETATM    2  C   UNL     1      -8.884  15.334  66.995  1.00  0.00    -0.261 C  
HETATM    3  C   UNL     1      -8.549  16.287  69.238  1.00  0.00    -0.148 C  
HETATM    4  C   UNL     1      -8.756  16.769  66.419  1.00  0.00    -0.302 C  
HETATM    5  N   UNL     1      -8.032  17.726  67.320  1.00  0.00    -0.206 NA 
HETATM    6  C   UNL     1      -8.698  17.706  68.640  1.00  0.00    -0.266 C  
HETATM    7  O   UNL     1      -9.848  20.435  65.727  1.00  0.00    -0.291 OA 
HETATM    8  C   UNL     1     -10.162  17.280  66.059  1.00  0.00    -0.314 C  
HETATM    9  C   UNL     1      -9.525  19.487  66.434  1.00  0.00    -0.386 C  
HETATM   10  C   UNL     1     -10.506  18.466  66.957  1.00  0.00    -0.429 C  
HETATM   11  C   UNL     1      -8.089  19.150  66.823  1.00  0.00    -0.273 C  
HETATM   12  C   UNL     1     -10.125  18.305  68.454  1.00  0.00    -0.412 C  
ENDROOT
BRANCH   1  13
HETATM   13  O   UNL     1     -10.713  15.601  68.800  1.00  0.00    -0.231 OA 
BRANCH  13  14
HETATM   14  C   UNL     1     -11.689  14.713  69.092  1.00  0.00    -0.309 C  
HETATM   15  O   UNL     1     -12.449  14.826  70.046  1.00  0.00    -0.324 OA 
BRANCH  14  16
HETATM   16  C   UNL     1     -11.655  13.546  68.205  1.00  0.00    -0.381 A  
HETATM   17  C   UNL     1     -11.761  12.227  66.336  1.00  0.00    -0.365 A  
HETATM   18  C   UNL     1     -11.881  13.544  66.790  1.00  0.00    -0.450 A  
HETATM   19  N   UNL     1     -11.515  11.437  67.438  1.00  0.00    -0.499 NA 
HETATM   20  C   UNL     1     -12.217  14.551  65.861  1.00  0.00    -0.270 A  
HETATM   21  C   UNL     1     -11.469  12.209  68.570  1.00  0.00    -0.300 A  
HETATM   22  C   UNL     1     -12.365  14.216  64.518  1.00  0.00    -0.419 A  
HETATM   23  C   UNL     1     -12.189  12.906  64.084  1.00  0.00    -0.487 A  
HETATM   24  H   UNL     1     -11.385  10.426  67.415  1.00  0.00     0.000 HD 
HETATM   25  C   UNL     1     -11.893  11.879  64.987  1.00  0.00    -0.213 A  
ENDBRANCH  14  16
ENDBRANCH  13  14
ENDBRANCH   1  13
TORSDOF 3
ENDMDL
MODEL       24
REMARK 921   NORMALIZED FREE ENERGY PREDICTED BY IDOCK:   -6.76 KCAL/MOL
REMARK 922        TOTAL FREE ENERGY PREDICTED BY IDOCK:   -8.58 KCAL/MOL
REMARK 923 INTER-LIGAND FREE ENERGY PREDICTED BY IDOCK:   -7.38 KCAL/MOL
REMARK 924 INTRA-LIGAND FREE ENERGY PREDICTED BY IDOCK:   -1.19 KCAL/MOL
REMARK 927      BINDING AFFINITY PREDICTED BY RF-SCORE:    0.00 PKD
ROOT
HETATM    1  C   UNL     1     -10.705  14.605  69.100  1.00  0.00    -0.255 C  
HETATM    2  C   UNL     1     -10.106  15.851  69.776  1.00  0.00    -0.247 C  
HETATM    3  C   UNL     1     -11.639  15.103  68.004  1.00  0.00    -0.345 C  
HETATM    4  C   UNL     1      -9.596  16.948  68.804  1.00  0.00    -0.268 C  
HETATM    5  N   UNL     1     -10.559  17.284  67.703  1.00  0.00    -0.364 NA 
HETATM    6  C   UNL     1     -10.910  16.031  67.003  1.00  0.00    -0.227 C  
HETATM    7  O   UNL     1      -7.729  18.364  65.702  1.00  0.00    -0.518 OA 
HETATM    8  C   UNL     1      -8.227  16.513  68.250  1.00  0.00    -0.185 C  
HETATM    9  C   UNL     1      -8.581  17.695  66.276  1.00  0.00    -0.189 C  
HETATM   10  C   UNL     1      -8.350  16.279  66.747  1.00  0.00    -0.289 C  
HETATM   11  C   UNL     1      -9.962  18.209  66.670  1.00  0.00    -0.362 C  
HETATM   12  C   UNL     1      -9.624  15.515  66.291  1.00  0.00    -0.338 C  
ENDROOT
BRANCH   1  13
HETATM   13  O   UNL     1      -9.851  13.689  68.386  1.00  0.00    -0.225 OA 
BRANCH  13  14
HETATM   14  C   UNL     1     -10.115  12.379  68.186  1.00  0.00    -0.224 C  
HETATM   15  O   UNL     1     -10.433  11.603  69.078  1.00  0.00    -0.201 OA 
BRANCH  14  16
HETATM   16  C   UNL     1      -9.861  11.972  66.799  1.00  0.00    -0.218 A  
HETATM   17  C   UNL     1     -10.142  11.567  64.562  1.00  0.00    -0.278 A  
HETATM   18  C   UNL     1     -10.779  12.067  65.703  1.00  0.00    -0.313 A  
HETATM   19  N   UNL     1      -8.891  11.137  64.951  1.00  0.00    -0.374 NA 
HETATM   20  C   UNL     1     -12.117  12.501  65.593  1.00  0.00    -0.464 A  
HETATM   21  C   UNL     1      -8.715  11.353  66.294  1.00  0.00    -0.173 A  
HETATM   22  C   UNL     1     -12.743  12.471  64.350  1.00  0.00    -0.447 A  
HETATM   23  C   UNL     1     -12.069  12.017  63.221  1.00  0.00    -0.509 A  
HETATM   24  H   UNL     1      -8.198  10.719  64.331  1.00  0.00     0.000 HD 
HETATM   25  C   UNL     1     -10.755  11.544  63.305  1.00  0.00    -0.374 A  
ENDBRANCH  14  16
ENDBRANCH  13  14
ENDBRANCH   1  13
TORSDOF 3
ENDMDL
MODEL       25
REMARK 921   NORMALIZED FREE ENERGY PREDICTED BY IDOCK:   -6.76 KCAL/MOL
REMARK 922        TOTAL FREE ENERGY PREDICTED BY IDOCK:   -8.58 KCAL/MOL
REMARK 923 INTER-LIGAND FREE ENERGY PREDICTED BY IDOCK:   -8.04 KCAL/MOL
REMARK 924 INTRA-LIGAND FREE ENERGY PREDICTED BY IDOCK:   -0.54 KCAL/MOL
REMARK 927      BINDING AFFINITY PREDICTED BY RF-SCORE:    0.00 PKD
ROOT
HETATM    1  C   UNL     1      -9.787  12.802  68.205  1.00  0.00    -0.226 C  
HETATM    2  C   UNL     1      -9.116  12.546  66.843  1.00  0.00    -0.213 C  
HETATM    3  C   UNL     1     -10.056  14.300  68.290  1.00  0.00    -0.238 C  
HETATM    4  C   UNL     1      -9.786  13.251  65.635  1.00  0.00    -0.162 C  
HETATM    5  N   UNL     1     -10.099  14.700  65.870  1.00  0.00    -0.303 NA 
HETATM    6  C   UNL     1     -10.911  14.799  67.101  1.00  0.00    -0.320 C  
HETATM    7  O   UNL     1     -12.732  14.426  63.386  1.00  0.00    -0.689 OA 
HETATM    8  C   UNL     1     -11.041  12.455  65.237  1.00  0.00    -0.342 C  
HETATM    9  C   UNL     1     -12.076  14.374  64.421  1.00  0.00    -0.470 C  
HETATM   10  C   UNL     1     -12.277  13.319  65.481  1.00  0.00    -0.506 C  
HETATM   11  C   UNL     1     -10.917  15.307  64.756  1.00  0.00    -0.386 C  
HETATM   12  C   UNL     1     -12.283  14.116  66.814  1.00  0.00    -0.429 C  
ENDROOT
BRANCH   1  13
HETATM   13  O   UNL     1     -11.082  12.238  68.490  1.00  0.00    -0.218 OA 
BRANCH  13  14
HETATM   14  C   UNL     1     -11.361  10.916  68.530  1.00  0.00    -0.299 C  
HETATM   15  O   UNL     1     -11.362  10.190  67.544  1.00  0.00    -0.275 OA 
BRANCH  14  16
HETATM   16  C   UNL     1     -11.776  10.482  69.868  1.00  0.00    -0.372 A  
HETATM   17  C   UNL     1     -12.029   9.233  71.771  1.00  0.00    -0.385 A  
HETATM   18  C   UNL     1     -11.421   9.251  70.511  1.00  0.00    -0.296 A  
HETATM   19  N   UNL     1     -12.770  10.390  71.882  1.00  0.00    -0.406 NA 
HETATM   20  C   UNL     1     -10.663   8.132  70.111  1.00  0.00    -0.243 A  
HETATM   21  C   UNL     1     -12.646  11.140  70.741  1.00  0.00    -0.352 A  
HETATM   22  C   UNL     1     -10.497   7.070  70.996  1.00  0.00    -0.231 A  
HETATM   23  C   UNL     1     -11.070   7.099  72.263  1.00  0.00    -0.289 A  
HETATM   24  H   UNL     1     -13.329  10.650  72.695  1.00  0.00     0.000 HD 
HETATM   25  C   UNL     1     -11.860   8.178  72.675  1.00  0.00    -0.389 A  
ENDBRANCH  14  16
ENDBRANCH  13  14
ENDBRANCH   1  13
TORSDOF 3
ENDMDL
MODEL       26
REMARK 921   NORMALIZED FREE ENERGY PREDICTED BY IDOCK:   -6.70 KCAL/MOL
REMARK 922        TOTAL FREE ENERGY PREDICTED BY IDOCK:   -8.50 KCAL/MOL
REMARK 923 INTER-LIGAND FREE ENERGY PREDICTED BY IDOCK:   -7.60 KCAL/MOL
REMARK 924 INTRA-LIGAND FREE ENERGY PREDICTED BY IDOCK:   -0.90 KCAL/MOL
REMARK 927      BINDING AFFINITY PREDICTED BY RF-SCORE:    0.00 PKD
ROOT
HETATM    1  C   UNL     1     -10.984  15.724  67.700  1.00  0.00    -0.302 C  
HETATM    2  C   UNL     1     -12.120  14.765  68.095  1.00  0.00    -0.167 C  
HETATM    3  C   UNL     1      -9.716  15.205  68.367  1.00  0.00    -0.212 C  
HETATM    4  C   UNL     1     -11.781  13.256  67.976  1.00  0.00    -0.359 C  
HETATM    5  N   UNL     1     -10.459  12.877  68.578  1.00  0.00    -0.252 NA 
HETATM    6  C   UNL     1      -9.419  13.738  67.976  1.00  0.00    -0.207 C  
HETATM    7  O   UNL     1     -10.349  10.052  66.301  1.00  0.00    -0.223 OA 
HETATM    8  C   UNL     1     -11.868  12.849  66.494  1.00  0.00    -0.473 C  
HETATM    9  C   UNL     1     -10.282  11.173  66.796  1.00  0.00    -0.232 C  
HETATM   10  C   UNL     1     -10.479  12.444  66.006  1.00  0.00    -0.281 C  
HETATM   11  C   UNL     1     -10.071  11.449  68.280  1.00  0.00    -0.196 C  
HETATM   12  C   UNL     1      -9.314  13.361  66.467  1.00  0.00    -0.225 C  
ENDROOT
BRANCH   1  13
HETATM   13  O   UNL     1     -10.583  15.840  66.321  1.00  0.00    -0.306 OA 
BRANCH  13  14
HETATM   14  C   UNL     1     -10.730  16.948  65.560  1.00  0.00    -0.163 C  
HETATM   15  O   UNL     1     -11.224  16.946  64.440  1.00  0.00    -1.159 OA 
BRANCH  14  16
HETATM   16  C   UNL     1     -10.124  18.129  66.186  1.00  0.00    -0.338 A  
HETATM   17  C   UNL     1      -8.586  19.578  67.068  1.00  0.00    -0.301 A  
HETATM   18  C   UNL     1      -8.732  18.324  66.466  1.00  0.00    -0.290 A  
HETATM   19  N   UNL     1      -9.848  20.118  67.197  1.00  0.00    -0.419 NA 
HETATM   20  C   UNL     1      -7.586  17.521  66.293  1.00  0.00    -0.343 A  
HETATM   21  C   UNL     1     -10.784  19.252  66.692  1.00  0.00    -0.410 A  
HETATM   22  C   UNL     1      -6.342  18.017  66.673  1.00  0.00    -0.228 A  
HETATM   23  C   UNL     1      -6.218  19.289  67.223  1.00  0.00    -0.192 A  
HETATM   24  H   UNL     1     -10.055  21.028  67.607  1.00  0.00     0.000 HD 
HETATM   25  C   UNL     1      -7.340  20.094  67.443  1.00  0.00    -0.323 A  
ENDBRANCH  14  16
ENDBRANCH  13  14
ENDBRANCH   1  13
TORSDOF 3
ENDMDL
MODEL       27
REMARK 921   NORMALIZED FREE ENERGY PREDICTED BY IDOCK:   -6.63 KCAL/MOL
REMARK 922        TOTAL FREE ENERGY PREDICTED BY IDOCK:   -8.43 KCAL/MOL
REMARK 923 INTER-LIGAND FREE ENERGY PREDICTED BY IDOCK:   -7.53 KCAL/MOL
REMARK 924 INTRA-LIGAND FREE ENERGY PREDICTED BY IDOCK:   -0.90 KCAL/MOL
REMARK 927      BINDING AFFINITY PREDICTED BY RF-SCORE:    0.00 PKD
ROOT
HETATM    1  C   UNL     1     -11.640  15.089  66.185  1.00  0.00    -0.159 C  
HETATM    2  C   UNL     1     -10.414  14.938  65.267  1.00  0.00    -0.427 C  
HETATM    3  C   UNL     1     -12.725  14.177  65.625  1.00  0.00    -0.469 C  
HETATM    4  C   UNL     1     -10.041  13.478  64.899  1.00  0.00    -0.254 C  
HETATM    5  N   UNL     1     -11.207  12.642  64.459  1.00  0.00    -0.317 NA 
HETATM    6  C   UNL     1     -12.242  12.711  65.512  1.00  0.00    -0.440 C  
HETATM    7  O   UNL     1      -9.378   9.703  65.551  1.00  0.00    -0.210 OA 
HETATM    8  C   UNL     1      -9.305  12.844  66.093  1.00  0.00    -0.102 C  
HETATM    9  C   UNL     1     -10.061  10.721  65.512  1.00  0.00    -0.274 C  
HETATM   10  C   UNL     1     -10.153  11.705  66.653  1.00  0.00    -0.238 C  
HETATM   11  C   UNL     1     -10.850  11.185  64.292  1.00  0.00    -0.284 C  
HETATM   12  C   UNL     1     -11.673  12.001  66.777  1.00  0.00    -0.339 C  
ENDROOT
BRANCH   1  13
HETATM   13  O   UNL     1     -11.567  14.674  67.563  1.00  0.00    -0.349 OA 
BRANCH  13  14
HETATM   14  C   UNL     1     -11.481  15.511  68.621  1.00  0.00    -0.359 C  
HETATM   15  O   UNL     1     -12.366  15.648  69.456  1.00  0.00    -0.294 OA 
BRANCH  14  16
HETATM   16  C   UNL     1     -10.255  16.316  68.587  1.00  0.00    -0.254 A  
HETATM   17  C   UNL     1      -8.794  18.044  68.232  1.00  0.00    -0.286 A  
HETATM   18  C   UNL     1     -10.128  17.651  68.081  1.00  0.00    -0.347 A  
HETATM   19  N   UNL     1      -8.113  16.973  68.769  1.00  0.00    -0.260 NA 
HETATM   20  C   UNL     1     -11.030  18.546  67.470  1.00  0.00    -0.200 A  
HETATM   21  C   UNL     1      -8.970  15.921  68.968  1.00  0.00    -0.245 A  
HETATM   22  C   UNL     1     -10.584  19.808  67.086  1.00  0.00    -0.577 A  
HETATM   23  C   UNL     1      -9.263  20.193  67.294  1.00  0.00    -0.504 A  
HETATM   24  H   UNL     1      -7.117  16.964  68.987  1.00  0.00     0.000 HD 
HETATM   25  C   UNL     1      -8.335  19.313  67.863  1.00  0.00    -0.338 A  
ENDBRANCH  14  16
ENDBRANCH  13  14
ENDBRANCH   1  13
TORSDOF 3
ENDMDL
MODEL       28
REMARK 921   NORMALIZED FREE ENERGY PREDICTED BY IDOCK:   -6.63 KCAL/MOL
REMARK 922        TOTAL FREE ENERGY PREDICTED BY IDOCK:   -8.42 KCAL/MOL
REMARK 923 INTER-LIGAND FREE ENERGY PREDICTED BY IDOCK:   -8.03 KCAL/MOL
REMARK 924 INTRA-LIGAND FREE ENERGY PREDICTED BY IDOCK:   -0.39 KCAL/MOL
REMARK 927      BINDING AFFINITY PREDICTED BY RF-SCORE:    0.00 PKD
ROOT
HETATM    1  C   UNL     1     -10.314   9.296  70.633  1.00  0.00    -0.263 C  
HETATM    2  C   UNL     1      -8.974   8.852  71.247  1.00  0.00    -0.312 C  
HETATM    3  C   UNL     1     -10.896   8.082  69.918  1.00  0.00    -0.217 C  
HETATM    4  C   UNL     1      -9.009   7.494  71.995  1.00  0.00    -0.125 C  
HETATM    5  N   UNL     1      -9.698   6.396  71.237  1.00  0.00    -0.174 NA 
HETATM    6  C   UNL     1     -11.049   6.872  70.870  1.00  0.00    -0.272 C  
HETATM    7  O   UNL     1     -10.424   4.800  74.416  1.00  0.00    -0.260 OA 
HETATM    8  C   UNL     1      -9.643   7.713  73.380  1.00  0.00    -0.346 C  
HETATM    9  C   UNL     1     -10.444   5.528  73.429  1.00  0.00    -0.237 C  
HETATM   10  C   UNL     1     -10.961   6.946  73.452  1.00  0.00    -0.221 C  
HETATM   11  C   UNL     1      -9.885   5.147  72.063  1.00  0.00    -0.171 C  
HETATM   12  C   UNL     1     -11.861   7.043  72.189  1.00  0.00    -0.314 C  
ENDROOT
BRANCH   1  13
HETATM   13  O   UNL     1     -11.401   9.702  71.488  1.00  0.00    -0.381 OA 
BRANCH  13  14
HETATM   14  C   UNL     1     -12.505  10.365  71.076  1.00  0.00    -0.388 C  
HETATM   15  O   UNL     1     -13.615   9.853  70.991  1.00  0.00    -0.329 OA 
BRANCH  14  16
HETATM   16  C   UNL     1     -12.196  11.729  70.635  1.00  0.00    -0.443 A  
HETATM   17  C   UNL     1     -12.143  14.015  70.500  1.00  0.00    -0.353 A  
HETATM   18  C   UNL     1     -12.670  12.944  71.229  1.00  0.00    -0.371 A  
HETATM   19  N   UNL     1     -11.406  13.479  69.465  1.00  0.00    -0.417 NA 
HETATM   20  C   UNL     1     -13.537  13.222  72.306  1.00  0.00    -0.703 A  
HETATM   21  C   UNL     1     -11.446  12.109  69.519  1.00  0.00    -0.265 A  
HETATM   22  C   UNL     1     -13.800  14.547  72.645  1.00  0.00    -0.483 A  
HETATM   23  C   UNL     1     -13.221  15.595  71.934  1.00  0.00    -0.537 A  
HETATM   24  H   UNL     1     -10.906  14.022  68.762  1.00  0.00     0.000 HD 
HETATM   25  C   UNL     1     -12.387  15.351  70.838  1.00  0.00    -0.452 A  
ENDBRANCH  14  16
ENDBRANCH  13  14
ENDBRANCH   1  13
TORSDOF 3
ENDMDL
MODEL       29
REMARK 921   NORMALIZED FREE ENERGY PREDICTED BY IDOCK:   -6.60 KCAL/MOL
REMARK 922        TOTAL FREE ENERGY PREDICTED BY IDOCK:   -8.39 KCAL/MOL
REMARK 923 INTER-LIGAND FREE ENERGY PREDICTED BY IDOCK:   -7.29 KCAL/MOL
REMARK 924 INTRA-LIGAND FREE ENERGY PREDICTED BY IDOCK:   -1.09 KCAL/MOL
REMARK 927      BINDING AFFINITY PREDICTED BY RF-SCORE:    0.00 PKD
ROOT
HETATM    1  C   UNL     1     -10.650  15.811  66.622  1.00  0.00    -0.307 C  
HETATM    2  C   UNL     1     -10.711  16.705  67.873  1.00  0.00    -0.344 C  
HETATM    3  C   UNL     1      -9.440  16.264  65.814  1.00  0.00    -0.229 C  
HETATM    4  C   UNL     1      -9.359  16.907  68.606  1.00  0.00    -0.268 C  
HETATM    5  N   UNL     1      -8.216  17.251  67.696  1.00  0.00    -0.191 NA 
HETATM    6  C   UNL     1      -8.138  16.213  66.647  1.00  0.00    -0.288 C  
HETATM    7  O   UNL     1      -5.963  15.838  70.166  1.00  0.00    -0.164 OA 
HETATM    8  C   UNL     1      -9.062  15.650  69.443  1.00  0.00    -0.278 C  
HETATM    9  C   UNL     1      -6.767  15.990  69.253  1.00  0.00    -0.185 C  
HETATM   10  C   UNL     1      -7.815  14.966  68.888  1.00  0.00    -0.161 C  
HETATM   11  C   UNL     1      -6.885  17.254  68.408  1.00  0.00    -0.191 C  
HETATM   12  C   UNL     1      -7.734  14.876  67.340  1.00  0.00    -0.231 C  
ENDROOT
BRANCH   1  13
HETATM   13  O   UNL     1     -10.418  14.395  66.757  1.00  0.00    -0.269 OA 
BRANCH  13  14
HETATM   14  C   UNL     1     -11.250  13.427  66.311  1.00  0.00    -0.305 C  
HETATM   15  O   UNL     1     -11.826  13.467  65.231  1.00  0.00    -0.321 OA 
BRANCH  14  16
HETATM   16  C   UNL     1     -11.470  12.384  67.319  1.00  0.00    -0.421 A  
HETATM   17  C   UNL     1     -11.969  11.333  69.292  1.00  0.00    -0.342 A  
HETATM   18  C   UNL     1     -11.884  12.586  68.676  1.00  0.00    -0.340 A  
HETATM   19  N   UNL     1     -11.576  10.394  68.361  1.00  0.00    -0.647 NA 
HETATM   20  C   UNL     1     -12.157  13.736  69.446  1.00  0.00    -0.377 A  
HETATM   21  C   UNL     1     -11.254  11.011  67.179  1.00  0.00    -0.217 A  
HETATM   22  C   UNL     1     -12.553  13.589  70.772  1.00  0.00    -0.382 A  
HETATM   23  C   UNL     1     -12.679  12.328  71.346  1.00  0.00    -0.351 A  
HETATM   24  H   UNL     1     -11.532   9.389  68.527  1.00  0.00     0.000 HD 
HETATM   25  C   UNL     1     -12.378  11.170  70.620  1.00  0.00    -0.482 A  
ENDBRANCH  14  16
ENDBRANCH  13  14
ENDBRANCH   1  13
TORSDOF 3
ENDMDL
MODEL       30
REMARK 921   NORMALIZED FREE ENERGY PREDICTED BY IDOCK:   -6.56 KCAL/MOL
REMARK 922        TOTAL FREE ENERGY PREDICTED BY IDOCK:   -8.33 KCAL/MOL
REMARK 923 INTER-LIGAND FREE ENERGY PREDICTED BY IDOCK:   -7.05 KCAL/MOL
REMARK 924 INTRA-LIGAND FREE ENERGY PREDICTED BY IDOCK:   -1.29 KCAL/MOL
REMARK 927      BINDING AFFINITY PREDICTED BY RF-SCORE:    0.00 PKD
ROOT
HETATM    1  C   UNL     1     -10.020  11.557  65.381  1.00  0.00    -0.248 C  
HETATM    2  C   UNL     1      -8.749  11.933  66.164  1.00  0.00    -0.009 C  
HETATM    3  C   UNL     1     -10.002  10.042  65.213  1.00  0.00    -0.368 C  
HETATM    4  C   UNL     1      -8.452  11.050  67.404  1.00  0.00    -0.132 C  
HETATM    5  N   UNL     1      -8.565   9.576  67.146  1.00  0.00    -0.131 NA 
HETATM    6  C   UNL     1      -9.902   9.313  66.574  1.00  0.00    -0.263 C  
HETATM    7  O   UNL     1      -9.276   9.118  70.676  1.00  0.00    -0.216 OA 
HETATM    8  C   UNL     1      -9.370  11.498  68.556  1.00  0.00    -0.171 C  
HETATM    9  C   UNL     1      -9.361   9.360  69.476  1.00  0.00    -0.180 C  
HETATM   10  C   UNL     1     -10.331  10.361  68.897  1.00  0.00    -0.227 C  
HETATM   11  C   UNL     1      -8.459   8.754  68.407  1.00  0.00    -0.130 C  
HETATM   12  C   UNL     1     -10.955   9.625  67.680  1.00  0.00    -0.190 C  
ENDROOT
BRANCH   1  13
HETATM   13  O   UNL     1     -11.320  11.788  65.959  1.00  0.00    -0.330 OA 
BRANCH  13  14
HETATM   14  C   UNL     1     -12.120  12.839  65.672  1.00  0.00    -0.459 C  
HETATM   15  O   UNL     1     -13.101  12.770  64.942  1.00  0.00    -0.833 OA 
BRANCH  14  16
HETATM   16  C   UNL     1     -11.610  14.091  66.242  1.00  0.00    -0.379 A  
HETATM   17  C   UNL     1     -11.014  15.718  67.739  1.00  0.00    -0.314 A  
HETATM   18  C   UNL     1     -11.568  14.439  67.632  1.00  0.00    -0.396 A  
HETATM   19  N   UNL     1     -10.764  16.163  66.458  1.00  0.00    -0.270 NA 
HETATM   20  C   UNL     1     -11.993  13.786  68.808  1.00  0.00    -0.400 A  
HETATM   21  C   UNL     1     -11.136  15.207  65.548  1.00  0.00    -0.345 A  
HETATM   22  C   UNL     1     -11.800  14.407  70.039  1.00  0.00    -0.377 A  
HETATM   23  C   UNL     1     -11.198  15.659  70.122  1.00  0.00    -0.346 A  
HETATM   24  H   UNL     1     -10.362  17.070  66.222  1.00  0.00     0.000 HD 
HETATM   25  C   UNL     1     -10.801  16.348  68.970  1.00  0.00    -0.331 A  
ENDBRANCH  14  16
ENDBRANCH  13  14
ENDBRANCH   1  13
TORSDOF 3
ENDMDL
MODEL       31
REMARK 921   NORMALIZED FREE ENERGY PREDICTED BY IDOCK:   -6.54 KCAL/MOL
REMARK 922        TOTAL FREE ENERGY PREDICTED BY IDOCK:   -8.32 KCAL/MOL
REMARK 923 INTER-LIGAND FREE ENERGY PREDICTED BY IDOCK:   -7.52 KCAL/MOL
REMARK 924 INTRA-LIGAND FREE ENERGY PREDICTED BY IDOCK:   -0.80 KCAL/MOL
REMARK 927      BINDING AFFINITY PREDICTED BY RF-SCORE:    0.00 PKD
ROOT
HETATM    1  C   UNL     1      -9.615  14.929  66.580  1.00  0.00    -0.266 C  
HETATM    2  C   UNL     1      -9.118  16.105  65.721  1.00  0.00    -0.143 C  
HETATM    3  C   UNL     1      -8.836  14.979  67.890  1.00  0.00    -0.171 C  
HETATM    4  C   UNL     1      -8.998  17.461  66.464  1.00  0.00    -0.260 C  
HETATM    5  N   UNL     1      -8.303  17.372  67.791  1.00  0.00    -0.214 NA 
HETATM    6  C   UNL     1      -8.992  16.345  68.600  1.00  0.00    -0.233 C  
HETATM    7  O   UNL     1     -10.126  20.335  68.828  1.00  0.00    -0.292 OA 
HETATM    8  C   UNL     1     -10.404  18.072  66.598  1.00  0.00    -0.375 C  
HETATM    9  C   UNL     1      -9.803  19.184  68.553  1.00  0.00    -0.417 C  
HETATM   10  C   UNL     1     -10.780  18.137  68.077  1.00  0.00    -0.297 C  
HETATM   11  C   UNL     1      -8.370  18.662  68.572  1.00  0.00    -0.340 C  
HETATM   12  C   UNL     1     -10.423  16.877  68.913  1.00  0.00    -0.346 C  
ENDROOT
BRANCH   1  13
HETATM   13  O   UNL     1     -10.982  14.893  67.035  1.00  0.00    -0.312 OA 
BRANCH  13  14
HETATM   14  C   UNL     1     -11.787  13.809  66.986  1.00  0.00    -0.410 C  
HETATM   15  O   UNL     1     -12.510  13.539  66.034  1.00  0.00    -0.432 OA 
BRANCH  14  16
HETATM   16  C   UNL     1     -11.781  13.061  68.248  1.00  0.00    -0.390 A  
HETATM   17  C   UNL     1     -11.577  11.364  69.772  1.00  0.00    -0.332 A  
HETATM   18  C   UNL     1     -11.452  11.676  68.415  1.00  0.00    -0.360 A  
HETATM   19  N   UNL     1     -12.012  12.504  70.414  1.00  0.00    -0.519 NA 
HETATM   20  C   UNL     1     -11.095  10.649  67.516  1.00  0.00    -0.367 A  
HETATM   21  C   UNL     1     -12.160  13.525  69.510  1.00  0.00    -0.297 A  
HETATM   22  C   UNL     1     -10.825   9.375  68.010  1.00  0.00    -0.197 A  
HETATM   23  C   UNL     1     -10.907   9.104  69.372  1.00  0.00    -0.165 A  
HETATM   24  H   UNL     1     -12.197  12.578  71.414  1.00  0.00     0.000 HD 
HETATM   25  C   UNL     1     -11.296  10.092  70.283  1.00  0.00    -0.387 A  
ENDBRANCH  14  16
ENDBRANCH  13  14
ENDBRANCH   1  13
TORSDOF 3
ENDMDL
MODEL       32
REMARK 921   NORMALIZED FREE ENERGY PREDICTED BY IDOCK:   -6.54 KCAL/MOL
REMARK 922        TOTAL FREE ENERGY PREDICTED BY IDOCK:   -8.31 KCAL/MOL
REMARK 923 INTER-LIGAND FREE ENERGY PREDICTED BY IDOCK:   -7.47 KCAL/MOL
REMARK 924 INTRA-LIGAND FREE ENERGY PREDICTED BY IDOCK:   -0.84 KCAL/MOL
REMARK 927      BINDING AFFINITY PREDICTED BY RF-SCORE:    0.00 PKD
ROOT
HETATM    1  C   UNL     1     -10.575  14.543  68.900  1.00  0.00    -0.249 C  
HETATM    2  C   UNL     1      -9.231  15.010  69.486  1.00  0.00    -0.066 C  
HETATM    3  C   UNL     1     -11.398  15.797  68.627  1.00  0.00    -0.369 C  
HETATM    4  C   UNL     1      -8.560  16.191  68.738  1.00  0.00    -0.236 C  
HETATM    5  N   UNL     1      -9.491  17.328  68.431  1.00  0.00    -0.274 NA 
HETATM    6  C   UNL     1     -10.652  16.782  67.697  1.00  0.00    -0.325 C  
HETATM    7  O   UNL     1      -7.330  18.209  65.651  1.00  0.00    -0.528 OA 
HETATM    8  C   UNL     1      -7.888  15.647  67.466  1.00  0.00    -0.184 C  
HETATM    9  C   UNL     1      -8.171  17.681  66.370  1.00  0.00    -0.263 C  
HETATM   10  C   UNL     1      -8.587  16.236  66.243  1.00  0.00    -0.374 C  
HETATM   11  C   UNL     1      -8.862  18.372  67.542  1.00  0.00    -0.261 C  
HETATM   12  C   UNL     1     -10.138  16.278  66.315  1.00  0.00    -0.340 C  
ENDROOT
BRANCH   1  13
HETATM   13  O   UNL     1     -10.613  13.865  67.629  1.00  0.00    -0.243 OA 
BRANCH  13  14
HETATM   14  C   UNL     1     -11.163  12.649  67.414  1.00  0.00    -0.290 C  
HETATM   15  O   UNL     1     -12.103  12.451  66.654  1.00  0.00    -0.592 OA 
BRANCH  14  16
HETATM   16  C   UNL     1     -10.579  11.620  68.281  1.00  0.00    -0.232 A  
HETATM   17  C   UNL     1     -10.290  10.112  69.980  1.00  0.00    -0.250 A  
HETATM   18  C   UNL     1     -11.182  11.048  69.448  1.00  0.00    -0.332 A  
HETATM   19  N   UNL     1      -9.156  10.139  69.195  1.00  0.00    -0.172 NA 
HETATM   20  C   UNL     1     -12.401  11.276  70.120  1.00  0.00    -0.354 A  
HETATM   21  C   UNL     1      -9.305  11.054  68.184  1.00  0.00    -0.173 A  
HETATM   22  C   UNL     1     -12.703  10.530  71.256  1.00  0.00    -0.532 A  
HETATM   23  C   UNL     1     -11.819   9.568  71.735  1.00  0.00    -0.430 A  
HETATM   24  H   UNL     1      -8.328   9.563  69.344  1.00  0.00     0.000 HD 
HETATM   25  C   UNL     1     -10.586   9.345  71.112  1.00  0.00    -0.403 A  
ENDBRANCH  14  16
ENDBRANCH  13  14
ENDBRANCH   1  13
TORSDOF 3
ENDMDL
MODEL       33
REMARK 921   NORMALIZED FREE ENERGY PREDICTED BY IDOCK:   -6.52 KCAL/MOL
REMARK 922        TOTAL FREE ENERGY PREDICTED BY IDOCK:   -8.30 KCAL/MOL
REMARK 923 INTER-LIGAND FREE ENERGY PREDICTED BY IDOCK:   -7.25 KCAL/MOL
REMARK 924 INTRA-LIGAND FREE ENERGY PREDICTED BY IDOCK:   -1.05 KCAL/MOL
REMARK 927      BINDING AFFINITY PREDICTED BY RF-SCORE:    0.00 PKD
ROOT
HETATM    1  C   UNL     1     -11.507   7.846  72.700  1.00  0.00    -0.395 C  
HETATM    2  C   UNL     1     -11.811   6.435  72.169  1.00  0.00    -0.361 C  
HETATM    3  C   UNL     1     -10.001   7.920  72.922  1.00  0.00    -0.360 C  
HETATM    4  C   UNL     1     -10.868   5.936  71.043  1.00  0.00    -0.273 C  
HETATM    5  N   UNL     1      -9.410   6.153  71.326  1.00  0.00    -0.159 NA 
HETATM    6  C   UNL     1      -9.212   7.585  71.634  1.00  0.00    -0.134 C  
HETATM    7  O   UNL     1      -8.825   6.180  67.744  1.00  0.00    -0.113 OA 
HETATM    8  C   UNL     1     -11.294   6.594  69.719  1.00  0.00    -0.412 C  
HETATM    9  C   UNL     1      -9.120   6.488  68.894  1.00  0.00    -0.131 C  
HETATM   10  C   UNL     1     -10.174   7.513  69.236  1.00  0.00    -0.201 C  
HETATM   11  C   UNL     1      -8.533   5.835  70.140  1.00  0.00    -0.121 C  
HETATM   12  C   UNL     1      -9.509   8.389  70.333  1.00  0.00    -0.179 C  
ENDROOT
BRANCH   1  13
HETATM   13  O   UNL     1     -11.753   8.999  71.871  1.00  0.00    -0.346 OA 
BRANCH  13  14
HETATM   14  C   UNL     1     -12.950   9.611  71.729  1.00  0.00    -0.420 C  
HETATM   15  O   UNL     1     -14.027   9.035  71.833  1.00  0.00    -0.402 OA 
BRANCH  14  16
HETATM   16  C   UNL     1     -12.807  11.013  71.321  1.00  0.00    -0.528 A  
HETATM   17  C   UNL     1     -12.306  12.886  70.103  1.00  0.00    -0.179 A  
HETATM   18  C   UNL     1     -12.262  11.488  70.084  1.00  0.00    -0.387 A  
HETATM   19  N   UNL     1     -12.817  13.261  71.327  1.00  0.00    -0.345 NA 
HETATM   20  C   UNL     1     -11.697  10.845  68.963  1.00  0.00    -0.391 A  
HETATM   21  C   UNL     1     -13.103  12.150  72.078  1.00  0.00    -0.357 A  
HETATM   22  C   UNL     1     -11.252  11.613  67.890  1.00  0.00    -0.334 A  
HETATM   23  C   UNL     1     -11.354  13.000  67.912  1.00  0.00    -0.327 A  
HETATM   24  H   UNL     1     -12.962  14.224  71.630  1.00  0.00     0.000 HD 
HETATM   25  C   UNL     1     -11.874  13.669  69.026  1.00  0.00    -0.393 A  
ENDBRANCH  14  16
ENDBRANCH  13  14
ENDBRANCH   1  13
TORSDOF 3
ENDMDL
MODEL       34
REMARK 921   NORMALIZED FREE ENERGY PREDICTED BY IDOCK:   -6.52 KCAL/MOL
REMARK 922        TOTAL FREE ENERGY PREDICTED BY IDOCK:   -8.30 KCAL/MOL
REMARK 923 INTER-LIGAND FREE ENERGY PREDICTED BY IDOCK:   -7.61 KCAL/MOL
REMARK 924 INTRA-LIGAND FREE ENERGY PREDICTED BY IDOCK:   -0.69 KCAL/MOL
REMARK 927      BINDING AFFINITY PREDICTED BY RF-SCORE:    0.00 PKD
ROOT
HETATM    1  C   UNL     1      -9.042  15.004  67.481  1.00  0.00    -0.185 C  
HETATM    2  C   UNL     1      -8.614  15.735  66.197  1.00  0.00    -0.212 C  
HETATM    3  C   UNL     1      -8.282  15.651  68.632  1.00  0.00    -0.168 C  
HETATM    4  C   UNL     1      -8.590  17.283  66.295  1.00  0.00    -0.229 C  
HETATM    5  N   UNL     1      -7.903  17.806  67.523  1.00  0.00    -0.205 NA 
HETATM    6  C   UNL     1      -8.533  17.176  68.703  1.00  0.00    -0.258 C  
HETATM    7  O   UNL     1      -9.924  20.809  67.246  1.00  0.00    -0.433 OA 
HETATM    8  C   UNL     1     -10.034  17.804  66.186  1.00  0.00    -0.283 C  
HETATM    9  C   UNL     1      -9.525  19.673  67.477  1.00  0.00    -0.331 C  
HETATM   10  C   UNL     1     -10.427  18.463  67.506  1.00  0.00    -0.445 C  
HETATM   11  C   UNL     1      -8.061  19.298  67.688  1.00  0.00    -0.277 C  
HETATM   12  C   UNL     1      -9.998  17.700  68.788  1.00  0.00    -0.358 C  
ENDROOT
BRANCH   1  13
HETATM   13  O   UNL     1     -10.409  15.077  67.934  1.00  0.00    -0.237 OA 
BRANCH  13  14
HETATM   14  C   UNL     1     -11.290  14.053  67.910  1.00  0.00    -0.291 C  
HETATM   15  O   UNL     1     -11.586  13.432  66.897  1.00  0.00    -0.329 OA 
BRANCH  14  16
HETATM   16  C   UNL     1     -11.933  13.850  69.213  1.00  0.00    -0.402 A  
HETATM   17  C   UNL     1     -12.762  12.852  71.100  1.00  0.00    -0.276 A  
HETATM   18  C   UNL     1     -12.095  12.601  69.897  1.00  0.00    -0.322 A  
HETATM   19  N   UNL     1     -13.043  14.202  71.136  1.00  0.00    -0.340 NA 
HETATM   20  C   UNL     1     -11.763  11.269  69.575  1.00  0.00    -0.415 A  
HETATM   21  C   UNL     1     -12.571  14.811  70.001  1.00  0.00    -0.224 A  
HETATM   22  C   UNL     1     -12.058  10.255  70.482  1.00  0.00    -0.401 A  
HETATM   23  C   UNL     1     -12.677  10.539  71.695  1.00  0.00    -0.550 A  
HETATM   24  H   UNL     1     -13.530  14.677  71.895  1.00  0.00     0.000 HD 
HETATM   25  C   UNL     1     -13.053  11.845  72.027  1.00  0.00    -0.441 A  
ENDBRANCH  14  16
ENDBRANCH  13  14
ENDBRANCH   1  13
TORSDOF 3
ENDMDL
MODEL       35
REMARK 921   NORMALIZED FREE ENERGY PREDICTED BY IDOCK:   -6.50 KCAL/MOL
REMARK 922        TOTAL FREE ENERGY PREDICTED BY IDOCK:   -8.28 KCAL/MOL
REMARK 923 INTER-LIGAND FREE ENERGY PREDICTED BY IDOCK:   -7.43 KCAL/MOL
REMARK 924 INTRA-LIGAND FREE ENERGY PREDICTED BY IDOCK:   -0.85 KCAL/MOL
REMARK 927      BINDING AFFINITY PREDICTED BY RF-SCORE:    0.00 PKD
ROOT
HETATM    1  C   UNL     1      -9.356  13.228  68.183  1.00  0.00    -0.220 C  
HETATM    2  C   UNL     1      -9.012  13.901  66.842  1.00  0.00    -0.236 C  
HETATM    3  C   UNL     1     -10.739  13.728  68.586  1.00  0.00    -0.270 C  
HETATM    4  C   UNL     1     -10.147  13.884  65.785  1.00  0.00    -0.320 C  
HETATM    5  N   UNL     1     -11.487  14.298  66.320  1.00  0.00    -0.347 NA 
HETATM    6  C   UNL     1     -11.794  13.448  67.490  1.00  0.00    -0.366 C  
HETATM    7  O   UNL     1     -13.028  12.338  63.682  1.00  0.00    -0.777 OA 
HETATM    8  C   UNL     1     -10.198  12.487  65.142  1.00  0.00    -0.299 C  
HETATM    9  C   UNL     1     -12.476  12.697  64.717  1.00  0.00    -0.484 C  
HETATM   10  C   UNL     1     -11.526  11.823  65.498  1.00  0.00    -0.241 C  
HETATM   11  C   UNL     1     -12.601  14.090  65.324  1.00  0.00    -0.470 C  
HETATM   12  C   UNL     1     -11.982  11.990  66.974  1.00  0.00    -0.099 C  
ENDROOT
BRANCH   1  13
HETATM   13  O   UNL     1      -9.513  11.797  68.254  1.00  0.00    -0.184 OA 
BRANCH  13  14
HETATM   14  C   UNL     1      -8.779  10.975  69.036  1.00  0.00    -0.064 C  
HETATM   15  O   UNL     1      -7.560  11.042  69.142  1.00  0.00    -0.125 OA 
BRANCH  14  16
HETATM   16  C   UNL     1      -9.597   9.923  69.650  1.00  0.00    -0.249 A  
HETATM   17  C   UNL     1     -11.301   8.845  70.737  1.00  0.00    -0.278 A  
HETATM   18  C   UNL     1     -10.870  10.096  70.285  1.00  0.00    -0.370 A  
HETATM   19  N   UNL     1     -10.307   7.938  70.431  1.00  0.00    -0.209 NA 
HETATM   20  C   UNL     1     -11.676  11.223  70.549  1.00  0.00    -0.345 A  
HETATM   21  C   UNL     1      -9.270   8.573  69.798  1.00  0.00    -0.157 A  
HETATM   22  C   UNL     1     -12.895  11.051  71.199  1.00  0.00    -0.491 A  
HETATM   23  C   UNL     1     -13.324   9.787  71.592  1.00  0.00    -0.487 A  
HETATM   24  H   UNL     1     -10.340   6.942  70.645  1.00  0.00     0.000 HD 
HETATM   25  C   UNL     1     -12.529   8.656  71.379  1.00  0.00    -0.337 A  
ENDBRANCH  14  16
ENDBRANCH  13  14
ENDBRANCH   1  13
TORSDOF 3
ENDMDL
MODEL       36
REMARK 921   NORMALIZED FREE ENERGY PREDICTED BY IDOCK:   -6.48 KCAL/MOL
REMARK 922        TOTAL FREE ENERGY PREDICTED BY IDOCK:   -8.24 KCAL/MOL
REMARK 923 INTER-LIGAND FREE ENERGY PREDICTED BY IDOCK:   -7.48 KCAL/MOL
REMARK 924 INTRA-LIGAND FREE ENERGY PREDICTED BY IDOCK:   -0.76 KCAL/MOL
REMARK 927      BINDING AFFINITY PREDICTED BY RF-SCORE:    0.00 PKD
ROOT
HETATM    1  C   UNL     1     -11.174  11.790  65.741  1.00  0.00    -0.281 C  
HETATM    2  C   UNL     1     -12.417  12.681  65.576  1.00  0.00    -0.345 C  
HETATM    3  C   UNL     1     -10.036  12.475  64.993  1.00  0.00    -0.258 C  
HETATM    4  C   UNL     1     -12.179  14.196  65.810  1.00  0.00    -0.442 C  
HETATM    5  N   UNL     1     -10.970  14.740  65.105  1.00  0.00    -0.367 NA 
HETATM    6  C   UNL     1      -9.805  13.920  65.495  1.00  0.00    -0.185 C  
HETATM    7  O   UNL     1     -10.798  17.341  67.632  1.00  0.00    -0.335 OA 
HETATM    8  C   UNL     1     -12.117  14.454  67.326  1.00  0.00    -0.358 C  
HETATM    9  C   UNL     1     -10.708  16.281  67.021  1.00  0.00    -0.233 C  
HETATM   10  C   UNL     1     -10.714  14.930  67.694  1.00  0.00    -0.270 C  
HETATM   11  C   UNL     1     -10.657  16.163  65.502  1.00  0.00    -0.377 C  
HETATM   12  C   UNL     1      -9.548  14.162  67.013  1.00  0.00    -0.264 C  
ENDROOT
BRANCH   1  13
HETATM   13  O   UNL     1     -10.602  11.581  67.048  1.00  0.00    -0.221 OA 
BRANCH  13  14
HETATM   14  C   UNL     1     -10.053  10.423  67.478  1.00  0.00    -0.192 C  
HETATM   15  O   UNL     1      -9.142   9.844  66.900  1.00  0.00    -0.140 OA 
BRANCH  14  16
HETATM   16  C   UNL     1     -10.753   9.885  68.650  1.00  0.00    -0.256 A  
HETATM   17  C   UNL     1     -11.988   9.741  70.573  1.00  0.00    -0.206 A  
HETATM   18  C   UNL     1     -11.484  10.637  69.625  1.00  0.00    -0.361 A  
HETATM   19  N   UNL     1     -11.543   8.484  70.221  1.00  0.00    -0.469 NA 
HETATM   20  C   UNL     1     -11.729  12.015  69.802  1.00  0.00    -0.390 A  
HETATM   21  C   UNL     1     -10.784   8.556  69.081  1.00  0.00    -0.110 A  
HETATM   22  C   UNL     1     -12.505  12.436  70.879  1.00  0.00    -0.367 A  
HETATM   23  C   UNL     1     -13.037  11.519  71.779  1.00  0.00    -0.503 A  
HETATM   24  H   UNL     1     -11.749   7.627  70.733  1.00  0.00     0.000 HD 
HETATM   25  C   UNL     1     -12.780  10.149  71.652  1.00  0.00    -0.549 A  
ENDBRANCH  14  16
ENDBRANCH  13  14
ENDBRANCH   1  13
TORSDOF 3
ENDMDL
MODEL       37
REMARK 921   NORMALIZED FREE ENERGY PREDICTED BY IDOCK:   -6.41 KCAL/MOL
REMARK 922        TOTAL FREE ENERGY PREDICTED BY IDOCK:   -8.17 KCAL/MOL
REMARK 923 INTER-LIGAND FREE ENERGY PREDICTED BY IDOCK:   -7.19 KCAL/MOL
REMARK 924 INTRA-LIGAND FREE ENERGY PREDICTED BY IDOCK:   -0.98 KCAL/MOL
REMARK 927      BINDING AFFINITY PREDICTED BY RF-SCORE:    0.00 PKD
ROOT
HETATM    1  C   UNL     1      -9.902  13.185  68.308  1.00  0.00    -0.227 C  
HETATM    2  C   UNL     1      -8.828  13.649  67.309  1.00  0.00    -0.227 C  
HETATM    3  C   UNL     1     -10.499  14.442  68.930  1.00  0.00    -0.246 C  
HETATM    4  C   UNL     1      -9.255  14.812  66.374  1.00  0.00    -0.269 C  
HETATM    5  N   UNL     1      -9.925  15.952  67.084  1.00  0.00    -0.237 NA 
HETATM    6  C   UNL     1     -11.060  15.405  67.857  1.00  0.00    -0.323 C  
HETATM    7  O   UNL     1     -11.604  16.765  63.970  1.00  0.00    -1.195 OA 
HETATM    8  C   UNL     1     -10.141  14.239  65.253  1.00  0.00    -0.378 C  
HETATM    9  C   UNL     1     -11.281  16.257  65.039  1.00  0.00    -0.176 C  
HETATM   10  C   UNL     1     -11.549  14.814  65.389  1.00  0.00    -0.316 C  
HETATM   11  C   UNL     1     -10.497  16.975  66.132  1.00  0.00    -0.271 C  
HETATM   12  C   UNL     1     -12.110  14.873  66.836  1.00  0.00    -0.001 C  
ENDROOT
BRANCH   1  13
HETATM   13  O   UNL     1     -11.073  12.487  67.840  1.00  0.00    -0.221 OA 
BRANCH  13  14
HETATM   14  C   UNL     1     -11.386  11.208  68.143  1.00  0.00    -0.309 C  
HETATM   15  O   UNL     1     -12.285  10.890  68.911  1.00  0.00    -0.494 OA 
BRANCH  14  16
HETATM   16  C   UNL     1     -10.451  10.254  67.537  1.00  0.00    -0.293 A  
HETATM   17  C   UNL     1      -9.149   9.153  66.008  1.00  0.00    -0.197 A  
HETATM   18  C   UNL     1     -10.042  10.218  66.164  1.00  0.00    -0.307 A  
HETATM   19  N   UNL     1      -9.046   8.525  67.232  1.00  0.00    -0.132 NA 
HETATM   20  C   UNL     1     -10.388  10.980  65.029  1.00  0.00    -0.360 A  
HETATM   21  C   UNL     1      -9.837   9.161  68.154  1.00  0.00    -0.164 A  
HETATM   22  C   UNL     1      -9.793  10.688  63.805  1.00  0.00    -0.394 A  
HETATM   23  C   UNL     1      -8.868   9.655  63.688  1.00  0.00    -0.256 A  
HETATM   24  H   UNL     1      -8.466   7.709  67.422  1.00  0.00     0.000 HD 
HETATM   25  C   UNL     1      -8.534   8.856  64.787  1.00  0.00    -0.193 A  
ENDBRANCH  14  16
ENDBRANCH  13  14
ENDBRANCH   1  13
TORSDOF 3
ENDMDL
MODEL       38
REMARK 921   NORMALIZED FREE ENERGY PREDICTED BY IDOCK:   -6.40 KCAL/MOL
REMARK 922        TOTAL FREE ENERGY PREDICTED BY IDOCK:   -8.16 KCAL/MOL
REMARK 923 INTER-LIGAND FREE ENERGY PREDICTED BY IDOCK:   -7.52 KCAL/MOL
REMARK 924 INTRA-LIGAND FREE ENERGY PREDICTED BY IDOCK:   -0.63 KCAL/MOL
REMARK 927      BINDING AFFINITY PREDICTED BY RF-SCORE:    0.00 PKD
ROOT
HETATM    1  C   UNL     1      -9.371  13.567  68.518  1.00  0.00    -0.108 C  
HETATM    2  C   UNL     1      -8.555  13.569  67.213  1.00  0.00    -0.218 C  
HETATM    3  C   UNL     1      -9.540  15.023  68.935  1.00  0.00    -0.221 C  
HETATM    4  C   UNL     1      -9.014  14.599  66.149  1.00  0.00     0.025 C  
HETATM    5  N   UNL     1      -9.249  15.978  66.694  1.00  0.00    -0.228 NA 
HETATM    6  C   UNL     1     -10.200  15.869  67.820  1.00  0.00    -0.260 C  
HETATM    7  O   UNL     1     -11.561  16.554  63.956  1.00  0.00    -1.154 OA 
HETATM    8  C   UNL     1     -10.264  14.048  65.440  1.00  0.00    -0.368 C  
HETATM    9  C   UNL     1     -11.046  16.198  65.010  1.00  0.00    -0.294 C  
HETATM   10  C   UNL     1     -11.454  14.951  65.756  1.00  0.00    -0.281 C  
HETATM   11  C   UNL     1      -9.874  16.906  65.682  1.00  0.00    -0.036 C  
HETATM   12  C   UNL     1     -11.570  15.412  67.234  1.00  0.00    -0.094 C  
ENDROOT
BRANCH   1  13
HETATM   13  O   UNL     1     -10.729  13.086  68.520  1.00  0.00    -0.243 OA 
BRANCH  13  14
HETATM   14  C   UNL     1     -11.104  11.820  68.230  1.00  0.00    -0.240 C  
HETATM   15  O   UNL     1     -11.830  11.523  67.289  1.00  0.00    -0.609 OA 
BRANCH  14  16
HETATM   16  C   UNL     1     -10.637  10.862  69.238  1.00  0.00    -0.251 A  
HETATM   17  C   UNL     1     -10.594   9.417  71.015  1.00  0.00    -0.330 A  
HETATM   18  C   UNL     1     -11.426  10.262  70.273  1.00  0.00    -0.395 A  
HETATM   19  N   UNL     1      -9.325   9.528  70.485  1.00  0.00    -0.260 NA 
HETATM   20  C   UNL     1     -12.774  10.396  70.665  1.00  0.00    -0.417 A  
HETATM   21  C   UNL     1      -9.330  10.407  69.433  1.00  0.00    -0.167 A  
HETATM   22  C   UNL     1     -13.249   9.648  71.739  1.00  0.00    -0.520 A  
HETATM   23  C   UNL     1     -12.412   8.776  72.428  1.00  0.00    -0.421 A  
HETATM   24  H   UNL     1      -8.504   9.029  70.827  1.00  0.00     0.000 HD 
HETATM   25  C   UNL     1     -11.061   8.650  72.087  1.00  0.00    -0.434 A  
ENDBRANCH  14  16
ENDBRANCH  13  14
ENDBRANCH   1  13
TORSDOF 3
ENDMDL
MODEL       39
REMARK 921   NORMALIZED FREE ENERGY PREDICTED BY IDOCK:   -6.40 KCAL/MOL
REMARK 922        TOTAL FREE ENERGY PREDICTED BY IDOCK:   -8.15 KCAL/MOL
REMARK 923 INTER-LIGAND FREE ENERGY PREDICTED BY IDOCK:   -7.70 KCAL/MOL
REMARK 924 INTRA-LIGAND FREE ENERGY PREDICTED BY IDOCK:   -0.45 KCAL/MOL
REMARK 927      BINDING AFFINITY PREDICTED BY RF-SCORE:    0.00 PKD
ROOT
HETATM    1  C   UNL     1     -10.529   9.442  70.903  1.00  0.00    -0.310 C  
HETATM    2  C   UNL     1     -10.421   8.122  71.686  1.00  0.00    -0.288 C  
HETATM    3  C   UNL     1      -9.265   9.559  70.059  1.00  0.00    -0.264 C  
HETATM    4  C   UNL     1      -9.967   6.895  70.853  1.00  0.00    -0.189 C  
HETATM    5  N   UNL     1      -8.774   7.157  69.981  1.00  0.00    -0.141 NA 
HETATM    6  C   UNL     1      -9.074   8.333  69.136  1.00  0.00    -0.148 C  
HETATM    7  O   UNL     1      -9.915   4.491  67.798  1.00  0.00    -0.142 OA 
HETATM    8  C   UNL     1     -11.167   6.386  70.036  1.00  0.00    -0.475 C  
HETATM    9  C   UNL     1      -9.766   5.566  68.369  1.00  0.00    -0.130 C  
HETATM   10  C   UNL     1     -10.874   6.574  68.550  1.00  0.00    -0.353 C  
HETATM   11  C   UNL     1      -8.473   6.011  69.045  1.00  0.00    -0.117 C  
HETATM   12  C   UNL     1     -10.222   7.930  68.163  1.00  0.00    -0.248 C  
ENDROOT
BRANCH   1  13
HETATM   13  O   UNL     1     -11.571   9.619  69.924  1.00  0.00    -0.163 OA 
BRANCH  13  14
HETATM   14  C   UNL     1     -12.063  10.812  69.522  1.00  0.00    -0.272 C  
HETATM   15  O   UNL     1     -11.955  11.244  68.381  1.00  0.00    -0.555 OA 
BRANCH  14  16
HETATM   16  C   UNL     1     -12.638  11.574  70.636  1.00  0.00    -0.337 A  
HETATM   17  C   UNL     1     -13.249  13.308  72.002  1.00  0.00    -0.446 A  
HETATM   18  C   UNL     1     -12.586  12.996  70.810  1.00  0.00    -0.321 A  
HETATM   19  N   UNL     1     -13.655  12.117  72.566  1.00  0.00    -0.513 NA 
HETATM   20  C   UNL     1     -11.996  14.042  70.072  1.00  0.00    -0.404 A  
HETATM   21  C   UNL     1     -13.277  11.066  71.769  1.00  0.00    -0.400 A  
HETATM   22  C   UNL     1     -12.135  15.354  70.518  1.00  0.00    -0.411 A  
HETATM   23  C   UNL     1     -12.844  15.642  71.681  1.00  0.00    -0.533 A  
HETATM   24  H   UNL     1     -14.162  12.030  73.446  1.00  0.00     0.000 HD 
HETATM   25  C   UNL     1     -13.408  14.622  72.455  1.00  0.00    -0.542 A  
ENDBRANCH  14  16
ENDBRANCH  13  14
ENDBRANCH   1  13
TORSDOF 3
ENDMDL
MODEL       40
REMARK 921   NORMALIZED FREE ENERGY PREDICTED BY IDOCK:   -6.37 KCAL/MOL
REMARK 922        TOTAL FREE ENERGY PREDICTED BY IDOCK:   -8.12 KCAL/MOL
REMARK 923 INTER-LIGAND FREE ENERGY PREDICTED BY IDOCK:   -7.48 KCAL/MOL
REMARK 924 INTRA-LIGAND FREE ENERGY PREDICTED BY IDOCK:   -0.65 KCAL/MOL
REMARK 927      BINDING AFFINITY PREDICTED BY RF-SCORE:    0.00 PKD
ROOT
HETATM    1  C   UNL     1     -10.277  14.335  68.114  1.00  0.00    -0.231 C  
HETATM    2  C   UNL     1     -11.727  13.821  68.081  1.00  0.00    -0.392 C  
HETATM    3  C   UNL     1      -9.432  13.322  67.350  1.00  0.00    -0.218 C  
HETATM    4  C   UNL     1     -12.223  13.333  66.695  1.00  0.00    -0.298 C  
HETATM    5  N   UNL     1     -11.262  12.421  65.989  1.00  0.00    -0.318 NA 
HETATM    6  C   UNL     1      -9.955  13.105  65.911  1.00  0.00    -0.269 C  
HETATM    7  O   UNL     1     -12.731  13.481  62.843  1.00  0.00    -0.569 OA 
HETATM    8  C   UNL     1     -12.573  14.562  65.839  1.00  0.00    -0.157 C  
HETATM    9  C   UNL     1     -12.072  13.417  63.876  1.00  0.00    -0.455 C  
HETATM   10  C   UNL     1     -11.618  14.630  64.650  1.00  0.00    -0.406 C  
HETATM   11  C   UNL     1     -11.683  12.117  64.571  1.00  0.00    -0.338 C  
HETATM   12  C   UNL     1     -10.127  14.338  64.973  1.00  0.00    -0.324 C  
ENDROOT
BRANCH   1  13
HETATM   13  O   UNL     1      -9.935  15.575  67.465  1.00  0.00    -0.228 OA 
BRANCH  13  14
HETATM   14  C   UNL     1      -9.988  16.795  68.045  1.00  0.00    -0.272 C  
HETATM   15  O   UNL     1     -11.016  17.450  68.162  1.00  0.00    -0.334 OA 
BRANCH  14  16
HETATM   16  C   UNL     1      -8.656  17.288  68.410  1.00  0.00    -0.251 A  
HETATM   17  C   UNL     1      -6.812  18.631  68.618  1.00  0.00    -0.275 A  
HETATM   18  C   UNL     1      -8.104  18.570  68.084  1.00  0.00    -0.310 A  
HETATM   19  N   UNL     1      -6.559  17.413  69.212  1.00  0.00    -0.246 NA 
HETATM   20  C   UNL     1      -8.582  19.672  67.345  1.00  0.00    -0.353 A  
HETATM   21  C   UNL     1      -7.647  16.589  69.077  1.00  0.00    -0.233 A  
HETATM   22  C   UNL     1      -7.781  20.803  67.214  1.00  0.00    -0.332 A  
HETATM   23  C   UNL     1      -6.519  20.858  67.798  1.00  0.00    -0.400 A  
HETATM   24  H   UNL     1      -5.690  17.161  69.682  1.00  0.00     0.000 HD 
HETATM   25  C   UNL     1      -6.002  19.766  68.505  1.00  0.00    -0.267 A  
ENDBRANCH  14  16
ENDBRANCH  13  14
ENDBRANCH   1  13
TORSDOF 3
ENDMDL
MODEL       41
REMARK 921   NORMALIZED FREE ENERGY PREDICTED BY IDOCK:   -6.37 KCAL/MOL
REMARK 922        TOTAL FREE ENERGY PREDICTED BY IDOCK:   -8.12 KCAL/MOL
REMARK 923 INTER-LIGAND FREE ENERGY PREDICTED BY IDOCK:   -7.42 KCAL/MOL
REMARK 924 INTRA-LIGAND FREE ENERGY PREDICTED BY IDOCK:   -0.70 KCAL/MOL
REMARK 927      BINDING AFFINITY PREDICTED BY RF-SCORE:    0.00 PKD
ROOT
HETATM    1  C   UNL     1     -11.382  11.833  65.238  1.00  0.00    -0.222 C  
HETATM    2  C   UNL     1     -12.627  12.721  65.404  1.00  0.00    -0.387 C  
HETATM    3  C   UNL     1     -10.411  12.596  64.346  1.00  0.00    -0.386 C  
HETATM    4  C   UNL     1     -12.338  14.211  65.723  1.00  0.00    -0.461 C  
HETATM    5  N   UNL     1     -11.289  14.831  64.846  1.00  0.00    -0.395 NA 
HETATM    6  C   UNL     1     -10.075  13.992  64.922  1.00  0.00    -0.256 C  
HETATM    7  O   UNL     1     -10.603  17.193  67.515  1.00  0.00    -0.347 OA 
HETATM    8  C   UNL     1     -11.976  14.331  67.214  1.00  0.00    -0.439 C  
HETATM    9  C   UNL     1     -10.642  16.195  66.805  1.00  0.00    -0.277 C  
HETATM   10  C   UNL     1     -10.524  14.788  67.339  1.00  0.00    -0.256 C  
HETATM   11  C   UNL     1     -10.893  16.215  65.301  1.00  0.00    -0.336 C  
HETATM   12  C   UNL     1      -9.521  14.099  66.375  1.00  0.00    -0.289 C  
ENDROOT
BRANCH   1  13
HETATM   13  O   UNL     1     -10.565  11.513  66.381  1.00  0.00    -0.241 OA 
BRANCH  13  14
HETATM   14  C   UNL     1     -10.502  10.300  66.975  1.00  0.00    -0.244 C  
HETATM   15  O   UNL     1     -10.199   9.269  66.389  1.00  0.00    -0.273 OA 
BRANCH  14  16
HETATM   16  C   UNL     1     -10.952  10.348  68.371  1.00  0.00    -0.312 A  
HETATM   17  C   UNL     1     -11.220   9.851  70.591  1.00  0.00    -0.344 A  
HETATM   18  C   UNL     1     -10.557   9.458  69.423  1.00  0.00    -0.235 A  
HETATM   19  N   UNL     1     -12.030  10.916  70.260  1.00  0.00    -0.329 NA 
HETATM   20  C   UNL     1      -9.719   8.325  69.471  1.00  0.00    -0.174 A  
HETATM   21  C   UNL     1     -11.897  11.213  68.928  1.00  0.00    -0.337 A  
HETATM   22  C   UNL     1      -9.533   7.666  70.683  1.00  0.00    -0.163 A  
HETATM   23  C   UNL     1     -10.165   8.108  71.842  1.00  0.00    -0.289 A  
HETATM   24  H   UNL     1     -12.640  11.411  70.911  1.00  0.00     0.000 HD 
HETATM   25  C   UNL     1     -11.032   9.206  71.818  1.00  0.00    -0.429 A  
ENDBRANCH  14  16
ENDBRANCH  13  14
ENDBRANCH   1  13
TORSDOF 3
ENDMDL
MODEL       42
REMARK 921   NORMALIZED FREE ENERGY PREDICTED BY IDOCK:   -6.35 KCAL/MOL
REMARK 922        TOTAL FREE ENERGY PREDICTED BY IDOCK:   -8.09 KCAL/MOL
REMARK 923 INTER-LIGAND FREE ENERGY PREDICTED BY IDOCK:   -7.07 KCAL/MOL
REMARK 924 INTRA-LIGAND FREE ENERGY PREDICTED BY IDOCK:   -1.02 KCAL/MOL
REMARK 927      BINDING AFFINITY PREDICTED BY RF-SCORE:    0.00 PKD
ROOT
HETATM    1  C   UNL     1      -8.772  14.894  68.005  1.00  0.00    -0.165 C  
HETATM    2  C   UNL     1      -8.366  15.380  66.602  1.00  0.00    -0.255 C  
HETATM    3  C   UNL     1      -8.145  15.858  69.005  1.00  0.00    -0.229 C  
HETATM    4  C   UNL     1      -8.520  16.905  66.362  1.00  0.00    -0.290 C  
HETATM    5  N   UNL     1      -7.957  17.756  67.463  1.00  0.00    -0.210 NA 
HETATM    6  C   UNL     1      -8.568  17.322  68.736  1.00  0.00    -0.230 C  
HETATM    7  O   UNL     1     -10.284  20.366  66.492  1.00  0.00    -0.405 OA 
HETATM    8  C   UNL     1     -10.006  17.213  66.109  1.00  0.00    -0.296 C  
HETATM    9  C   UNL     1      -9.772  19.362  66.973  1.00  0.00    -0.334 C  
HETATM   10  C   UNL     1     -10.534  18.087  67.244  1.00  0.00    -0.390 C  
HETATM   11  C   UNL     1      -8.288  19.219  67.295  1.00  0.00    -0.282 C  
HETATM   12  C   UNL     1     -10.085  17.672  68.672  1.00  0.00    -0.377 C  
ENDROOT
BRANCH   1  13
HETATM   13  O   UNL     1     -10.158  14.898  68.399  1.00  0.00    -0.215 OA 
BRANCH  13  14
HETATM   14  C   UNL     1     -11.158  14.288  67.724  1.00  0.00    -0.280 C  
HETATM   15  O   UNL     1     -12.252  14.799  67.517  1.00  0.00    -0.220 OA 
BRANCH  14  16
HETATM   16  C   UNL     1     -10.821  12.905  67.372  1.00  0.00    -0.272 A  
HETATM   17  C   UNL     1     -10.291  11.032  66.165  1.00  0.00    -0.251 A  
HETATM   18  C   UNL     1     -10.571  12.398  66.055  1.00  0.00    -0.286 A  
HETATM   19  N   UNL     1     -10.411  10.698  67.497  1.00  0.00    -0.202 NA 
HETATM   20  C   UNL     1     -10.596  12.981  64.771  1.00  0.00    -0.380 A  
HETATM   21  C   UNL     1     -10.749  11.805  68.232  1.00  0.00    -0.214 A  
HETATM   22  C   UNL     1     -10.291  12.198  63.661  1.00  0.00    -0.482 A  
HETATM   23  C   UNL     1      -9.967  10.852  63.803  1.00  0.00    -0.408 A  
HETATM   24  H   UNL     1     -10.268   9.763  67.880  1.00  0.00     0.000 HD 
HETATM   25  C   UNL     1      -9.971  10.236  65.060  1.00  0.00    -0.393 A  
ENDBRANCH  14  16
ENDBRANCH  13  14
ENDBRANCH   1  13
TORSDOF 3
ENDMDL
MODEL       43
REMARK 921   NORMALIZED FREE ENERGY PREDICTED BY IDOCK:   -6.34 KCAL/MOL
REMARK 922        TOTAL FREE ENERGY PREDICTED BY IDOCK:   -8.08 KCAL/MOL
REMARK 923 INTER-LIGAND FREE ENERGY PREDICTED BY IDOCK:   -6.90 KCAL/MOL
REMARK 924 INTRA-LIGAND FREE ENERGY PREDICTED BY IDOCK:   -1.19 KCAL/MOL
REMARK 927      BINDING AFFINITY PREDICTED BY RF-SCORE:    0.00 PKD
ROOT
HETATM    1  C   UNL     1      -9.545  14.618  67.679  1.00  0.00    -0.212 C  
HETATM    2  C   UNL     1      -9.045  14.664  66.224  1.00  0.00    -0.196 C  
HETATM    3  C   UNL     1     -10.909  15.297  67.699  1.00  0.00    -0.295 C  
HETATM    4  C   UNL     1     -10.093  14.261  65.154  1.00  0.00    -0.321 C  
HETATM    5  N   UNL     1     -11.433  14.914  65.334  1.00  0.00    -0.341 NA 
HETATM    6  C   UNL     1     -11.896  14.635  66.709  1.00  0.00    -0.317 C  
HETATM    7  O   UNL     1     -12.919  12.108  63.575  1.00  0.00    -0.794 OA 
HETATM    8  C   UNL     1     -10.206  12.727  65.133  1.00  0.00    -0.297 C  
HETATM    9  C   UNL     1     -12.421  12.837  64.426  1.00  0.00    -0.399 C  
HETATM   10  C   UNL     1     -11.607  12.324  65.588  1.00  0.00    -0.433 C  
HETATM   11  C   UNL     1     -12.480  14.361  64.398  1.00  0.00    -0.312 C  
HETATM   12  C   UNL     1     -12.161  13.103  66.813  1.00  0.00    -0.389 C  
ENDROOT
BRANCH   1  13
HETATM   13  O   UNL     1      -9.821  13.352  68.309  1.00  0.00    -0.228 OA 
BRANCH  13  14
HETATM   14  C   UNL     1      -8.970  12.302  68.345  1.00  0.00    -0.141 C  
HETATM   15  O   UNL     1      -7.762  12.396  68.166  1.00  0.00    -0.120 OA 
BRANCH  14  16
HETATM   16  C   UNL     1      -9.677  11.027  68.506  1.00  0.00    -0.189 A  
HETATM   17  C   UNL     1     -10.413   8.886  68.161  1.00  0.00    -0.202 A  
HETATM   18  C   UNL     1      -9.571   9.881  67.653  1.00  0.00    -0.172 A  
HETATM   19  N   UNL     1     -11.051   9.416  69.262  1.00  0.00    -0.427 NA 
HETATM   20  C   UNL     1      -8.857   9.619  66.466  1.00  0.00    -0.158 A  
HETATM   21  C   UNL     1     -10.637  10.706  69.470  1.00  0.00    -0.230 A  
HETATM   22  C   UNL     1      -8.967   8.367  65.866  1.00  0.00    -0.223 A  
HETATM   23  C   UNL     1      -9.772   7.377  66.421  1.00  0.00    -0.163 A  
HETATM   24  H   UNL     1     -11.732   8.920  69.838  1.00  0.00     0.000 HD 
HETATM   25  C   UNL     1     -10.523   7.619  67.576  1.00  0.00    -0.336 A  
ENDBRANCH  14  16
ENDBRANCH  13  14
ENDBRANCH   1  13
TORSDOF 3
ENDMDL
MODEL       44
REMARK 921   NORMALIZED FREE ENERGY PREDICTED BY IDOCK:   -6.31 KCAL/MOL
REMARK 922        TOTAL FREE ENERGY PREDICTED BY IDOCK:   -8.05 KCAL/MOL
REMARK 923 INTER-LIGAND FREE ENERGY PREDICTED BY IDOCK:   -7.33 KCAL/MOL
REMARK 924 INTRA-LIGAND FREE ENERGY PREDICTED BY IDOCK:   -0.72 KCAL/MOL
REMARK 927      BINDING AFFINITY PREDICTED BY RF-SCORE:    0.00 PKD
ROOT
HETATM    1  C   UNL     1      -9.434  13.047  67.759  1.00  0.00    -0.209 C  
HETATM    2  C   UNL     1      -8.322  12.234  68.444  1.00  0.00    -0.144 C  
HETATM    3  C   UNL     1      -9.628  12.448  66.371  1.00  0.00    -0.249 C  
HETATM    4  C   UNL     1      -8.452  10.694  68.310  1.00  0.00    -0.127 C  
HETATM    5  N   UNL     1      -8.745  10.225  66.915  1.00  0.00    -0.126 NA 
HETATM    6  C   UNL     1      -9.950  10.936  66.437  1.00  0.00    -0.221 C  
HETATM    7  O   UNL     1     -10.277   7.262  68.346  1.00  0.00    -0.169 OA 
HETATM    8  C   UNL     1      -9.513  10.204  69.310  1.00  0.00    -0.231 C  
HETATM    9  C   UNL     1     -10.057   8.399  67.944  1.00  0.00    -0.203 C  
HETATM   10  C   UNL     1     -10.699   9.630  68.537  1.00  0.00    -0.239 C  
HETATM   11  C   UNL     1      -9.054   8.749  66.850  1.00  0.00    -0.139 C  
HETATM   12  C   UNL     1     -11.153  10.454  67.302  1.00  0.00    -0.251 C  
ENDROOT
BRANCH   1  13
HETATM   13  O   UNL     1     -10.773  13.033  68.292  1.00  0.00    -0.230 OA 
BRANCH  13  14
HETATM   14  C   UNL     1     -11.678  14.025  68.143  1.00  0.00    -0.352 C  
HETATM   15  O   UNL     1     -12.402  14.146  67.162  1.00  0.00    -0.370 OA 
BRANCH  14  16
HETATM   16  C   UNL     1     -11.610  15.002  69.235  1.00  0.00    -0.338 A  
HETATM   17  C   UNL     1     -11.878  16.012  71.273  1.00  0.00    -0.449 A  
HETATM   18  C   UNL     1     -12.163  14.850  70.548  1.00  0.00    -0.388 A  
HETATM   19  N   UNL     1     -11.212  16.869  70.423  1.00  0.00    -0.295 NA 
HETATM   20  C   UNL     1     -12.919  13.835  71.171  1.00  0.00    -0.370 A  
HETATM   21  C   UNL     1     -11.062  16.287  69.190  1.00  0.00    -0.322 A  
HETATM   22  C   UNL     1     -13.310  13.992  72.497  1.00  0.00    -0.639 A  
HETATM   23  C   UNL     1     -12.968  15.136  73.212  1.00  0.00    -0.645 A  
HETATM   24  H   UNL     1     -10.880  17.799  70.674  1.00  0.00     0.000 HD 
HETATM   25  C   UNL     1     -12.253  16.178  72.611  1.00  0.00    -0.625 A  
ENDBRANCH  14  16
ENDBRANCH  13  14
ENDBRANCH   1  13
TORSDOF 3
ENDMDL
MODEL       45
REMARK 921   NORMALIZED FREE ENERGY PREDICTED BY IDOCK:   -6.30 KCAL/MOL
REMARK 922        TOTAL FREE ENERGY PREDICTED BY IDOCK:   -8.03 KCAL/MOL
REMARK 923 INTER-LIGAND FREE ENERGY PREDICTED BY IDOCK:   -7.02 KCAL/MOL
REMARK 924 INTRA-LIGAND FREE ENERGY PREDICTED BY IDOCK:   -1.01 KCAL/MOL
REMARK 927      BINDING AFFINITY PREDICTED BY RF-SCORE:    0.00 PKD
ROOT
HETATM    1  C   UNL     1      -9.910  13.589  67.995  1.00  0.00    -0.238 C  
HETATM    2  C   UNL     1      -9.241  14.327  66.822  1.00  0.00    -0.282 C  
HETATM    3  C   UNL     1     -11.316  14.159  68.132  1.00  0.00    -0.316 C  
HETATM    4  C   UNL     1     -10.114  14.467  65.547  1.00  0.00    -0.366 C  
HETATM    5  N   UNL     1     -11.514  14.939  65.815  1.00  0.00    -0.320 NA 
HETATM    6  C   UNL     1     -12.119  14.035  66.815  1.00  0.00    -0.447 C  
HETATM    7  O   UNL     1     -12.544  13.287  62.751  1.00  0.00    -0.335 OA 
HETATM    8  C   UNL     1     -10.101  13.126  64.794  1.00  0.00    -0.244 C  
HETATM    9  C   UNL     1     -12.214  13.531  63.907  1.00  0.00    -0.399 C  
HETATM   10  C   UNL     1     -11.510  12.538  64.798  1.00  0.00    -0.369 C  
HETATM   11  C   UNL     1     -12.392  14.884  64.588  1.00  0.00    -0.278 C  
HETATM   12  C   UNL     1     -12.270  12.634  66.149  1.00  0.00    -0.279 C  
ENDROOT
BRANCH   1  13
HETATM   13  O   UNL     1     -10.158  12.172  67.910  1.00  0.00    -0.188 OA 
BRANCH  13  14
HETATM   14  C   UNL     1      -9.234  11.208  68.124  1.00  0.00    -0.166 C  
HETATM   15  O   UNL     1      -8.198  11.385  68.752  1.00  0.00    -0.151 OA 
BRANCH  14  16
HETATM   16  C   UNL     1      -9.564   9.964  67.419  1.00  0.00    -0.185 A  
HETATM   17  C   UNL     1     -10.260   7.826  66.985  1.00  0.00    -0.305 A  
HETATM   18  C   UNL     1     -10.101   8.772  68.004  1.00  0.00    -0.241 A  
HETATM   19  N   UNL     1      -9.795   8.401  65.821  1.00  0.00    -0.408 NA 
HETATM   20  C   UNL     1     -10.429   8.402  69.324  1.00  0.00    -0.223 A  
HETATM   21  C   UNL     1      -9.353   9.675  66.068  1.00  0.00    -0.207 A  
HETATM   22  C   UNL     1     -10.951   7.134  69.568  1.00  0.00    -0.214 A  
HETATM   23  C   UNL     1     -11.148   6.231  68.528  1.00  0.00    -0.397 A  
HETATM   24  H   UNL     1      -9.781   7.944  64.909  1.00  0.00     0.000 HD 
HETATM   25  C   UNL     1     -10.796   6.554  67.213  1.00  0.00    -0.463 A  
ENDBRANCH  14  16
ENDBRANCH  13  14
ENDBRANCH   1  13
TORSDOF 3
ENDMDL
MODEL       46
REMARK 921   NORMALIZED FREE ENERGY PREDICTED BY IDOCK:   -6.28 KCAL/MOL
REMARK 922        TOTAL FREE ENERGY PREDICTED BY IDOCK:   -8.01 KCAL/MOL
REMARK 923 INTER-LIGAND FREE ENERGY PREDICTED BY IDOCK:   -7.29 KCAL/MOL
REMARK 924 INTRA-LIGAND FREE ENERGY PREDICTED BY IDOCK:   -0.72 KCAL/MOL
REMARK 927      BINDING AFFINITY PREDICTED BY RF-SCORE:    0.00 PKD
ROOT
HETATM    1  C   UNL     1     -11.382  11.753  66.841  1.00  0.00    -0.320 C  
HETATM    2  C   UNL     1     -12.150  12.893  67.532  1.00  0.00    -0.251 C  
HETATM    3  C   UNL     1     -11.905  11.670  65.412  1.00  0.00     0.126 C  
HETATM    4  C   UNL     1     -12.272  14.202  66.707  1.00  0.00    -0.394 C  
HETATM    5  N   UNL     1     -12.697  13.989  65.283  1.00  0.00    -0.674 NA 
HETATM    6  C   UNL     1     -11.765  13.020  64.668  1.00  0.00    -0.361 C  
HETATM    7  O   UNL     1     -11.037  17.102  64.433  1.00  0.00    -1.100 OA 
HETATM    8  C   UNL     1     -10.938  14.963  66.795  1.00  0.00    -0.326 C  
HETATM    9  C   UNL     1     -11.282  15.933  64.707  1.00  0.00    -0.355 C  
HETATM   10  C   UNL     1     -10.305  15.020  65.407  1.00  0.00    -0.410 C  
HETATM   11  C   UNL     1     -12.623  15.251  64.459  1.00  0.00     0.149 C  
HETATM   12  C   UNL     1     -10.366  13.700  64.590  1.00  0.00    -0.407 C  
ENDROOT
BRANCH   1  13
HETATM   13  O   UNL     1      -9.958  11.857  66.642  1.00  0.00    -0.195 OA 
BRANCH  13  14
HETATM   14  C   UNL     1      -9.042  10.988  67.124  1.00  0.00    -0.146 C  
HETATM   15  O   UNL     1      -7.959  11.325  67.588  1.00  0.00    -0.112 OA 
BRANCH  14  16
HETATM   16  C   UNL     1      -9.447   9.593  66.921  1.00  0.00    -0.198 A  
HETATM   17  C   UNL     1     -10.194   7.463  67.311  1.00  0.00    -0.260 A  
HETATM   18  C   UNL     1      -9.926   8.691  67.926  1.00  0.00    -0.232 A  
HETATM   19  N   UNL     1      -9.848   7.590  65.982  1.00  0.00    -0.408 NA 
HETATM   20  C   UNL     1     -10.119   8.804  69.318  1.00  0.00    -0.206 A  
HETATM   21  C   UNL     1      -9.378   8.855  65.737  1.00  0.00    -0.219 A  
HETATM   22  C   UNL     1     -10.618   7.715  70.028  1.00  0.00    -0.240 A  
HETATM   23  C   UNL     1     -10.925   6.521  69.383  1.00  0.00    -0.395 A  
HETATM   24  H   UNL     1      -9.929   6.851  65.284  1.00  0.00     0.000 HD 
HETATM   25  C   UNL     1     -10.708   6.365  68.009  1.00  0.00    -0.362 A  
ENDBRANCH  14  16
ENDBRANCH  13  14
ENDBRANCH   1  13
TORSDOF 3
ENDMDL
MODEL       47
REMARK 921   NORMALIZED FREE ENERGY PREDICTED BY IDOCK:   -6.27 KCAL/MOL
REMARK 922        TOTAL FREE ENERGY PREDICTED BY IDOCK:   -8.00 KCAL/MOL
REMARK 923 INTER-LIGAND FREE ENERGY PREDICTED BY IDOCK:   -7.00 KCAL/MOL
REMARK 924 INTRA-LIGAND FREE ENERGY PREDICTED BY IDOCK:   -1.00 KCAL/MOL
REMARK 927      BINDING AFFINITY PREDICTED BY RF-SCORE:    0.00 PKD
ROOT
HETATM    1  C   UNL     1      -9.221   8.905  70.096  1.00  0.00    -0.180 C  
HETATM    2  C   UNL     1      -9.066   8.929  71.627  1.00  0.00    -0.280 C  
HETATM    3  C   UNL     1      -8.766   7.528  69.627  1.00  0.00    -0.137 C  
HETATM    4  C   UNL     1      -9.607   7.676  72.364  1.00  0.00    -0.168 C  
HETATM    5  N   UNL     1      -9.177   6.374  71.753  1.00  0.00    -0.144 NA 
HETATM    6  C   UNL     1      -9.555   6.394  70.324  1.00  0.00    -0.164 C  
HETATM    7  O   UNL     1     -12.145   4.846  73.179  1.00  0.00    -0.146 OA 
HETATM    8  C   UNL     1     -11.139   7.784  72.455  1.00  0.00    -0.379 C  
HETATM    9  C   UNL     1     -11.364   5.468  72.466  1.00  0.00    -0.265 C  
HETATM   10  C   UNL     1     -11.767   6.660  71.634  1.00  0.00    -0.362 C  
HETATM   11  C   UNL     1      -9.869   5.184  72.372  1.00  0.00    -0.167 C  
HETATM   12  C   UNL     1     -11.112   6.397  70.250  1.00  0.00    -0.416 C  
ENDROOT
BRANCH   1  13
HETATM   13  O   UNL     1     -10.528   9.018  69.500  1.00  0.00    -0.211 OA 
BRANCH  13  14
HETATM   14  C   UNL     1     -10.851   9.860  68.493  1.00  0.00    -0.217 C  
HETATM   15  O   UNL     1     -10.810   9.553  67.308  1.00  0.00    -0.251 OA 
BRANCH  14  16
HETATM   16  C   UNL     1     -11.143  11.213  68.979  1.00  0.00    -0.299 A  
HETATM   17  C   UNL     1     -11.978  12.949  70.218  1.00  0.00    -0.283 A  
HETATM   18  C   UNL     1     -11.958  11.555  70.107  1.00  0.00    -0.452 A  
HETATM   19  N   UNL     1     -11.239  13.451  69.168  1.00  0.00    -0.309 NA 
HETATM   20  C   UNL     1     -12.714  10.794  71.023  1.00  0.00    -0.513 A  
HETATM   21  C   UNL     1     -10.749  12.424  68.403  1.00  0.00    -0.235 A  
HETATM   22  C   UNL     1     -13.411  11.445  72.038  1.00  0.00    -0.388 A  
HETATM   23  C   UNL     1     -13.372  12.831  72.156  1.00  0.00    -0.593 A  
HETATM   24  H   UNL     1     -11.080  14.442  68.986  1.00  0.00     0.000 HD 
HETATM   25  C   UNL     1     -12.662  13.615  71.240  1.00  0.00    -0.443 A  
ENDBRANCH  14  16
ENDBRANCH  13  14
ENDBRANCH   1  13
TORSDOF 3
ENDMDL
MODEL       48
REMARK 921   NORMALIZED FREE ENERGY PREDICTED BY IDOCK:   -6.20 KCAL/MOL
REMARK 922        TOTAL FREE ENERGY PREDICTED BY IDOCK:   -7.92 KCAL/MOL
REMARK 923 INTER-LIGAND FREE ENERGY PREDICTED BY IDOCK:   -6.65 KCAL/MOL
REMARK 924 INTRA-LIGAND FREE ENERGY PREDICTED BY IDOCK:   -1.27 KCAL/MOL
REMARK 927      BINDING AFFINITY PREDICTED BY RF-SCORE:    0.00 PKD
ROOT
HETATM    1  C   UNL     1      -9.386  12.600  67.663  1.00  0.00    -0.190 C  
HETATM    2  C   UNL     1     -10.681  13.208  68.230  1.00  0.00    -0.261 C  
HETATM    3  C   UNL     1      -9.798  11.638  66.555  1.00  0.00    -0.228 C  
HETATM    4  C   UNL     1     -11.704  13.689  67.169  1.00  0.00    -0.383 C  
HETATM    5  N   UNL     1     -11.955  12.699  66.069  1.00  0.00    -0.509 NA 
HETATM    6  C   UNL     1     -10.652  12.339  65.472  1.00  0.00    -0.269 C  
HETATM    7  O   UNL     1     -12.894  15.476  63.928  1.00  0.00    -0.605 OA 
HETATM    8  C   UNL     1     -11.235  15.047  66.617  1.00  0.00    -0.311 C  
HETATM    9  C   UNL     1     -12.266  14.641  64.570  1.00  0.00    -0.456 C  
HETATM   10  C   UNL     1     -10.890  14.890  65.137  1.00  0.00    -0.428 C  
HETATM   11  C   UNL     1     -12.804  13.267  64.957  1.00  0.00    -0.289 C  
HETATM   12  C   UNL     1     -10.090  13.611  64.769  1.00  0.00    -0.268 C  
ENDROOT
BRANCH   1  13
HETATM   13  O   UNL     1      -8.423  13.442  66.998  1.00  0.00    -0.194 OA 
BRANCH  13  14
HETATM   14  C   UNL     1      -7.194  13.740  67.475  1.00  0.00    -0.158 C  
HETATM   15  O   UNL     1      -6.230  12.990  67.391  1.00  0.00    -0.217 OA 
BRANCH  14  16
HETATM   16  C   UNL     1      -7.181  15.013  68.204  1.00  0.00    -0.122 A  
HETATM   17  C   UNL     1      -7.362  17.243  68.697  1.00  0.00    -0.238 A  
HETATM   18  C   UNL     1      -7.508  16.303  67.671  1.00  0.00    -0.161 A  
HETATM   19  N   UNL     1      -6.916  16.563  69.811  1.00  0.00    -0.022 NA 
HETATM   20  C   UNL     1      -7.881  16.756  66.389  1.00  0.00    -0.353 A  
HETATM   21  C   UNL     1      -6.781  15.229  69.525  1.00  0.00    -0.172 A  
HETATM   22  C   UNL     1      -8.144  18.109  66.194  1.00  0.00    -0.198 A  
HETATM   23  C   UNL     1      -8.041  19.016  67.244  1.00  0.00    -0.281 A  
HETATM   24  H   UNL     1      -6.715  16.991  70.714  1.00  0.00     0.000 HD 
HETATM   25  C   UNL     1      -7.636  18.603  68.518  1.00  0.00    -0.336 A  
ENDBRANCH  14  16
ENDBRANCH  13  14
ENDBRANCH   1  13
TORSDOF 3
ENDMDL
MODEL       49
REMARK 921   NORMALIZED FREE ENERGY PREDICTED BY IDOCK:   -6.20 KCAL/MOL
REMARK 922        TOTAL FREE ENERGY PREDICTED BY IDOCK:   -7.92 KCAL/MOL
REMARK 923 INTER-LIGAND FREE ENERGY PREDICTED BY IDOCK:   -7.20 KCAL/MOL
REMARK 924 INTRA-LIGAND FREE ENERGY PREDICTED BY IDOCK:   -0.71 KCAL/MOL
REMARK 927      BINDING AFFINITY PREDICTED BY RF-SCORE:    0.00 PKD
ROOT
HETATM    1  C   UNL     1     -10.523   8.811  72.300  1.00  0.00    -0.247 C  
HETATM    2  C   UNL     1     -11.166   7.471  72.698  1.00  0.00    -0.399 C  
HETATM    3  C   UNL     1      -9.053   8.527  72.013  1.00  0.00    -0.317 C  
HETATM    4  C   UNL     1     -10.805   6.269  71.786  1.00  0.00    -0.248 C  
HETATM    5  N   UNL     1      -9.339   6.149  71.486  1.00  0.00    -0.149 NA 
HETATM    6  C   UNL     1      -8.879   7.438  70.928  1.00  0.00    -0.148 C  
HETATM    7  O   UNL     1     -10.216   4.403  68.427  1.00  0.00     0.019 OA 
HETATM    8  C   UNL     1     -11.643   6.362  70.499  1.00  0.00    -0.424 C  
HETATM    9  C   UNL     1      -9.998   5.263  69.274  1.00  0.00    -0.215 C  
HETATM   10  C   UNL     1     -10.711   6.592  69.312  1.00  0.00    -0.307 C  
HETATM   11  C   UNL     1      -9.042   5.092  70.450  1.00  0.00    -0.134 C  
HETATM   12  C   UNL     1      -9.574   7.625  69.546  1.00  0.00    -0.163 C  
ENDROOT
BRANCH   1  13
HETATM   13  O   UNL     1     -10.947   9.489  71.101  1.00  0.00    -0.317 OA 
BRANCH  13  14
HETATM   14  C   UNL     1     -11.980  10.357  71.026  1.00  0.00    -0.382 C  
HETATM   15  O   UNL     1     -12.937  10.348  71.791  1.00  0.00    -0.420 OA 
BRANCH  14  16
HETATM   16  C   UNL     1     -11.878  11.233  69.853  1.00  0.00    -0.436 A  
HETATM   17  C   UNL     1     -11.823  13.100  68.527  1.00  0.00    -0.342 A  
HETATM   18  C   UNL     1     -11.967  12.663  69.848  1.00  0.00    -0.365 A  
HETATM   19  N   UNL     1     -11.696  11.976  67.739  1.00  0.00    -0.485 NA 
HETATM   20  C   UNL     1     -12.197  13.623  70.855  1.00  0.00    -0.408 A  
HETATM   21  C   UNL     1     -11.748  10.847  68.516  1.00  0.00    -0.237 A  
HETATM   22  C   UNL     1     -12.220  14.974  70.516  1.00  0.00    -0.391 A  
HETATM   23  C   UNL     1     -12.023  15.384  69.202  1.00  0.00    -0.324 A  
HETATM   24  H   UNL     1     -11.579  11.982  66.726  1.00  0.00     0.000 HD 
HETATM   25  C   UNL     1     -11.830  14.454  68.175  1.00  0.00    -0.362 A  
ENDBRANCH  14  16
ENDBRANCH  13  14
ENDBRANCH   1  13
TORSDOF 3
ENDMDL
MODEL       50
REMARK 921   NORMALIZED FREE ENERGY PREDICTED BY IDOCK:   -6.20 KCAL/MOL
REMARK 922        TOTAL FREE ENERGY PREDICTED BY IDOCK:   -7.91 KCAL/MOL
REMARK 923 INTER-LIGAND FREE ENERGY PREDICTED BY IDOCK:   -6.64 KCAL/MOL
REMARK 924 INTRA-LIGAND FREE ENERGY PREDICTED BY IDOCK:   -1.28 KCAL/MOL
REMARK 927      BINDING AFFINITY PREDICTED BY RF-SCORE:    0.00 PKD
ROOT
HETATM    1  C   UNL     1      -9.914  13.826  66.142  1.00  0.00    -0.308 C  
HETATM    2  C   UNL     1     -11.322  14.443  66.194  1.00  0.00    -0.350 C  
HETATM    3  C   UNL     1      -8.937  14.915  66.570  1.00  0.00    -0.288 C  
HETATM    4  C   UNL     1     -11.636  15.264  67.472  1.00  0.00    -0.214 C  
HETATM    5  N   UNL     1     -10.557  16.234  67.856  1.00  0.00    -0.309 NA 
HETATM    6  C   UNL     1      -9.287  15.487  67.964  1.00  0.00    -0.193 C  
HETATM    7  O   UNL     1     -11.725  16.016  71.286  1.00  0.00    -0.415 OA 
HETATM    8  C   UNL     1     -11.955  14.286  68.617  1.00  0.00    -0.348 C  
HETATM    9  C   UNL     1     -11.181  15.798  70.208  1.00  0.00    -0.366 C  
HETATM   10  C   UNL     1     -10.879  14.412  69.693  1.00  0.00    -0.144 C  
HETATM   11  C   UNL     1     -10.803  16.877  69.199  1.00  0.00    -0.237 C  
HETATM   12  C   UNL     1      -9.419  14.510  69.172  1.00  0.00    -0.017 C  
ENDROOT
BRANCH   1  13
HETATM   13  O   UNL     1      -9.568  12.739  67.024  1.00  0.00    -0.216 OA 
BRANCH  13  14
HETATM   14  C   UNL     1     -10.203  11.546  67.070  1.00  0.00    -0.214 C  
HETATM   15  O   UNL     1     -11.018  11.175  66.236  1.00  0.00    -0.251 OA 
BRANCH  14  16
HETATM   16  C   UNL     1      -9.888  10.803  68.296  1.00  0.00    -0.177 A  
HETATM   17  C   UNL     1     -10.089   9.783  70.336  1.00  0.00    -0.252 A  
HETATM   18  C   UNL     1     -10.794  10.499  69.363  1.00  0.00    -0.291 A  
HETATM   19  N   UNL     1      -8.783   9.688  69.905  1.00  0.00    -0.203 NA 
HETATM   20  C   UNL     1     -12.149  10.807  69.602  1.00  0.00    -0.361 A  
HETATM   21  C   UNL     1      -8.641  10.314  68.693  1.00  0.00    -0.128 A  
HETATM   22  C   UNL     1     -12.758  10.347  70.766  1.00  0.00    -0.460 A  
HETATM   23  C   UNL     1     -12.047   9.592  71.694  1.00  0.00    -0.474 A  
HETATM   24  H   UNL     1      -8.032   9.222  70.413  1.00  0.00     0.000 HD 
HETATM   25  C   UNL     1     -10.691   9.302  71.504  1.00  0.00    -0.425 A  
ENDBRANCH  14  16
ENDBRANCH  13  14
ENDBRANCH   1  13
TORSDOF 3
ENDMDL
MODEL       51
REMARK 921   NORMALIZED FREE ENERGY PREDICTED BY IDOCK:   -6.17 KCAL/MOL
REMARK 922        TOTAL FREE ENERGY PREDICTED BY IDOCK:   -7.88 KCAL/MOL
REMARK 923 INTER-LIGAND FREE ENERGY PREDICTED BY IDOCK:   -7.44 KCAL/MOL
REMARK 924 INTRA-LIGAND FREE ENERGY PREDICTED BY IDOCK:   -0.44 KCAL/MOL
REMARK 927      BINDING AFFINITY PREDICTED BY RF-SCORE:    0.00 PKD
ROOT
HETATM    1  C   UNL     1     -11.818  13.441  66.238  1.00  0.00    -0.394 C  
HETATM    2  C   UNL     1     -11.757  12.084  65.515  1.00  0.00    -0.315 C  
HETATM    3  C   UNL     1     -12.032  13.144  67.718  1.00  0.00    -0.352 C  
HETATM    4  C   UNL     1     -10.866  11.013  66.196  1.00  0.00    -0.146 C  
HETATM    5  N   UNL     1     -11.092  10.879  67.674  1.00  0.00    -0.295 NA 
HETATM    6  C   UNL     1     -10.932  12.216  68.284  1.00  0.00    -0.234 C  
HETATM    7  O   UNL     1      -7.698   9.627  67.974  1.00  0.00    -0.086 OA 
HETATM    8  C   UNL     1      -9.394  11.322  65.872  1.00  0.00    -0.240 C  
HETATM    9  C   UNL     1      -8.685  10.347  67.863  1.00  0.00    -0.118 C  
HETATM   10  C   UNL     1      -8.664  11.684  67.163  1.00  0.00    -0.164 C  
HETATM   11  C   UNL     1     -10.085   9.972  68.337  1.00  0.00    -0.165 C  
HETATM   12  C   UNL     1      -9.437  12.627  68.126  1.00  0.00    -0.218 C  
ENDROOT
BRANCH   1  13
HETATM   13  O   UNL     1     -10.661  14.301  66.261  1.00  0.00    -0.283 OA 
BRANCH  13  14
HETATM   14  C   UNL     1     -10.654  15.603  65.897  1.00  0.00    -0.343 C  
HETATM   15  O   UNL     1     -10.653  15.985  64.733  1.00  0.00    -0.600 OA 
BRANCH  14  16
HETATM   16  C   UNL     1     -10.532  16.497  67.053  1.00  0.00    -0.289 A  
HETATM   17  C   UNL     1     -10.249  18.374  68.335  1.00  0.00    -0.378 A  
HETATM   18  C   UNL     1     -10.306  17.911  67.016  1.00  0.00    -0.366 A  
HETATM   19  N   UNL     1     -10.389  17.276  69.157  1.00  0.00    -0.328 NA 
HETATM   20  C   UNL     1     -10.106  18.833  65.968  1.00  0.00    -0.353 A  
HETATM   21  C   UNL     1     -10.538  16.140  68.405  1.00  0.00    -0.286 A  
HETATM   22  C   UNL     1      -9.914  20.179  66.271  1.00  0.00    -0.557 A  
HETATM   23  C   UNL     1      -9.913  20.621  67.591  1.00  0.00    -0.388 A  
HETATM   24  H   UNL     1     -10.382  17.305  70.177  1.00  0.00     0.000 HD 
HETATM   25  C   UNL     1     -10.070  19.724  68.654  1.00  0.00    -0.546 A  
ENDBRANCH  14  16
ENDBRANCH  13  14
ENDBRANCH   1  13
TORSDOF 3
ENDMDL
MODEL       52
REMARK 921   NORMALIZED FREE ENERGY PREDICTED BY IDOCK:   -6.16 KCAL/MOL
REMARK 922        TOTAL FREE ENERGY PREDICTED BY IDOCK:   -7.87 KCAL/MOL
REMARK 923 INTER-LIGAND FREE ENERGY PREDICTED BY IDOCK:   -7.26 KCAL/MOL
REMARK 924 INTRA-LIGAND FREE ENERGY PREDICTED BY IDOCK:   -0.61 KCAL/MOL
REMARK 927      BINDING AFFINITY PREDICTED BY RF-SCORE:    0.00 PKD
ROOT
HETATM    1  C   UNL     1     -11.362  11.914  64.701  1.00  0.00    -0.293 C  
HETATM    2  C   UNL     1     -12.631  12.735  64.988  1.00  0.00    -0.538 C  
HETATM    3  C   UNL     1     -10.406  12.828  63.943  1.00  0.00    -0.352 C  
HETATM    4  C   UNL     1     -12.382  14.167  65.532  1.00  0.00    -0.458 C  
HETATM    5  N   UNL     1     -11.346  14.939  64.768  1.00  0.00    -0.402 NA 
HETATM    6  C   UNL     1     -10.110  14.129  64.727  1.00  0.00    -0.165 C  
HETATM    7  O   UNL     1     -10.737  16.886  67.770  1.00  0.00    -0.339 OA 
HETATM    8  C   UNL     1     -12.032  14.069  67.027  1.00  0.00    -0.472 C  
HETATM    9  C   UNL     1     -10.746  16.006  66.916  1.00  0.00    -0.262 C  
HETATM   10  C   UNL     1     -10.594  14.538  67.233  1.00  0.00    -0.280 C  
HETATM   11  C   UNL     1     -10.990  16.248  65.430  1.00  0.00    -0.197 C  
HETATM   12  C   UNL     1      -9.567  14.029  66.185  1.00  0.00    -0.263 C  
ENDROOT
BRANCH   1  13
HETATM   13  O   UNL     1     -10.542  11.446  65.790  1.00  0.00    -0.255 OA 
BRANCH  13  14
HETATM   14  C   UNL     1     -10.178  10.160  65.990  1.00  0.00    -0.218 C  
HETATM   15  O   UNL     1      -9.898   9.382  65.086  1.00  0.00    -0.182 OA 
BRANCH  14  16
HETATM   16  C   UNL     1     -10.271   9.774  67.402  1.00  0.00    -0.284 A  
HETATM   17  C   UNL     1     -10.542   8.532  69.307  1.00  0.00    -0.181 A  
HETATM   18  C   UNL     1     -10.534   8.460  67.910  1.00  0.00    -0.255 A  
HETATM   19  N   UNL     1     -10.338   9.853  69.648  1.00  0.00    -0.224 NA 
HETATM   20  C   UNL     1     -10.804   7.220  67.297  1.00  0.00    -0.354 A  
HETATM   21  C   UNL     1     -10.195  10.614  68.516  1.00  0.00    -0.175 A  
HETATM   22  C   UNL     1     -11.017   6.098  68.093  1.00  0.00    -0.398 A  
HETATM   23  C   UNL     1     -10.969   6.187  69.481  1.00  0.00    -0.463 A  
HETATM   24  H   UNL     1     -10.299  10.211  70.602  1.00  0.00     0.000 HD 
HETATM   25  C   UNL     1     -10.741   7.411  70.120  1.00  0.00    -0.254 A  
ENDBRANCH  14  16
ENDBRANCH  13  14
ENDBRANCH   1  13
TORSDOF 3
ENDMDL
MODEL       53
REMARK 921   NORMALIZED FREE ENERGY PREDICTED BY IDOCK:   -6.16 KCAL/MOL
REMARK 922        TOTAL FREE ENERGY PREDICTED BY IDOCK:   -7.87 KCAL/MOL
REMARK 923 INTER-LIGAND FREE ENERGY PREDICTED BY IDOCK:   -6.73 KCAL/MOL
REMARK 924 INTRA-LIGAND FREE ENERGY PREDICTED BY IDOCK:   -1.14 KCAL/MOL
REMARK 927      BINDING AFFINITY PREDICTED BY RF-SCORE:    0.00 PKD
ROOT
HETATM    1  C   UNL     1      -8.923   7.739  68.897  1.00  0.00    -0.141 C  
HETATM    2  C   UNL     1     -10.246   7.561  68.131  1.00  0.00    -0.228 C  
HETATM    3  C   UNL     1      -7.818   7.845  67.853  1.00  0.00    -0.127 C  
HETATM    4  C   UNL     1     -10.447   8.522  66.930  1.00  0.00    -0.275 C  
HETATM    5  N   UNL     1      -9.254   8.625  66.024  1.00  0.00    -0.210 NA 
HETATM    6  C   UNL     1      -8.083   8.991  66.848  1.00  0.00    -0.112 C  
HETATM    7  O   UNL     1     -10.409  11.925  65.051  1.00  0.00    -0.267 OA 
HETATM    8  C   UNL     1     -10.871   9.899  67.469  1.00  0.00    -0.307 C  
HETATM    9  C   UNL     1      -9.906  10.980  65.648  1.00  0.00    -0.239 C  
HETATM   10  C   UNL     1      -9.779  10.917  67.150  1.00  0.00    -0.199 C  
HETATM   11  C   UNL     1      -9.408   9.703  64.979  1.00  0.00    -0.255 C  
HETATM   12  C   UNL     1      -8.323  10.432  67.389  1.00  0.00    -0.121 C  
ENDROOT
BRANCH   1  13
HETATM   13  O   UNL     1      -8.705   8.917  69.698  1.00  0.00    -0.132 OA 
BRANCH  13  14
HETATM   14  C   UNL     1      -8.557   8.925  71.042  1.00  0.00    -0.206 C  
HETATM   15  O   UNL     1      -7.493   9.139  71.610  1.00  0.00    -0.326 OA 
BRANCH  14  16
HETATM   16  C   UNL     1      -9.790   8.535  71.733  1.00  0.00    -0.339 A  
HETATM   17  C   UNL     1     -11.965   8.492  72.451  1.00  0.00    -0.364 A  
HETATM   18  C   UNL     1     -11.067   9.176  71.625  1.00  0.00    -0.445 A  
HETATM   19  N   UNL     1     -11.256   7.491  73.081  1.00  0.00    -0.584 NA 
HETATM   20  C   UNL     1     -11.526  10.309  70.921  1.00  0.00    -0.425 A  
HETATM   21  C   UNL     1      -9.946   7.517  72.679  1.00  0.00    -0.207 A  
HETATM   22  C   UNL     1     -12.864  10.679  71.025  1.00  0.00    -0.496 A  
HETATM   23  C   UNL     1     -13.749   9.950  71.813  1.00  0.00    -0.268 A  
HETATM   24  H   UNL     1     -11.649   6.829  73.750  1.00  0.00     0.000 HD 
HETATM   25  C   UNL     1     -13.315   8.845  72.554  1.00  0.00    -0.451 A  
ENDBRANCH  14  16
ENDBRANCH  13  14
ENDBRANCH   1  13
TORSDOF 3
ENDMDL
MODEL       54
REMARK 921   NORMALIZED FREE ENERGY PREDICTED BY IDOCK:   -6.15 KCAL/MOL
REMARK 922        TOTAL FREE ENERGY PREDICTED BY IDOCK:   -7.86 KCAL/MOL
REMARK 923 INTER-LIGAND FREE ENERGY PREDICTED BY IDOCK:   -7.17 KCAL/MOL
REMARK 924 INTRA-LIGAND FREE ENERGY PREDICTED BY IDOCK:   -0.70 KCAL/MOL
REMARK 927      BINDING AFFINITY PREDICTED BY RF-SCORE:    0.00 PKD
ROOT
HETATM    1  C   UNL     1     -10.219   9.220  69.310  1.00  0.00    -0.206 C  
HETATM    2  C   UNL     1     -10.530   8.263  68.146  1.00  0.00    -0.226 C  
HETATM    3  C   UNL     1      -8.713   9.165  69.538  1.00  0.00    -0.140 C  
HETATM    4  C   UNL     1      -9.587   8.387  66.920  1.00  0.00    -0.202 C  
HETATM    5  N   UNL     1      -8.129   8.427  67.273  1.00  0.00    -0.105 NA 
HETATM    6  C   UNL     1      -7.924   9.513  68.253  1.00  0.00    -0.094 C  
HETATM    7  O   UNL     1      -7.539  10.233  64.180  1.00  0.00    -0.146 OA 
HETATM    8  C   UNL     1     -10.008   9.620  66.102  1.00  0.00    -0.346 C  
HETATM    9  C   UNL     1      -7.834   9.929  65.331  1.00  0.00    -0.132 C  
HETATM   10  C   UNL     1      -8.883  10.651  66.140  1.00  0.00    -0.179 C  
HETATM   11  C   UNL     1      -7.251   8.738  66.085  1.00  0.00    -0.085 C  
HETATM   12  C   UNL     1      -8.215  10.861  67.527  1.00  0.00    -0.116 C  
ENDROOT
BRANCH   1  13
HETATM   13  O   UNL     1     -10.458  10.634  69.167  1.00  0.00    -0.199 OA 
BRANCH  13  14
HETATM   14  C   UNL     1     -11.672  11.201  68.987  1.00  0.00    -0.339 C  
HETATM   15  O   UNL     1     -12.151  11.451  67.887  1.00  0.00    -0.646 OA 
BRANCH  14  16
HETATM   16  C   UNL     1     -12.294  11.587  70.258  1.00  0.00    -0.355 A  
HETATM   17  C   UNL     1     -13.127  12.844  71.982  1.00  0.00    -0.379 A  
HETATM   18  C   UNL     1     -12.515  12.923  70.727  1.00  0.00    -0.370 A  
HETATM   19  N   UNL     1     -13.237  11.506  72.297  1.00  0.00    -0.506 NA 
HETATM   20  C   UNL     1     -12.211  14.197  70.203  1.00  0.00    -0.415 A  
HETATM   21  C   UNL     1     -12.722  10.739  71.283  1.00  0.00    -0.441 A  
HETATM   22  C   UNL     1     -12.574  15.333  70.922  1.00  0.00    -0.471 A  
HETATM   23  C   UNL     1     -13.228  15.226  72.145  1.00  0.00    -0.489 A  
HETATM   24  H   UNL     1     -13.641  11.140  73.159  1.00  0.00     0.000 HD 
HETATM   25  C   UNL     1     -13.509  13.977  72.708  1.00  0.00    -0.576 A  
ENDBRANCH  14  16
ENDBRANCH  13  14
ENDBRANCH   1  13
TORSDOF 3
ENDMDL
MODEL       55
REMARK 921   NORMALIZED FREE ENERGY PREDICTED BY IDOCK:   -6.14 KCAL/MOL
REMARK 922        TOTAL FREE ENERGY PREDICTED BY IDOCK:   -7.84 KCAL/MOL
REMARK 923 INTER-LIGAND FREE ENERGY PREDICTED BY IDOCK:   -7.13 KCAL/MOL
REMARK 924 INTRA-LIGAND FREE ENERGY PREDICTED BY IDOCK:   -0.71 KCAL/MOL
REMARK 927      BINDING AFFINITY PREDICTED BY RF-SCORE:    0.00 PKD
ROOT
HETATM    1  C   UNL     1     -11.489  14.571  67.840  1.00  0.00    -0.325 C  
HETATM    2  C   UNL     1     -10.226  14.227  68.648  1.00  0.00    -0.246 C  
HETATM    3  C   UNL     1     -11.722  16.069  68.000  1.00  0.00    -0.004 C  
HETATM    4  C   UNL     1      -9.029  15.192  68.444  1.00  0.00    -0.183 C  
HETATM    5  N   UNL     1      -9.396  16.646  68.521  1.00  0.00    -0.228 NA 
HETATM    6  C   UNL     1     -10.490  16.893  67.559  1.00  0.00    -0.328 C  
HETATM    7  O   UNL     1      -6.523  17.376  66.427  1.00  0.00    -0.210 OA 
HETATM    8  C   UNL     1      -8.345  14.849  67.109  1.00  0.00    -0.247 C  
HETATM    9  C   UNL     1      -7.631  17.048  66.837  1.00  0.00    -0.209 C  
HETATM   10  C   UNL     1      -8.504  16.027  66.150  1.00  0.00    -0.247 C  
HETATM   11  C   UNL     1      -8.257  17.556  68.132  1.00  0.00    -0.251 C  
HETATM   12  C   UNL     1      -9.911  16.685  66.127  1.00  0.00    -0.356 C  
ENDROOT
BRANCH   1  13
HETATM   13  O   UNL     1     -11.498  14.409  66.408  1.00  0.00    -0.342 OA 
BRANCH  13  14
HETATM   14  C   UNL     1     -12.110  13.402  65.745  1.00  0.00    -0.436 C  
HETATM   15  O   UNL     1     -13.201  13.509  65.198  1.00  0.00    -0.720 OA 
BRANCH  14  16
HETATM   16  C   UNL     1     -11.370  12.140  65.856  1.00  0.00    -0.407 A  
HETATM   17  C   UNL     1     -10.073  10.324  65.343  1.00  0.00    -0.284 A  
HETATM   18  C   UNL     1     -10.610  11.505  64.821  1.00  0.00    -0.362 A  
HETATM   19  N   UNL     1     -10.523  10.212  66.642  1.00  0.00    -0.212 NA 
HETATM   20  C   UNL     1     -10.366  11.816  63.467  1.00  0.00    -0.490 A  
HETATM   21  C   UNL     1     -11.319  11.282  66.958  1.00  0.00    -0.187 A  
HETATM   22  C   UNL     1      -9.558  10.973  62.709  1.00  0.00    -0.337 A  
HETATM   23  C   UNL     1      -8.993   9.831  63.268  1.00  0.00    -0.274 A  
HETATM   24  H   UNL     1     -10.296   9.445  67.275  1.00  0.00     0.000 HD 
HETATM   25  C   UNL     1      -9.248   9.475  64.597  1.00  0.00    -0.247 A  
ENDBRANCH  14  16
ENDBRANCH  13  14
ENDBRANCH   1  13
TORSDOF 3
ENDMDL
MODEL       56
REMARK 921   NORMALIZED FREE ENERGY PREDICTED BY IDOCK:   -6.13 KCAL/MOL
REMARK 922        TOTAL FREE ENERGY PREDICTED BY IDOCK:   -7.83 KCAL/MOL
REMARK 923 INTER-LIGAND FREE ENERGY PREDICTED BY IDOCK:   -6.87 KCAL/MOL
REMARK 924 INTRA-LIGAND FREE ENERGY PREDICTED BY IDOCK:   -0.97 KCAL/MOL
REMARK 927      BINDING AFFINITY PREDICTED BY RF-SCORE:    0.00 PKD
ROOT
HETATM    1  C   UNL     1     -10.045  10.561  67.661  1.00  0.00    -0.179 C  
HETATM    2  C   UNL     1     -11.471  10.990  67.274  1.00  0.00    -0.164 C  
HETATM    3  C   UNL     1      -9.091  11.335  66.758  1.00  0.00    -0.181 C  
HETATM    4  C   UNL     1     -11.679  12.518  67.108  1.00  0.00    -0.355 C  
HETATM    5  N   UNL     1     -10.621  13.193  66.284  1.00  0.00    -0.280 NA 
HETATM    6  C   UNL     1      -9.305  12.863  66.871  1.00  0.00    -0.240 C  
HETATM    7  O   UNL     1     -11.356  16.275  68.054  1.00  0.00    -0.313 OA 
HETATM    8  C   UNL     1     -11.800  13.150  68.506  1.00  0.00    -0.377 C  
HETATM    9  C   UNL     1     -10.933  15.169  67.737  1.00  0.00    -0.306 C  
HETATM   10  C   UNL     1     -10.613  14.083  68.736  1.00  0.00    -0.260 C  
HETATM   11  C   UNL     1     -10.742  14.697  66.300  1.00  0.00    -0.316 C  
HETATM   12  C   UNL     1      -9.234  13.537  68.274  1.00  0.00    -0.195 C  
ENDROOT
BRANCH   1  13
HETATM   13  O   UNL     1      -9.533  10.855  68.975  1.00  0.00    -0.197 OA 
BRANCH  13  14
HETATM   14  C   UNL     1      -8.916   9.965  69.784  1.00  0.00    -0.221 C  
HETATM   15  O   UNL     1      -7.701   9.895  69.920  1.00  0.00    -0.137 OA 
BRANCH  14  16
HETATM   16  C   UNL     1      -9.863   9.021  70.388  1.00  0.00    -0.242 A  
HETATM   17  C   UNL     1     -11.726   8.150  71.396  1.00  0.00    -0.285 A  
HETATM   18  C   UNL     1     -11.159   9.334  70.913  1.00  0.00    -0.374 A  
HETATM   19  N   UNL     1     -10.794   7.150  71.217  1.00  0.00    -0.231 NA 
HETATM   20  C   UNL     1     -11.884  10.536  71.053  1.00  0.00    -0.438 A  
HETATM   21  C   UNL     1      -9.663   7.660  70.633  1.00  0.00    -0.174 A  
HETATM   22  C   UNL     1     -13.157  10.502  71.616  1.00  0.00    -0.551 A  
HETATM   23  C   UNL     1     -13.719   9.302  72.041  1.00  0.00    -0.493 A  
HETATM   24  H   UNL     1     -10.927   6.174  71.481  1.00  0.00     0.000 HD 
HETATM   25  C   UNL     1     -13.010   8.099  71.951  1.00  0.00    -0.356 A  
ENDBRANCH  14  16
ENDBRANCH  13  14
ENDBRANCH   1  13
TORSDOF 3
ENDMDL
MODEL       57
REMARK 921   NORMALIZED FREE ENERGY PREDICTED BY IDOCK:   -6.12 KCAL/MOL
REMARK 922        TOTAL FREE ENERGY PREDICTED BY IDOCK:   -7.83 KCAL/MOL
REMARK 923 INTER-LIGAND FREE ENERGY PREDICTED BY IDOCK:   -7.40 KCAL/MOL
REMARK 924 INTRA-LIGAND FREE ENERGY PREDICTED BY IDOCK:   -0.43 KCAL/MOL
REMARK 927      BINDING AFFINITY PREDICTED BY RF-SCORE:    0.00 PKD
ROOT
HETATM    1  C   UNL     1      -9.894  12.680  68.253  1.00  0.00    -0.227 C  
HETATM    2  C   UNL     1      -9.120  12.311  66.975  1.00  0.00    -0.201 C  
HETATM    3  C   UNL     1     -10.254  14.157  68.140  1.00  0.00    -0.241 C  
HETATM    4  C   UNL     1      -9.745  12.826  65.653  1.00  0.00    -0.120 C  
HETATM    5  N   UNL     1     -10.156  14.269  65.692  1.00  0.00    -0.333 NA 
HETATM    6  C   UNL     1     -11.053  14.458  66.851  1.00  0.00    -0.323 C  
HETATM    7  O   UNL     1     -12.594  13.537  63.105  1.00  0.00    -0.762 OA 
HETATM    8  C   UNL     1     -10.923  11.909  65.279  1.00  0.00    -0.354 C  
HETATM    9  C   UNL     1     -12.008  13.649  64.176  1.00  0.00    -0.443 C  
HETATM   10  C   UNL     1     -12.220  12.714  65.341  1.00  0.00    -0.517 C  
HETATM   11  C   UNL     1     -10.930  14.688  64.466  1.00  0.00    -0.231 C  
HETATM   12  C   UNL     1     -12.361  13.659  66.566  1.00  0.00    -0.412 C  
ENDROOT
BRANCH   1  13
HETATM   13  O   UNL     1     -11.172  12.071  68.525  1.00  0.00    -0.216 OA 
BRANCH  13  14
HETATM   14  C   UNL     1     -11.595  11.670  69.744  1.00  0.00    -0.315 C  
HETATM   15  O   UNL     1     -12.024  12.432  70.602  1.00  0.00    -0.309 OA 
BRANCH  14  16
HETATM   16  C   UNL     1     -11.373  10.236  69.960  1.00  0.00    -0.370 A  
HETATM   17  C   UNL     1     -10.882   8.029  69.594  1.00  0.00    -0.169 A  
HETATM   18  C   UNL     1     -10.975   9.279  68.972  1.00  0.00    -0.060 A  
HETATM   19  N   UNL     1     -11.256   8.202  70.910  1.00  0.00    -0.263 NA 
HETATM   20  C   UNL     1     -10.721   9.363  67.587  1.00  0.00    -0.295 A  
HETATM   21  C   UNL     1     -11.574   9.516  71.141  1.00  0.00    -0.367 A  
HETATM   22  C   UNL     1     -10.336   8.218  66.894  1.00  0.00    -0.391 A  
HETATM   23  C   UNL     1     -10.202   6.998  67.548  1.00  0.00    -0.257 A  
HETATM   24  H   UNL     1     -11.290   7.461  71.610  1.00  0.00     0.000 HD 
HETATM   25  C   UNL     1     -10.484   6.874  68.913  1.00  0.00    -0.225 A  
ENDBRANCH  14  16
ENDBRANCH  13  14
ENDBRANCH   1  13
TORSDOF 3
ENDMDL
MODEL       58
REMARK 921   NORMALIZED FREE ENERGY PREDICTED BY IDOCK:   -6.12 KCAL/MOL
REMARK 922        TOTAL FREE ENERGY PREDICTED BY IDOCK:   -7.82 KCAL/MOL
REMARK 923 INTER-LIGAND FREE ENERGY PREDICTED BY IDOCK:   -7.29 KCAL/MOL
REMARK 924 INTRA-LIGAND FREE ENERGY PREDICTED BY IDOCK:   -0.54 KCAL/MOL
REMARK 927      BINDING AFFINITY PREDICTED BY RF-SCORE:    0.00 PKD
ROOT
HETATM    1  C   UNL     1     -10.798   9.431  70.693  1.00  0.00    -0.283 C  
HETATM    2  C   UNL     1     -11.681   8.400  71.419  1.00  0.00    -0.332 C  
HETATM    3  C   UNL     1      -9.358   9.149  71.107  1.00  0.00    -0.313 C  
HETATM    4  C   UNL     1     -11.166   6.938  71.370  1.00  0.00    -0.259 C  
HETATM    5  N   UNL     1      -9.708   6.793  71.696  1.00  0.00    -0.163 NA 
HETATM    6  C   UNL     1      -8.947   7.689  70.800  1.00  0.00    -0.149 C  
HETATM    7  O   UNL     1      -9.678   3.743  69.728  1.00  0.00    -0.200 OA 
HETATM    8  C   UNL     1     -11.501   6.347  69.990  1.00  0.00    -0.496 C  
HETATM    9  C   UNL     1      -9.668   4.916  70.088  1.00  0.00    -0.213 C  
HETATM   10  C   UNL     1     -10.201   6.049  69.246  1.00  0.00    -0.263 C  
HETATM   11  C   UNL     1      -9.193   5.394  71.456  1.00  0.00    -0.146 C  
HETATM   12  C   UNL     1      -9.106   7.146  69.348  1.00  0.00    -0.145 C  
ENDROOT
BRANCH   1  13
HETATM   13  O   UNL     1     -10.712   9.423  69.254  1.00  0.00    -0.227 OA 
BRANCH  13  14
HETATM   14  C   UNL     1     -11.260  10.352  68.440  1.00  0.00    -0.258 C  
HETATM   15  O   UNL     1     -12.138  11.132  68.788  1.00  0.00    -0.522 OA 
BRANCH  14  16
HETATM   16  C   UNL     1     -10.764  10.240  67.064  1.00  0.00    -0.281 A  
HETATM   17  C   UNL     1     -10.363  10.672  64.851  1.00  0.00    -0.277 A  
HETATM   18  C   UNL     1     -11.015  11.154  65.990  1.00  0.00    -0.189 A  
HETATM   19  N   UNL     1      -9.768   9.478  65.198  1.00  0.00    -0.448 NA 
HETATM   20  C   UNL     1     -11.778  12.336  65.882  1.00  0.00    -0.451 A  
HETATM   21  C   UNL     1     -10.017   9.193  66.516  1.00  0.00    -0.288 A  
HETATM   22  C   UNL     1     -11.815  13.014  64.667  1.00  0.00    -0.422 A  
HETATM   23  C   UNL     1     -11.115  12.540  63.562  1.00  0.00    -0.497 A  
HETATM   24  H   UNL     1      -9.223   8.891  64.566  1.00  0.00     0.000 HD 
HETATM   25  C   UNL     1     -10.381  11.350  63.627  1.00  0.00    -0.463 A  
ENDBRANCH  14  16
ENDBRANCH  13  14
ENDBRANCH   1  13
TORSDOF 3
ENDMDL
MODEL       59
REMARK 921   NORMALIZED FREE ENERGY PREDICTED BY IDOCK:   -6.03 KCAL/MOL
REMARK 922        TOTAL FREE ENERGY PREDICTED BY IDOCK:   -7.72 KCAL/MOL
REMARK 923 INTER-LIGAND FREE ENERGY PREDICTED BY IDOCK:   -6.55 KCAL/MOL
REMARK 924 INTRA-LIGAND FREE ENERGY PREDICTED BY IDOCK:   -1.17 KCAL/MOL
REMARK 927      BINDING AFFINITY PREDICTED BY RF-SCORE:    0.00 PKD
ROOT
HETATM    1  C   UNL     1      -7.824   8.342  67.225  1.00  0.00    -0.105 C  
HETATM    2  C   UNL     1      -7.291   8.804  68.593  1.00  0.00    -0.080 C  
HETATM    3  C   UNL     1      -8.784   7.188  67.493  1.00  0.00    -0.121 C  
HETATM    4  C   UNL     1      -8.367   8.973  69.698  1.00  0.00    -0.125 C  
HETATM    5  N   UNL     1      -9.321   7.819  69.802  1.00  0.00    -0.153 NA 
HETATM    6  C   UNL     1      -9.915   7.595  68.467  1.00  0.00    -0.180 C  
HETATM    7  O   UNL     1     -11.763  10.104  71.214  1.00  0.00    -0.366 OA 
HETATM    8  C   UNL     1      -9.104  10.303  69.465  1.00  0.00    -0.187 C  
HETATM    9  C   UNL     1     -11.043   9.471  70.449  1.00  0.00    -0.277 C  
HETATM   10  C   UNL     1     -10.563  10.010  69.123  1.00  0.00    -0.240 C  
HETATM   11  C   UNL     1     -10.464   8.093  70.749  1.00  0.00    -0.202 C  
HETATM   12  C   UNL     1     -10.795   8.837  68.131  1.00  0.00    -0.038 C  
ENDROOT
BRANCH   1  13
HETATM   13  O   UNL     1      -8.626   9.231  66.423  1.00  0.00    -0.126 OA 
BRANCH  13  14
HETATM   14  C   UNL     1      -8.139  10.122  65.531  1.00  0.00    -0.147 C  
HETATM   15  O   UNL     1      -6.999  10.567  65.565  1.00  0.00    -0.141 OA 
BRANCH  14  16
HETATM   16  C   UNL     1      -9.169  10.579  64.592  1.00  0.00    -0.274 A  
HETATM   17  C   UNL     1     -11.019  11.611  63.720  1.00  0.00    -0.422 A  
HETATM   18  C   UNL     1     -10.283  11.427  64.896  1.00  0.00    -0.330 A  
HETATM   19  N   UNL     1     -10.406  10.865  62.736  1.00  0.00    -0.783 NA 
HETATM   20  C   UNL     1     -10.750  12.024  66.085  1.00  0.00    -0.312 A  
HETATM   21  C   UNL     1      -9.307  10.223  63.247  1.00  0.00    -0.306 A  
HETATM   22  C   UNL     1     -11.893  12.819  66.045  1.00  0.00    -0.495 A  
HETATM   23  C   UNL     1     -12.577  13.028  64.851  1.00  0.00    -0.490 A  
HETATM   24  H   UNL     1     -10.723  10.800  61.769  1.00  0.00     0.000 HD 
HETATM   25  C   UNL     1     -12.160  12.418  63.663  1.00  0.00    -0.648 A  
ENDBRANCH  14  16
ENDBRANCH  13  14
ENDBRANCH   1  13
TORSDOF 3
ENDMDL
MODEL       60
REMARK 921   NORMALIZED FREE ENERGY PREDICTED BY IDOCK:   -6.01 KCAL/MOL
REMARK 922        TOTAL FREE ENERGY PREDICTED BY IDOCK:   -7.69 KCAL/MOL
REMARK 923 INTER-LIGAND FREE ENERGY PREDICTED BY IDOCK:   -6.64 KCAL/MOL
REMARK 924 INTRA-LIGAND FREE ENERGY PREDICTED BY IDOCK:   -1.05 KCAL/MOL
REMARK 927      BINDING AFFINITY PREDICTED BY RF-SCORE:    0.00 PKD
ROOT
HETATM    1  C   UNL     1     -10.995   5.288  72.393  1.00  0.00    -0.212 C  
HETATM    2  C   UNL     1      -9.774   5.045  71.488  1.00  0.00    -0.227 C  
HETATM    3  C   UNL     1     -10.494   5.243  73.832  1.00  0.00    -0.317 C  
HETATM    4  C   UNL     1      -8.506   5.856  71.860  1.00  0.00    -0.126 C  
HETATM    5  N   UNL     1      -8.166   5.824  73.322  1.00  0.00    -0.116 NA 
HETATM    6  C   UNL     1      -9.358   6.263  74.078  1.00  0.00    -0.147 C  
HETATM    7  O   UNL     1      -6.471   9.004  72.893  1.00  0.00    -0.308 OA 
HETATM    8  C   UNL     1      -8.677   7.297  71.348  1.00  0.00    -0.126 C  
HETATM    9  C   UNL     1      -7.316   8.129  73.043  1.00  0.00    -0.123 C  
HETATM   10  C   UNL     1      -8.735   8.247  72.543  1.00  0.00    -0.284 C  
HETATM   11  C   UNL     1      -7.047   6.770  73.681  1.00  0.00    -0.075 C  
HETATM   12  C   UNL     1      -9.601   7.765  73.739  1.00  0.00    -0.200 C  
ENDROOT
BRANCH   1  13
HETATM   13  O   UNL     1     -11.690   6.550  72.347  1.00  0.00    -0.281 OA 
BRANCH  13  14
HETATM   14  C   UNL     1     -12.165   7.133  71.225  1.00  0.00    -0.365 C  
HETATM   15  O   UNL     1     -12.144   6.605  70.120  1.00  0.00    -0.323 OA 
BRANCH  14  16
HETATM   16  C   UNL     1     -12.602   8.513  71.464  1.00  0.00    -0.348 A  
HETATM   17  C   UNL     1     -12.810  10.789  71.312  1.00  0.00    -0.438 A  
HETATM   18  C   UNL     1     -12.146   9.682  70.772  1.00  0.00    -0.328 A  
HETATM   19  N   UNL     1     -13.612  10.324  72.332  1.00  0.00    -0.554 NA 
HETATM   20  C   UNL     1     -11.194   9.897  69.754  1.00  0.00    -0.279 A  
HETATM   21  C   UNL     1     -13.483   8.964  72.451  1.00  0.00    -0.450 A  
HETATM   22  C   UNL     1     -10.982  11.189  69.281  1.00  0.00    -0.300 A  
HETATM   23  C   UNL     1     -11.693  12.266  69.800  1.00  0.00    -0.368 A  
HETATM   24  H   UNL     1     -14.214  10.907  72.914  1.00  0.00     0.000 HD 
HETATM   25  C   UNL     1     -12.616  12.091  70.837  1.00  0.00    -0.347 A  
ENDBRANCH  14  16
ENDBRANCH  13  14
ENDBRANCH   1  13
TORSDOF 3
ENDMDL
MODEL       61
REMARK 921   NORMALIZED FREE ENERGY PREDICTED BY IDOCK:   -6.00 KCAL/MOL
REMARK 922        TOTAL FREE ENERGY PREDICTED BY IDOCK:   -7.68 KCAL/MOL
REMARK 923 INTER-LIGAND FREE ENERGY PREDICTED BY IDOCK:   -7.10 KCAL/MOL
REMARK 924 INTRA-LIGAND FREE ENERGY PREDICTED BY IDOCK:   -0.58 KCAL/MOL
REMARK 927      BINDING AFFINITY PREDICTED BY RF-SCORE:    0.00 PKD
ROOT
HETATM    1  C   UNL     1      -9.832   8.982  71.262  1.00  0.00    -0.306 C  
HETATM    2  C   UNL     1     -10.138   7.489  71.469  1.00  0.00    -0.201 C  
HETATM    3  C   UNL     1      -8.555   9.061  70.434  1.00  0.00    -0.215 C  
HETATM    4  C   UNL     1     -10.021   6.609  70.197  1.00  0.00    -0.173 C  
HETATM    5  N   UNL     1      -8.769   6.845  69.403  1.00  0.00    -0.133 NA 
HETATM    6  C   UNL     1      -8.686   8.289  69.099  1.00  0.00    -0.143 C  
HETATM    7  O   UNL     1     -10.539   5.671  66.459  1.00  0.00    -0.269 OA 
HETATM    8  C   UNL     1     -11.284   6.814  69.342  1.00  0.00    -0.288 C  
HETATM    9  C   UNL     1     -10.110   6.351  67.385  1.00  0.00    -0.158 C  
HETATM   10  C   UNL     1     -10.890   7.475  68.023  1.00  0.00    -0.097 C  
HETATM   11  C   UNL     1      -8.773   6.119  68.080  1.00  0.00    -0.113 C  
HETATM   12  C   UNL     1      -9.863   8.634  68.137  1.00  0.00    -0.192 C  
ENDROOT
BRANCH   1  13
HETATM   13  O   UNL     1     -10.740   9.809  70.508  1.00  0.00    -0.275 OA 
BRANCH  13  14
HETATM   14  C   UNL     1     -11.788  10.485  71.030  1.00  0.00    -0.340 C  
HETATM   15  O   UNL     1     -12.586  10.000  71.822  1.00  0.00    -0.384 OA 
BRANCH  14  16
HETATM   16  C   UNL     1     -11.922  11.825  70.448  1.00  0.00    -0.422 A  
HETATM   17  C   UNL     1     -12.440  14.040  70.177  1.00  0.00    -0.319 A  
HETATM   18  C   UNL     1     -12.510  12.971  71.077  1.00  0.00    -0.385 A  
HETATM   19  N   UNL     1     -11.871  13.558  69.017  1.00  0.00    -0.326 NA 
HETATM   20  C   UNL     1     -13.132  13.180  72.325  1.00  0.00    -0.458 A  
HETATM   21  C   UNL     1     -11.575  12.227  69.156  1.00  0.00    -0.318 A  
HETATM   22  C   UNL     1     -13.607  14.449  72.646  1.00  0.00    -0.589 A  
HETATM   23  C   UNL     1     -13.478  15.507  71.753  1.00  0.00    -0.576 A  
HETATM   24  H   UNL     1     -11.696  14.112  68.178  1.00  0.00     0.000 HD 
HETATM   25  C   UNL     1     -12.901  15.323  70.492  1.00  0.00    -0.421 A  
ENDBRANCH  14  16
ENDBRANCH  13  14
ENDBRANCH   1  13
TORSDOF 3
ENDMDL
MODEL       62
REMARK 921   NORMALIZED FREE ENERGY PREDICTED BY IDOCK:   -5.98 KCAL/MOL
REMARK 922        TOTAL FREE ENERGY PREDICTED BY IDOCK:   -7.65 KCAL/MOL
REMARK 923 INTER-LIGAND FREE ENERGY PREDICTED BY IDOCK:   -6.87 KCAL/MOL
REMARK 924 INTRA-LIGAND FREE ENERGY PREDICTED BY IDOCK:   -0.79 KCAL/MOL
REMARK 927      BINDING AFFINITY PREDICTED BY RF-SCORE:    0.00 PKD
ROOT
HETATM    1  C   UNL     1     -10.399  18.048  68.420  1.00  0.00    -0.368 C  
HETATM    2  C   UNL     1      -9.351  18.906  69.149  1.00  0.00    -0.150 C  
HETATM    3  C   UNL     1     -10.626  18.691  67.057  1.00  0.00    -0.448 C  
HETATM    4  C   UNL     1      -8.115  19.303  68.299  1.00  0.00    -0.332 C  
HETATM    5  N   UNL     1      -8.456  19.829  66.935  1.00  0.00    -0.306 NA 
HETATM    6  C   UNL     1      -9.308  18.828  66.258  1.00  0.00    -0.262 C  
HETATM    7  O   UNL     1      -5.178  18.743  65.813  1.00  0.00    -0.133 OA 
HETATM    8  C   UNL     1      -7.165  18.095  68.222  1.00  0.00    -0.257 C  
HETATM    9  C   UNL     1      -6.357  18.783  66.150  1.00  0.00    -0.194 C  
HETATM   10  C   UNL     1      -7.084  17.617  66.774  1.00  0.00    -0.239 C  
HETATM   11  C   UNL     1      -7.238  20.025  66.066  1.00  0.00    -0.301 C  
HETATM   12  C   UNL     1      -8.436  17.560  66.012  1.00  0.00    -0.099 C  
ENDROOT
BRANCH   1  13
HETATM   13  O   UNL     1     -10.099  16.682  68.071  1.00  0.00    -0.247 OA 
BRANCH  13  14
HETATM   14  C   UNL     1     -11.015  15.698  67.931  1.00  0.00    -0.319 C  
HETATM   15  O   UNL     1     -11.751  15.318  68.833  1.00  0.00    -0.322 OA 
BRANCH  14  16
HETATM   16  C   UNL     1     -10.944  15.064  66.610  1.00  0.00    -0.325 A  
HETATM   17  C   UNL     1     -10.571  13.536  64.945  1.00  0.00    -0.397 A  
HETATM   18  C   UNL     1     -10.475  13.740  66.326  1.00  0.00    -0.291 A  
HETATM   19  N   UNL     1     -11.039  14.709  64.392  1.00  0.00    -0.629 NA 
HETATM   20  C   UNL     1      -9.939  12.709  67.125  1.00  0.00    -0.217 A  
HETATM   21  C   UNL     1     -11.247  15.642  65.375  1.00  0.00    -0.184 A  
HETATM   22  C   UNL     1      -9.574  11.505  66.529  1.00  0.00    -0.225 A  
HETATM   23  C   UNL     1      -9.727  11.309  65.160  1.00  0.00    -0.285 A  
HETATM   24  H   UNL     1     -11.205  14.860  63.397  1.00  0.00     0.000 HD 
HETATM   25  C   UNL     1     -10.220  12.327  64.335  1.00  0.00    -0.341 A  
ENDBRANCH  14  16
ENDBRANCH  13  14
ENDBRANCH   1  13
TORSDOF 3
ENDMDL
MODEL       63
REMARK 921   NORMALIZED FREE ENERGY PREDICTED BY IDOCK:   -5.97 KCAL/MOL
REMARK 922        TOTAL FREE ENERGY PREDICTED BY IDOCK:   -7.65 KCAL/MOL
REMARK 923 INTER-LIGAND FREE ENERGY PREDICTED BY IDOCK:   -6.71 KCAL/MOL
REMARK 924 INTRA-LIGAND FREE ENERGY PREDICTED BY IDOCK:   -0.94 KCAL/MOL
REMARK 927      BINDING AFFINITY PREDICTED BY RF-SCORE:    0.00 PKD
ROOT
HETATM    1  C   UNL     1     -11.453  11.899  67.408  1.00  0.00    -0.323 C  
HETATM    2  C   UNL     1     -11.793  13.167  68.210  1.00  0.00    -0.384 C  
HETATM    3  C   UNL     1     -11.820  12.184  65.956  1.00  0.00    -0.328 C  
HETATM    4  C   UNL     1     -11.322  14.500  67.571  1.00  0.00    -0.340 C  
HETATM    5  N   UNL     1     -11.649  14.626  66.112  1.00  0.00    -0.355 NA 
HETATM    6  C   UNL     1     -11.100  13.443  65.416  1.00  0.00    -0.287 C  
HETATM    7  O   UNL     1      -8.848  16.913  65.791  1.00  0.00    -0.522 OA 
HETATM    8  C   UNL     1      -9.815  14.663  67.833  1.00  0.00    -0.217 C  
HETATM    9  C   UNL     1      -9.548  15.910  65.886  1.00  0.00    -0.343 C  
HETATM   10  C   UNL     1      -9.070  14.617  66.501  1.00  0.00    -0.267 C  
HETATM   11  C   UNL     1     -11.015  15.840  65.476  1.00  0.00    -0.268 C  
HETATM   12  C   UNL     1      -9.547  13.524  65.506  1.00  0.00     0.034 C  
ENDROOT
BRANCH   1  13
HETATM   13  O   UNL     1     -10.085  11.458  67.299  1.00  0.00    -0.188 OA 
BRANCH  13  14
HETATM   14  C   UNL     1      -9.316  11.053  68.334  1.00  0.00    -0.179 C  
HETATM   15  O   UNL     1      -8.309  11.642  68.707  1.00  0.00    -0.128 OA 
BRANCH  14  16
HETATM   16  C   UNL     1      -9.763   9.767  68.881  1.00  0.00    -0.172 A  
HETATM   17  C   UNL     1     -10.863   8.198  70.136  1.00  0.00    -0.241 A  
HETATM   18  C   UNL     1     -10.738   9.574  69.913  1.00  0.00    -0.268 A  
HETATM   19  N   UNL     1      -9.962   7.568  69.304  1.00  0.00    -0.175 NA 
HETATM   20  C   UNL     1     -11.501  10.457  70.704  1.00  0.00    -0.438 A  
HETATM   21  C   UNL     1      -9.279   8.496  68.560  1.00  0.00    -0.135 A  
HETATM   22  C   UNL     1     -12.389   9.938  71.642  1.00  0.00    -0.496 A  
HETATM   23  C   UNL     1     -12.531   8.564  71.809  1.00  0.00    -0.388 A  
HETATM   24  H   UNL     1      -9.824   6.559  69.250  1.00  0.00     0.000 HD 
HETATM   25  C   UNL     1     -11.761   7.663  71.065  1.00  0.00    -0.306 A  
ENDBRANCH  14  16
ENDBRANCH  13  14
ENDBRANCH   1  13
TORSDOF 3
ENDMDL
MODEL       64
REMARK 921   NORMALIZED FREE ENERGY PREDICTED BY IDOCK:   -5.97 KCAL/MOL
REMARK 922        TOTAL FREE ENERGY PREDICTED BY IDOCK:   -7.65 KCAL/MOL
REMARK 923 INTER-LIGAND FREE ENERGY PREDICTED BY IDOCK:   -6.93 KCAL/MOL
REMARK 924 INTRA-LIGAND FREE ENERGY PREDICTED BY IDOCK:   -0.72 KCAL/MOL
REMARK 927      BINDING AFFINITY PREDICTED BY RF-SCORE:    0.00 PKD
ROOT
HETATM    1  C   UNL     1     -11.392  12.239  68.658  1.00  0.00    -0.291 C  
HETATM    2  C   UNL     1     -11.441  13.650  69.271  1.00  0.00    -0.344 C  
HETATM    3  C   UNL     1     -11.988  12.345  67.259  1.00  0.00    -0.246 C  
HETATM    4  C   UNL     1     -10.956  14.792  68.340  1.00  0.00    -0.252 C  
HETATM    5  N   UNL     1     -11.530  14.735  66.954  1.00  0.00    -0.358 NA 
HETATM    6  C   UNL     1     -11.250  13.396  66.396  1.00  0.00    -0.304 C  
HETATM    7  O   UNL     1      -8.608  16.542  65.782  1.00  0.00    -0.442 OA 
HETATM    8  C   UNL     1      -9.417  14.786  68.318  1.00  0.00    -0.207 C  
HETATM    9  C   UNL     1      -9.382  15.671  66.165  1.00  0.00    -0.347 C  
HETATM   10  C   UNL     1      -8.940  14.435  66.910  1.00  0.00    -0.263 C  
HETATM   11  C   UNL     1     -10.899  15.739  66.020  1.00  0.00    -0.255 C  
HETATM   12  C   UNL     1      -9.707  13.277  66.214  1.00  0.00    -0.274 C  
ENDROOT
BRANCH   1  13
HETATM   13  O   UNL     1     -10.123  11.604  68.405  1.00  0.00    -0.195 OA 
BRANCH  13  14
HETATM   14  C   UNL     1      -9.923  10.269  68.343  1.00  0.00    -0.157 C  
HETATM   15  O   UNL     1     -10.194   9.584  67.364  1.00  0.00    -0.197 OA 
BRANCH  14  16
HETATM   16  C   UNL     1      -9.454   9.722  69.621  1.00  0.00    -0.237 A  
HETATM   17  C   UNL     1      -9.424   8.743  71.691  1.00  0.00    -0.288 A  
HETATM   18  C   UNL     1     -10.264   9.125  70.640  1.00  0.00    -0.306 A  
HETATM   19  N   UNL     1      -8.146   9.134  71.352  1.00  0.00    -0.338 NA 
HETATM   20  C   UNL     1     -11.652   8.910  70.773  1.00  0.00    -0.301 A  
HETATM   21  C   UNL     1      -8.150   9.742  70.123  1.00  0.00    -0.182 A  
HETATM   22  C   UNL     1     -12.137   8.279  71.916  1.00  0.00    -0.382 A  
HETATM   23  C   UNL     1     -11.273   7.864  72.924  1.00  0.00    -0.429 A  
HETATM   24  H   UNL     1      -7.318   8.991  71.931  1.00  0.00     0.000 HD 
HETATM   25  C   UNL     1      -9.896   8.097  72.838  1.00  0.00    -0.339 A  
ENDBRANCH  14  16
ENDBRANCH  13  14
ENDBRANCH   1  13
TORSDOF 3
ENDMDL
MODEL       65
REMARK 921   NORMALIZED FREE ENERGY PREDICTED BY IDOCK:   -5.95 KCAL/MOL
REMARK 922        TOTAL FREE ENERGY PREDICTED BY IDOCK:   -7.63 KCAL/MOL
REMARK 923 INTER-LIGAND FREE ENERGY PREDICTED BY IDOCK:   -6.72 KCAL/MOL
REMARK 924 INTRA-LIGAND FREE ENERGY PREDICTED BY IDOCK:   -0.91 KCAL/MOL
REMARK 927      BINDING AFFINITY PREDICTED BY RF-SCORE:    0.00 PKD
ROOT
HETATM    1  C   UNL     1      -9.054  15.175  69.139  1.00  0.00    -0.215 C  
HETATM    2  C   UNL     1      -7.975  16.272  69.123  1.00  0.00    -0.221 C  
HETATM    3  C   UNL     1     -10.351  15.837  69.587  1.00  0.00    -0.290 C  
HETATM    4  C   UNL     1      -8.400  17.605  68.453  1.00  0.00    -0.290 C  
HETATM    5  N   UNL     1      -9.742  18.111  68.895  1.00  0.00    -0.307 NA 
HETATM    6  C   UNL     1     -10.730  17.032  68.681  1.00  0.00    -0.333 C  
HETATM    7  O   UNL     1     -10.009  19.863  65.727  1.00  0.00    -0.408 OA 
HETATM    8  C   UNL     1      -8.333  17.429  66.926  1.00  0.00    -0.260 C  
HETATM    9  C   UNL     1     -10.013  19.009  66.607  1.00  0.00    -0.374 C  
HETATM   10  C   UNL     1      -9.742  17.547  66.349  1.00  0.00    -0.299 C  
HETATM   11  C   UNL     1     -10.211  19.299  68.091  1.00  0.00    -0.418 C  
HETATM   12  C   UNL     1     -10.854  16.808  67.144  1.00  0.00    -0.102 C  
ENDROOT
BRANCH   1  13
HETATM   13  O   UNL     1      -9.446  14.528  67.913  1.00  0.00    -0.204 OA 
BRANCH  13  14
HETATM   14  C   UNL     1      -8.665  13.690  67.194  1.00  0.00    -0.216 C  
HETATM   15  O   UNL     1      -7.449  13.803  67.101  1.00  0.00    -0.092 OA 
BRANCH  14  16
HETATM   16  C   UNL     1      -9.456  12.706  66.447  1.00  0.00    -0.231 A  
HETATM   17  C   UNL     1     -10.948  11.768  64.984  1.00  0.00    -0.300 A  
HETATM   18  C   UNL     1     -10.426  12.987  65.431  1.00  0.00    -0.308 A  
HETATM   19  N   UNL     1     -10.354  10.773  65.731  1.00  0.00    -0.248 NA 
HETATM   20  C   UNL     1     -10.933  14.181  64.879  1.00  0.00    -0.405 A  
HETATM   21  C   UNL     1      -9.472  11.320  66.628  1.00  0.00    -0.186 A  
HETATM   22  C   UNL     1     -11.893  14.113  63.873  1.00  0.00    -0.211 A  
HETATM   23  C   UNL     1     -12.358  12.886  63.411  1.00  0.00    -0.498 A  
HETATM   24  H   UNL     1     -10.543   9.776  65.631  1.00  0.00     0.000 HD 
HETATM   25  C   UNL     1     -11.903  11.685  63.965  1.00  0.00    -0.307 A  
ENDBRANCH  14  16
ENDBRANCH  13  14
ENDBRANCH   1  13
TORSDOF 3
ENDMDL
MODEL       66
REMARK 921   NORMALIZED FREE ENERGY PREDICTED BY IDOCK:   -5.95 KCAL/MOL
REMARK 922        TOTAL FREE ENERGY PREDICTED BY IDOCK:   -7.62 KCAL/MOL
REMARK 923 INTER-LIGAND FREE ENERGY PREDICTED BY IDOCK:   -6.77 KCAL/MOL
REMARK 924 INTRA-LIGAND FREE ENERGY PREDICTED BY IDOCK:   -0.86 KCAL/MOL
REMARK 927      BINDING AFFINITY PREDICTED BY RF-SCORE:    0.00 PKD
ROOT
HETATM    1  C   UNL     1     -11.523   7.444  70.691  1.00  0.00    -0.282 C  
HETATM    2  C   UNL     1     -10.134   7.401  70.030  1.00  0.00    -0.191 C  
HETATM    3  C   UNL     1     -11.599   6.251  71.637  1.00  0.00    -0.353 C  
HETATM    4  C   UNL     1      -8.950   7.143  70.998  1.00  0.00    -0.150 C  
HETATM    5  N   UNL     1      -9.179   6.008  71.954  1.00  0.00    -0.151 NA 
HETATM    6  C   UNL     1     -10.447   6.261  72.669  1.00  0.00    -0.211 C  
HETATM    7  O   UNL     1      -6.834   7.589  74.229  1.00  0.00    -0.093 OA 
HETATM    8  C   UNL     1      -8.627   8.453  71.738  1.00  0.00    -0.234 C  
HETATM    9  C   UNL     1      -7.835   7.286  73.590  1.00  0.00    -0.107 C  
HETATM   10  C   UNL     1      -8.920   8.270  73.225  1.00  0.00    -0.283 C  
HETATM   11  C   UNL     1      -8.099   5.903  73.003  1.00  0.00    -0.117 C  
HETATM   12  C   UNL     1     -10.239   7.523  73.561  1.00  0.00    -0.380 C  
ENDROOT
BRANCH   1  13
HETATM   13  O   UNL     1     -11.881   8.544  71.551  1.00  0.00    -0.273 OA 
BRANCH  13  14
HETATM   14  C   UNL     1     -13.045   9.228  71.491  1.00  0.00    -0.363 C  
HETATM   15  O   UNL     1     -14.149   8.706  71.582  1.00  0.00    -0.403 OA 
BRANCH  14  16
HETATM   16  C   UNL     1     -12.833  10.648  71.189  1.00  0.00    -0.518 A  
HETATM   17  C   UNL     1     -12.156  12.578  70.159  1.00  0.00    -0.292 A  
HETATM   18  C   UNL     1     -12.128  11.183  70.063  1.00  0.00    -0.437 A  
HETATM   19  N   UNL     1     -12.815  12.892  71.329  1.00  0.00    -0.329 NA 
HETATM   20  C   UNL     1     -11.433  10.595  68.985  1.00  0.00    -0.342 A  
HETATM   21  C   UNL     1     -13.208  11.745  71.969  1.00  0.00    -0.355 A  
HETATM   22  C   UNL     1     -10.845  11.414  68.025  1.00  0.00    -0.264 A  
HETATM   23  C   UNL     1     -10.931  12.800  68.118  1.00  0.00    -0.273 A  
HETATM   24  H   UNL     1     -12.985  13.839  71.668  1.00  0.00     0.000 HD 
HETATM   25  C   UNL     1     -11.581  13.413  69.195  1.00  0.00    -0.365 A  
ENDBRANCH  14  16
ENDBRANCH  13  14
ENDBRANCH   1  13
TORSDOF 3
ENDMDL
MODEL       67
REMARK 921   NORMALIZED FREE ENERGY PREDICTED BY IDOCK:   -5.95 KCAL/MOL
REMARK 922        TOTAL FREE ENERGY PREDICTED BY IDOCK:   -7.62 KCAL/MOL
REMARK 923 INTER-LIGAND FREE ENERGY PREDICTED BY IDOCK:   -7.16 KCAL/MOL
REMARK 924 INTRA-LIGAND FREE ENERGY PREDICTED BY IDOCK:   -0.46 KCAL/MOL
REMARK 927      BINDING AFFINITY PREDICTED BY RF-SCORE:    0.00 PKD
ROOT
HETATM    1  C   UNL     1     -10.724  12.867  68.591  1.00  0.00    -0.247 C  
HETATM    2  C   UNL     1     -11.566  11.639  68.201  1.00  0.00    -0.389 C  
HETATM    3  C   UNL     1      -9.272  12.523  68.283  1.00  0.00    -0.186 C  
HETATM    4  C   UNL     1     -11.225  11.016  66.822  1.00  0.00    -0.089 C  
HETATM    5  N   UNL     1      -9.756  10.817  66.588  1.00  0.00    -0.185 NA 
HETATM    6  C   UNL     1      -9.078  12.113  66.804  1.00  0.00    -0.205 C  
HETATM    7  O   UNL     1     -10.403  11.019  63.022  1.00  0.00    -0.278 OA 
HETATM    8  C   UNL     1     -11.864  11.882  65.722  1.00  0.00    -0.109 C  
HETATM    9  C   UNL     1     -10.204  11.287  64.202  1.00  0.00    -0.335 C  
HETATM   10  C   UNL     1     -10.758  12.515  64.881  1.00  0.00    -0.327 C  
HETATM   11  C   UNL     1      -9.444  10.391  65.174  1.00  0.00    -0.249 C  
HETATM   12  C   UNL     1      -9.553  13.083  65.680  1.00  0.00    -0.025 C  
ENDROOT
BRANCH   1  13
HETATM   13  O   UNL     1     -10.900  14.115  67.893  1.00  0.00    -0.240 OA 
BRANCH  13  14
HETATM   14  C   UNL     1     -10.568  15.331  68.381  1.00  0.00    -0.246 C  
HETATM   15  O   UNL     1     -10.377  15.559  69.569  1.00  0.00    -0.234 OA 
BRANCH  14  16
HETATM   16  C   UNL     1     -10.577  16.364  67.340  1.00  0.00    -0.306 A  
HETATM   17  C   UNL     1     -10.449  18.391  66.282  1.00  0.00    -0.393 A  
HETATM   18  C   UNL     1     -10.345  17.765  67.528  1.00  0.00    -0.371 A  
HETATM   19  N   UNL     1     -10.780  17.417  65.364  1.00  0.00    -0.576 NA 
HETATM   20  C   UNL     1     -10.091  18.561  68.664  1.00  0.00    -0.406 A  
HETATM   21  C   UNL     1     -10.881  16.199  65.986  1.00  0.00    -0.154 A  
HETATM   22  C   UNL     1      -9.900  19.932  68.507  1.00  0.00    -0.463 A  
HETATM   23  C   UNL     1      -9.959  20.522  67.248  1.00  0.00    -0.528 A  
HETATM   24  H   UNL     1     -10.927  17.578  64.368  1.00  0.00     0.000 HD 
HETATM   25  C   UNL     1     -10.246  19.764  66.107  1.00  0.00    -0.618 A  
ENDBRANCH  14  16
ENDBRANCH  13  14
ENDBRANCH   1  13
TORSDOF 3
ENDMDL
MODEL       68
REMARK 921   NORMALIZED FREE ENERGY PREDICTED BY IDOCK:   -5.93 KCAL/MOL
REMARK 922        TOTAL FREE ENERGY PREDICTED BY IDOCK:   -7.60 KCAL/MOL
REMARK 923 INTER-LIGAND FREE ENERGY PREDICTED BY IDOCK:   -6.14 KCAL/MOL
REMARK 924 INTRA-LIGAND FREE ENERGY PREDICTED BY IDOCK:   -1.46 KCAL/MOL
REMARK 927      BINDING AFFINITY PREDICTED BY RF-SCORE:    0.00 PKD
ROOT
HETATM    1  C   UNL     1      -8.106   5.820  71.230  1.00  0.00    -0.114 C  
HETATM    2  C   UNL     1      -9.333   4.895  71.137  1.00  0.00    -0.204 C  
HETATM    3  C   UNL     1      -7.219   5.498  70.033  1.00  0.00    -0.068 C  
HETATM    4  C   UNL     1      -9.984   4.802  69.732  1.00  0.00    -0.238 C  
HETATM    5  N   UNL     1      -9.002   4.586  68.617  1.00  0.00    -0.106 NA 
HETATM    6  C   UNL     1      -7.980   5.651  68.695  1.00  0.00    -0.100 C  
HETATM    7  O   UNL     1     -11.381   6.144  66.361  1.00  0.00     0.073 OA 
HETATM    8  C   UNL     1     -10.837   6.061  69.502  1.00  0.00    -0.439 C  
HETATM    9  C   UNL     1     -10.511   5.939  67.201  1.00  0.00    -0.272 C  
HETATM   10  C   UNL     1     -10.234   6.870  68.356  1.00  0.00    -0.191 C  
HETATM   11  C   UNL     1      -9.639   4.689  67.253  1.00  0.00    -0.175 C  
HETATM   12  C   UNL     1      -8.686   7.002  68.374  1.00  0.00    -0.125 C  
ENDROOT
BRANCH   1  13
HETATM   13  O   UNL     1      -8.267   7.248  71.120  1.00  0.00    -0.106 OA 
BRANCH  13  14
HETATM   14  C   UNL     1      -8.584   8.074  72.142  1.00  0.00    -0.155 C  
HETATM   15  O   UNL     1      -7.763   8.534  72.926  1.00  0.00    -0.308 OA 
BRANCH  14  16
HETATM   16  C   UNL     1     -10.033   8.260  72.271  1.00  0.00    -0.366 A  
HETATM   17  C   UNL     1     -12.164   9.041  71.965  1.00  0.00    -0.375 A  
HETATM   18  C   UNL     1     -10.842   9.183  71.532  1.00  0.00    -0.436 A  
HETATM   19  N   UNL     1     -12.164   8.096  72.969  1.00  0.00    -0.625 NA 
HETATM   20  C   UNL     1     -10.553  10.158  70.554  1.00  0.00    -0.243 A  
HETATM   21  C   UNL     1     -10.890   7.633  73.179  1.00  0.00    -0.382 A  
HETATM   22  C   UNL     1     -11.593  10.910  70.013  1.00  0.00    -0.424 A  
HETATM   23  C   UNL     1     -12.907  10.712  70.425  1.00  0.00    -0.277 A  
HETATM   24  H   UNL     1     -12.990   7.787  73.480  1.00  0.00     0.000 HD 
HETATM   25  C   UNL     1     -13.220   9.780  71.420  1.00  0.00    -0.482 A  
ENDBRANCH  14  16
ENDBRANCH  13  14
ENDBRANCH   1  13
TORSDOF 3
ENDMDL
MODEL       69
REMARK 921   NORMALIZED FREE ENERGY PREDICTED BY IDOCK:   -5.92 KCAL/MOL
REMARK 922        TOTAL FREE ENERGY PREDICTED BY IDOCK:   -7.59 KCAL/MOL
REMARK 923 INTER-LIGAND FREE ENERGY PREDICTED BY IDOCK:   -6.85 KCAL/MOL
REMARK 924 INTRA-LIGAND FREE ENERGY PREDICTED BY IDOCK:   -0.74 KCAL/MOL
REMARK 927      BINDING AFFINITY PREDICTED BY RF-SCORE:    0.00 PKD
ROOT
HETATM    1  C   UNL     1      -8.070  15.836  68.264  1.00  0.00    -0.142 C  
HETATM    2  C   UNL     1      -7.532  16.083  66.844  1.00  0.00    -0.253 C  
HETATM    3  C   UNL     1      -7.009  16.346  69.233  1.00  0.00    -0.223 C  
HETATM    4  C   UNL     1      -6.920  17.488  66.604  1.00  0.00    -0.229 C  
HETATM    5  N   UNL     1      -5.966  17.929  67.676  1.00  0.00    -0.151 NA 
HETATM    6  C   UNL     1      -6.662  17.832  68.976  1.00  0.00    -0.246 C  
HETATM    7  O   UNL     1      -6.732  21.366  66.794  1.00  0.00    -0.439 OA 
HETATM    8  C   UNL     1      -8.067  18.496  66.413  1.00  0.00    -0.295 C  
HETATM    9  C   UNL     1      -6.766  20.231  67.258  1.00  0.00    -0.233 C  
HETATM   10  C   UNL     1      -8.048  19.497  67.566  1.00  0.00    -0.325 C  
HETATM   11  C   UNL     1      -5.536  19.367  67.516  1.00  0.00    -0.176 C  
HETATM   12  C   UNL     1      -7.808  18.889  68.975  1.00  0.00    -0.241 C  
ENDROOT
BRANCH   1  13
HETATM   13  O   UNL     1      -9.256  16.519  68.717  1.00  0.00    -0.234 OA 
BRANCH  13  14
HETATM   14  C   UNL     1     -10.420  16.587  68.034  1.00  0.00    -0.313 C  
HETATM   15  O   UNL     1     -10.950  17.636  67.691  1.00  0.00    -0.296 OA 
BRANCH  14  16
HETATM   16  C   UNL     1     -11.031  15.264  67.857  1.00  0.00    -0.306 A  
HETATM   17  C   UNL     1     -11.653  13.258  66.944  1.00  0.00    -0.364 A  
HETATM   18  C   UNL     1     -10.917  14.423  66.703  1.00  0.00    -0.318 A  
HETATM   19  N   UNL     1     -12.239  13.397  68.185  1.00  0.00    -0.228 NA 
HETATM   20  C   UNL     1     -10.278  14.570  65.454  1.00  0.00    -0.415 A  
HETATM   21  C   UNL     1     -11.893  14.604  68.736  1.00  0.00    -0.313 A  
HETATM   22  C   UNL     1     -10.353  13.537  64.524  1.00  0.00    -0.381 A  
HETATM   23  C   UNL     1     -11.050  12.367  64.809  1.00  0.00    -0.345 A  
HETATM   24  H   UNL     1     -12.841  12.704  68.628  1.00  0.00     0.000 HD 
HETATM   25  C   UNL     1     -11.726  12.207  66.024  1.00  0.00    -0.388 A  
ENDBRANCH  14  16
ENDBRANCH  13  14
ENDBRANCH   1  13
TORSDOF 3
ENDMDL
MODEL       70
REMARK 921   NORMALIZED FREE ENERGY PREDICTED BY IDOCK:   -5.92 KCAL/MOL
REMARK 922        TOTAL FREE ENERGY PREDICTED BY IDOCK:   -7.59 KCAL/MOL
REMARK 923 INTER-LIGAND FREE ENERGY PREDICTED BY IDOCK:   -6.83 KCAL/MOL
REMARK 924 INTRA-LIGAND FREE ENERGY PREDICTED BY IDOCK:   -0.76 KCAL/MOL
REMARK 927      BINDING AFFINITY PREDICTED BY RF-SCORE:    0.00 PKD
ROOT
HETATM    1  C   UNL     1      -9.913   6.943  67.896  1.00  0.00    -0.147 C  
HETATM    2  C   UNL     1      -8.667   6.591  68.729  1.00  0.00    -0.123 C  
HETATM    3  C   UNL     1     -11.012   5.974  68.314  1.00  0.00    -0.347 C  
HETATM    4  C   UNL     1      -8.927   6.368  70.242  1.00  0.00    -0.154 C  
HETATM    5  N   UNL     1     -10.099   5.478  70.536  1.00  0.00    -0.210 NA 
HETATM    6  C   UNL     1     -11.279   6.028  69.837  1.00  0.00    -0.368 C  
HETATM    7  O   UNL     1     -10.422   7.140  73.747  1.00  0.00    -0.371 OA 
HETATM    8  C   UNL     1      -9.071   7.741  70.922  1.00  0.00    -0.150 C  
HETATM    9  C   UNL     1     -10.473   6.855  72.555  1.00  0.00    -0.214 C  
HETATM   10  C   UNL     1     -10.495   7.887  71.454  1.00  0.00    -0.242 C  
HETATM   11  C   UNL     1     -10.442   5.433  72.006  1.00  0.00    -0.221 C  
HETATM   12  C   UNL     1     -11.619   7.398  70.499  1.00  0.00    -0.256 C  
ENDROOT
BRANCH   1  13
HETATM   13  O   UNL     1     -10.552   8.224  68.058  1.00  0.00    -0.201 OA 
BRANCH  13  14
HETATM   14  C   UNL     1     -10.390   9.282  67.233  1.00  0.00    -0.265 C  
HETATM   15  O   UNL     1      -9.913   9.202  66.107  1.00  0.00    -0.286 OA 
BRANCH  14  16
HETATM   16  C   UNL     1     -10.742  10.548  67.885  1.00  0.00    -0.305 A  
HETATM   17  C   UNL     1     -11.471  12.692  68.228  1.00  0.00    -0.313 A  
HETATM   18  C   UNL     1     -11.289  11.710  67.249  1.00  0.00    -0.372 A  
HETATM   19  N   UNL     1     -11.010  12.170  69.418  1.00  0.00    -0.447 NA 
HETATM   20  C   UNL     1     -11.610  12.023  65.912  1.00  0.00    -0.364 A  
HETATM   21  C   UNL     1     -10.549  10.893  69.225  1.00  0.00    -0.217 A  
HETATM   22  C   UNL     1     -12.146  13.273  65.614  1.00  0.00    -0.488 A  
HETATM   23  C   UNL     1     -12.365  14.213  66.616  1.00  0.00    -0.375 A  
HETATM   24  H   UNL     1     -11.010  12.662  70.311  1.00  0.00     0.000 HD 
HETATM   25  C   UNL     1     -12.021  13.947  67.946  1.00  0.00    -0.393 A  
ENDBRANCH  14  16
ENDBRANCH  13  14
ENDBRANCH   1  13
TORSDOF 3
ENDMDL
MODEL       71
REMARK 921   NORMALIZED FREE ENERGY PREDICTED BY IDOCK:   -5.90 KCAL/MOL
REMARK 922        TOTAL FREE ENERGY PREDICTED BY IDOCK:   -7.57 KCAL/MOL
REMARK 923 INTER-LIGAND FREE ENERGY PREDICTED BY IDOCK:   -6.58 KCAL/MOL
REMARK 924 INTRA-LIGAND FREE ENERGY PREDICTED BY IDOCK:   -0.99 KCAL/MOL
REMARK 927      BINDING AFFINITY PREDICTED BY RF-SCORE:    0.00 PKD
ROOT
HETATM    1  C   UNL     1     -10.602  14.934  68.960  1.00  0.00    -0.245 C  
HETATM    2  C   UNL     1      -9.171  15.212  69.453  1.00  0.00    -0.175 C  
HETATM    3  C   UNL     1     -11.290  16.286  68.817  1.00  0.00    -0.329 C  
HETATM    4  C   UNL     1      -8.426  16.352  68.709  1.00  0.00    -0.249 C  
HETATM    5  N   UNL     1      -9.239  17.602  68.536  1.00  0.00    -0.279 NA 
HETATM    6  C   UNL     1     -10.509  17.234  67.876  1.00  0.00    -0.382 C  
HETATM    7  O   UNL     1      -7.212  18.392  65.630  1.00  0.00    -0.493 OA 
HETATM    8  C   UNL     1      -7.923  15.809  67.360  1.00  0.00    -0.194 C  
HETATM    9  C   UNL     1      -8.051  17.922  66.391  1.00  0.00    -0.261 C  
HETATM   10  C   UNL     1      -8.641  16.542  66.229  1.00  0.00    -0.367 C  
HETATM   11  C   UNL     1      -8.563  18.618  67.648  1.00  0.00    -0.272 C  
HETATM   12  C   UNL     1     -10.166  16.755  66.433  1.00  0.00    -0.329 C  
ENDROOT
BRANCH   1  13
HETATM   13  O   UNL     1     -10.817  14.340  67.665  1.00  0.00    -0.262 OA 
BRANCH  13  14
HETATM   14  C   UNL     1     -10.327  13.144  67.269  1.00  0.00    -0.243 C  
HETATM   15  O   UNL     1      -9.707  12.973  66.226  1.00  0.00    -0.266 OA 
BRANCH  14  16
HETATM   16  C   UNL     1     -10.723  12.060  68.173  1.00  0.00    -0.246 A  
HETATM   17  C   UNL     1     -10.629  10.303  69.640  1.00  0.00    -0.256 A  
HETATM   18  C   UNL     1      -9.843  11.197  68.905  1.00  0.00    -0.176 A  
HETATM   19  N   UNL     1     -11.946  10.574  69.336  1.00  0.00    -0.513 NA 
HETATM   20  C   UNL     1      -8.440  11.078  68.975  1.00  0.00    -0.082 A  
HETATM   21  C   UNL     1     -12.019  11.611  68.441  1.00  0.00    -0.196 A  
HETATM   22  C   UNL     1      -7.879  10.114  69.809  1.00  0.00    -0.175 A  
HETATM   23  C   UNL     1      -8.683   9.270  70.569  1.00  0.00    -0.276 A  
HETATM   24  H   UNL     1     -12.749  10.076  69.720  1.00  0.00     0.000 HD 
HETATM   25  C   UNL     1     -10.079   9.339  70.492  1.00  0.00    -0.313 A  
ENDBRANCH  14  16
ENDBRANCH  13  14
ENDBRANCH   1  13
TORSDOF 3
ENDMDL
MODEL       72
REMARK 921   NORMALIZED FREE ENERGY PREDICTED BY IDOCK:   -5.90 KCAL/MOL
REMARK 922        TOTAL FREE ENERGY PREDICTED BY IDOCK:   -7.56 KCAL/MOL
REMARK 923 INTER-LIGAND FREE ENERGY PREDICTED BY IDOCK:   -6.63 KCAL/MOL
REMARK 924 INTRA-LIGAND FREE ENERGY PREDICTED BY IDOCK:   -0.93 KCAL/MOL
REMARK 927      BINDING AFFINITY PREDICTED BY RF-SCORE:    0.00 PKD
ROOT
HETATM    1  C   UNL     1      -8.422   9.577  67.915  1.00  0.00    -0.119 C  
HETATM    2  C   UNL     1      -7.839   8.542  68.893  1.00  0.00    -0.109 C  
HETATM    3  C   UNL     1      -9.758   9.025  67.432  1.00  0.00    -0.217 C  
HETATM    4  C   UNL     1      -8.838   7.990  69.942  1.00  0.00    -0.144 C  
HETATM    5  N   UNL     1     -10.160   7.571  69.366  1.00  0.00    -0.185 NA 
HETATM    6  C   UNL     1     -10.712   8.715  68.610  1.00  0.00    -0.051 C  
HETATM    7  O   UNL     1     -11.651   8.176  72.620  1.00  0.00    -0.397 OA 
HETATM    8  C   UNL     1      -9.010   9.038  71.055  1.00  0.00    -0.304 C  
HETATM    9  C   UNL     1     -11.175   8.307  71.497  1.00  0.00    -0.262 C  
HETATM   10  C   UNL     1     -10.448   9.549  71.042  1.00  0.00    -0.377 C  
HETATM   11  C   UNL     1     -11.173   7.219  70.428  1.00  0.00    -0.276 C  
HETATM   12  C   UNL     1     -11.041   9.841  69.636  1.00  0.00    -0.251 C  
ENDROOT
BRANCH   1  13
HETATM   13  O   UNL     1      -8.782  10.892  68.383  1.00  0.00    -0.133 OA 
BRANCH  13  14
HETATM   14  C   UNL     1      -8.702  12.025  67.651  1.00  0.00    -0.166 C  
HETATM   15  O   UNL     1      -7.670  12.668  67.501  1.00  0.00    -0.139 OA 
BRANCH  14  16
HETATM   16  C   UNL     1     -10.015  12.455  67.157  1.00  0.00    -0.211 A  
HETATM   17  C   UNL     1     -11.826  12.793  65.797  1.00  0.00    -0.434 A  
HETATM   18  C   UNL     1     -10.556  12.210  65.854  1.00  0.00    -0.293 A  
HETATM   19  N   UNL     1     -12.041  13.417  67.008  1.00  0.00    -0.369 NA 
HETATM   20  C   UNL     1     -10.054  11.571  64.700  1.00  0.00    -0.318 A  
HETATM   21  C   UNL     1     -10.956  13.241  67.827  1.00  0.00    -0.258 A  
HETATM   22  C   UNL     1     -10.854  11.493  63.563  1.00  0.00    -0.473 A  
HETATM   23  C   UNL     1     -12.134  12.037  63.550  1.00  0.00    -0.628 A  
HETATM   24  H   UNL     1     -12.885  13.933  67.257  1.00  0.00     0.000 HD 
HETATM   25  C   UNL     1     -12.645  12.710  64.666  1.00  0.00    -0.517 A  
ENDBRANCH  14  16
ENDBRANCH  13  14
ENDBRANCH   1  13
TORSDOF 3
ENDMDL
MODEL       73
REMARK 921   NORMALIZED FREE ENERGY PREDICTED BY IDOCK:   -5.89 KCAL/MOL
REMARK 922        TOTAL FREE ENERGY PREDICTED BY IDOCK:   -7.55 KCAL/MOL
REMARK 923 INTER-LIGAND FREE ENERGY PREDICTED BY IDOCK:   -6.82 KCAL/MOL
REMARK 924 INTRA-LIGAND FREE ENERGY PREDICTED BY IDOCK:   -0.73 KCAL/MOL
REMARK 927      BINDING AFFINITY PREDICTED BY RF-SCORE:    0.00 PKD
ROOT
HETATM    1  C   UNL     1      -9.302  15.547  66.441  1.00  0.00    -0.298 C  
HETATM    2  C   UNL     1      -8.485  14.296  66.809  1.00  0.00    -0.051 C  
HETATM    3  C   UNL     1     -10.272  15.132  65.340  1.00  0.00    -0.402 C  
HETATM    4  C   UNL     1      -9.313  12.998  66.998  1.00  0.00    -0.236 C  
HETATM    5  N   UNL     1     -10.310  12.745  65.904  1.00  0.00    -0.277 NA 
HETATM    6  C   UNL     1     -11.163  13.945  65.776  1.00  0.00    -0.303 C  
HETATM    7  O   UNL     1     -12.267  10.817  68.276  1.00  0.00    -0.449 OA 
HETATM    8  C   UNL     1      -9.987  13.043  68.381  1.00  0.00    -0.216 C  
HETATM    9  C   UNL     1     -11.754  11.726  67.633  1.00  0.00    -0.250 C  
HETATM   10  C   UNL     1     -11.501  13.104  68.196  1.00  0.00    -0.349 C  
HETATM   11  C   UNL     1     -11.227  11.586  66.208  1.00  0.00    -0.222 C  
HETATM   12  C   UNL     1     -12.001  14.066  67.084  1.00  0.00    -0.465 C  
ENDROOT
BRANCH   1  13
HETATM   13  O   UNL     1     -10.178  16.151  67.413  1.00  0.00    -0.260 OA 
BRANCH  13  14
HETATM   14  C   UNL     1      -9.828  16.474  68.678  1.00  0.00    -0.250 C  
HETATM   15  O   UNL     1     -10.534  16.262  69.656  1.00  0.00    -0.282 OA 
BRANCH  14  16
HETATM   16  C   UNL     1      -8.560  17.210  68.726  1.00  0.00    -0.236 A  
HETATM   17  C   UNL     1      -6.969  18.830  68.425  1.00  0.00    -0.257 A  
HETATM   18  C   UNL     1      -8.301  18.498  68.155  1.00  0.00    -0.316 A  
HETATM   19  N   UNL     1      -6.413  17.764  69.100  1.00  0.00    -0.232 NA 
HETATM   20  C   UNL     1      -9.079  19.396  67.394  1.00  0.00    -0.359 A  
HETATM   21  C   UNL     1      -7.348  16.775  69.270  1.00  0.00    -0.164 A  
HETATM   22  C   UNL     1      -8.520  20.603  66.984  1.00  0.00    -0.256 A  
HETATM   23  C   UNL     1      -7.208  20.931  67.310  1.00  0.00    -0.408 A  
HETATM   24  H   UNL     1      -5.448  17.717  69.425  1.00  0.00     0.000 HD 
HETATM   25  C   UNL     1      -6.399  20.045  68.030  1.00  0.00    -0.282 A  
ENDBRANCH  14  16
ENDBRANCH  13  14
ENDBRANCH   1  13
TORSDOF 3
ENDMDL
MODEL       74
REMARK 921   NORMALIZED FREE ENERGY PREDICTED BY IDOCK:   -5.88 KCAL/MOL
REMARK 922        TOTAL FREE ENERGY PREDICTED BY IDOCK:   -7.55 KCAL/MOL
REMARK 923 INTER-LIGAND FREE ENERGY PREDICTED BY IDOCK:   -7.09 KCAL/MOL
REMARK 924 INTRA-LIGAND FREE ENERGY PREDICTED BY IDOCK:   -0.45 KCAL/MOL
REMARK 927      BINDING AFFINITY PREDICTED BY RF-SCORE:    0.00 PKD
ROOT
HETATM    1  C   UNL     1      -9.265  10.328  65.529  1.00  0.00    -0.190 C  
HETATM    2  C   UNL     1      -9.553  10.782  64.087  1.00  0.00    -0.333 C  
HETATM    3  C   UNL     1      -8.725  11.543  66.275  1.00  0.00    -0.159 C  
HETATM    4  C   UNL     1     -10.308  12.131  63.958  1.00  0.00    -0.385 C  
HETATM    5  N   UNL     1      -9.750  13.228  64.817  1.00  0.00     0.045 NA 
HETATM    6  C   UNL     1      -9.703  12.739  66.211  1.00  0.00    -0.262 C  
HETATM    7  O   UNL     1     -13.033  14.776  64.790  1.00  0.00    -0.400 OA 
HETATM    8  C   UNL     1     -11.800  11.886  64.246  1.00  0.00    -0.367 C  
HETATM    9  C   UNL     1     -12.068  14.060  65.035  1.00  0.00    -0.415 C  
HETATM   10  C   UNL     1     -12.191  12.635  65.518  1.00  0.00    -0.501 C  
HETATM   11  C   UNL     1     -10.614  14.465  64.816  1.00  0.00    -0.393 C  
HETATM   12  C   UNL     1     -11.174  12.542  66.688  1.00  0.00    -0.357 C  
ENDROOT
BRANCH   1  13
HETATM   13  O   UNL     1     -10.345   9.898  66.381  1.00  0.00    -0.227 OA 
BRANCH  13  14
HETATM   14  C   UNL     1     -10.356   8.754  67.101  1.00  0.00    -0.293 C  
HETATM   15  O   UNL     1     -10.509   7.642  66.612  1.00  0.00    -0.281 OA 
BRANCH  14  16
HETATM   16  C   UNL     1     -10.280   9.011  68.543  1.00  0.00    -0.224 A  
HETATM   17  C   UNL     1     -10.420   8.743  70.813  1.00  0.00    -0.219 A  
HETATM   18  C   UNL     1     -10.639   8.101  69.590  1.00  0.00    -0.223 A  
HETATM   19  N   UNL     1      -9.985  10.021  70.530  1.00  0.00    -0.374 NA 
HETATM   20  C   UNL     1     -11.171   6.795  69.599  1.00  0.00    -0.345 A  
HETATM   21  C   UNL     1      -9.916  10.204  69.173  1.00  0.00    -0.210 A  
HETATM   22  C   UNL     1     -11.410   6.165  70.818  1.00  0.00    -0.364 A  
HETATM   23  C   UNL     1     -11.134   6.808  72.021  1.00  0.00    -0.283 A  
HETATM   24  H   UNL     1      -9.749  10.726  71.228  1.00  0.00     0.000 HD 
HETATM   25  C   UNL     1     -10.643   8.118  72.045  1.00  0.00    -0.334 A  
ENDBRANCH  14  16
ENDBRANCH  13  14
ENDBRANCH   1  13
TORSDOF 3
ENDMDL
MODEL       75
REMARK 921   NORMALIZED FREE ENERGY PREDICTED BY IDOCK:   -5.86 KCAL/MOL
REMARK 922        TOTAL FREE ENERGY PREDICTED BY IDOCK:   -7.52 KCAL/MOL
REMARK 923 INTER-LIGAND FREE ENERGY PREDICTED BY IDOCK:   -6.33 KCAL/MOL
REMARK 924 INTRA-LIGAND FREE ENERGY PREDICTED BY IDOCK:   -1.19 KCAL/MOL
REMARK 927      BINDING AFFINITY PREDICTED BY RF-SCORE:    0.00 PKD
ROOT
HETATM    1  C   UNL     1      -8.816  10.564  64.672  1.00  0.00    -0.196 C  
HETATM    2  C   UNL     1      -9.349  11.356  63.465  1.00  0.00    -0.187 C  
HETATM    3  C   UNL     1      -8.446  11.584  65.742  1.00  0.00     0.130 C  
HETATM    4  C   UNL     1     -10.365  12.477  63.808  1.00  0.00    -0.388 C  
HETATM    5  N   UNL     1      -9.942  13.358  64.946  1.00  0.00    -0.200 NA 
HETATM    6  C   UNL     1      -9.643  12.494  66.107  1.00  0.00    -0.228 C  
HETATM    7  O   UNL     1     -13.447  14.069  65.562  1.00  0.00    -0.677 OA 
HETATM    8  C   UNL     1     -11.737  11.830  64.069  1.00  0.00    -0.421 C  
HETATM    9  C   UNL     1     -12.339  13.546  65.522  1.00  0.00    -0.481 C  
HETATM   10  C   UNL     1     -12.123  12.053  65.529  1.00  0.00    -0.067 C  
HETATM   11  C   UNL     1     -11.028  14.313  65.379  1.00  0.00    -0.333 C  
HETATM   12  C   UNL     1     -10.982  11.840  66.562  1.00  0.00    -0.342 C  
ENDROOT
BRANCH   1  13
HETATM   13  O   UNL     1      -9.687   9.666  65.388  1.00  0.00    -0.297 OA 
BRANCH  13  14
HETATM   14  C   UNL     1      -9.359   8.415  65.779  1.00  0.00    -0.071 C  
HETATM   15  O   UNL     1      -8.630   7.669  65.137  1.00  0.00    -0.095 OA 
BRANCH  14  16
HETATM   16  C   UNL     1     -10.071   8.014  66.998  1.00  0.00    -0.350 A  
HETATM   17  C   UNL     1     -10.770   7.909  69.176  1.00  0.00    -0.117 A  
HETATM   18  C   UNL     1      -9.909   8.582  68.303  1.00  0.00    -0.190 A  
HETATM   19  N   UNL     1     -11.406   6.929  68.444  1.00  0.00    -0.526 NA 
HETATM   20  C   UNL     1      -9.072   9.590  68.825  1.00  0.00    -0.133 A  
HETATM   21  C   UNL     1     -10.982   6.965  67.141  1.00  0.00    -0.357 A  
HETATM   22  C   UNL     1      -9.163   9.922  70.174  1.00  0.00    -0.184 A  
HETATM   23  C   UNL     1     -10.065   9.271  71.010  1.00  0.00    -0.373 A  
HETATM   24  H   UNL     1     -12.092   6.274  68.818  1.00  0.00     0.000 HD 
HETATM   25  C   UNL     1     -10.882   8.241  70.531  1.00  0.00    -0.245 A  
ENDBRANCH  14  16
ENDBRANCH  13  14
ENDBRANCH   1  13
TORSDOF 3
ENDMDL
MODEL       76
REMARK 921   NORMALIZED FREE ENERGY PREDICTED BY IDOCK:   -5.84 KCAL/MOL
REMARK 922        TOTAL FREE ENERGY PREDICTED BY IDOCK:   -7.50 KCAL/MOL
REMARK 923 INTER-LIGAND FREE ENERGY PREDICTED BY IDOCK:   -6.63 KCAL/MOL
REMARK 924 INTRA-LIGAND FREE ENERGY PREDICTED BY IDOCK:   -0.86 KCAL/MOL
REMARK 927      BINDING AFFINITY PREDICTED BY RF-SCORE:    0.00 PKD
ROOT
HETATM    1  C   UNL     1     -10.730  11.695  66.430  1.00  0.00    -0.272 C  
HETATM    2  C   UNL     1     -11.860  12.582  65.878  1.00  0.00    -0.489 C  
HETATM    3  C   UNL     1      -9.415  12.337  66.002  1.00  0.00    -0.194 C  
HETATM    4  C   UNL     1     -11.670  14.105  66.098  1.00  0.00    -0.393 C  
HETATM    5  N   UNL     1     -10.303  14.609  65.738  1.00  0.00    -0.313 NA 
HETATM    6  C   UNL     1      -9.309  13.805  66.481  1.00  0.00    -0.233 C  
HETATM    7  O   UNL     1     -10.804  17.333  68.084  1.00  0.00    -0.375 OA 
HETATM    8  C   UNL     1     -12.034  14.440  67.555  1.00  0.00    -0.389 C  
HETATM    9  C   UNL     1     -10.564  16.244  67.575  1.00  0.00    -0.310 C  
HETATM   10  C   UNL     1     -10.784  14.929  68.281  1.00  0.00    -0.249 C  
HETATM   11  C   UNL     1     -10.088  16.048  66.139  1.00  0.00    -0.327 C  
HETATM   12  C   UNL     1      -9.487  14.123  67.996  1.00  0.00    -0.213 C  
ENDROOT
BRANCH   1  13
HETATM   13  O   UNL     1     -10.554  11.551  67.854  1.00  0.00    -0.180 OA 
BRANCH  13  14
HETATM   14  C   UNL     1     -11.354  10.823  68.664  1.00  0.00    -0.291 C  
HETATM   15  O   UNL     1     -12.503  11.136  68.948  1.00  0.00    -0.460 OA 
BRANCH  14  16
HETATM   16  C   UNL     1     -10.647   9.680  69.253  1.00  0.00    -0.236 A  
HETATM   17  C   UNL     1      -9.610   7.653  69.500  1.00  0.00    -0.163 A  
HETATM   18  C   UNL     1     -10.249   8.483  68.573  1.00  0.00    -0.225 A  
HETATM   19  N   UNL     1      -9.653   8.295  70.719  1.00  0.00    -0.169 NA 
HETATM   20  C   UNL     1     -10.413   8.018  67.251  1.00  0.00    -0.384 A  
HETATM   21  C   UNL     1     -10.291   9.503  70.592  1.00  0.00    -0.302 A  
HETATM   22  C   UNL     1      -9.890   6.778  66.895  1.00  0.00    -0.229 A  
HETATM   23  C   UNL     1      -9.214   5.994  67.824  1.00  0.00    -0.107 A  
HETATM   24  H   UNL     1      -9.267   7.926  71.588  1.00  0.00     0.000 HD 
HETATM   25  C   UNL     1      -9.068   6.411  69.152  1.00  0.00    -0.131 A  
ENDBRANCH  14  16
ENDBRANCH  13  14
ENDBRANCH   1  13
TORSDOF 3
ENDMDL
MODEL       77
REMARK 921   NORMALIZED FREE ENERGY PREDICTED BY IDOCK:   -5.84 KCAL/MOL
REMARK 922        TOTAL FREE ENERGY PREDICTED BY IDOCK:   -7.49 KCAL/MOL
REMARK 923 INTER-LIGAND FREE ENERGY PREDICTED BY IDOCK:   -6.28 KCAL/MOL
REMARK 924 INTRA-LIGAND FREE ENERGY PREDICTED BY IDOCK:   -1.21 KCAL/MOL
REMARK 927      BINDING AFFINITY PREDICTED BY RF-SCORE:    0.00 PKD
ROOT
HETATM    1  C   UNL     1     -10.938   8.839  71.427  1.00  0.00    -0.289 C  
HETATM    2  C   UNL     1     -11.106   7.658  70.455  1.00  0.00    -0.267 C  
HETATM    3  C   UNL     1      -9.480   8.840  71.872  1.00  0.00    -0.362 C  
HETATM    4  C   UNL     1     -10.000   7.528  69.376  1.00  0.00    -0.178 C  
HETATM    5  N   UNL     1      -8.604   7.647  69.915  1.00  0.00    -0.137 NA 
HETATM    6  C   UNL     1      -8.511   8.916  70.668  1.00  0.00    -0.184 C  
HETATM    7  O   UNL     1      -7.544   8.771  66.630  1.00  0.00    -0.088 OA 
HETATM    8  C   UNL     1     -10.272   8.561  68.268  1.00  0.00    -0.244 C  
HETATM    9  C   UNL     1      -8.004   8.712  67.765  1.00  0.00    -0.107 C  
HETATM   10  C   UNL     1      -9.138   9.583  68.250  1.00  0.00    -0.127 C  
HETATM   11  C   UNL     1      -7.562   7.708  68.825  1.00  0.00    -0.102 C  
HETATM   12  C   UNL     1      -8.665  10.081  69.644  1.00  0.00    -0.210 C  
ENDROOT
BRANCH   1  13
HETATM   13  O   UNL     1     -11.120  10.191  70.962  1.00  0.00    -0.323 OA 
BRANCH  13  14
HETATM   14  C   UNL     1     -12.303  10.841  70.911  1.00  0.00    -0.396 C  
HETATM   15  O   UNL     1     -13.374  10.333  71.220  1.00  0.00    -0.357 OA 
BRANCH  14  16
HETATM   16  C   UNL     1     -12.170  12.182  70.332  1.00  0.00    -0.378 A  
HETATM   17  C   UNL     1     -11.904  13.889  68.828  1.00  0.00    -0.361 A  
HETATM   18  C   UNL     1     -11.990  12.498  68.946  1.00  0.00    -0.282 A  
HETATM   19  N   UNL     1     -11.982  14.411  70.102  1.00  0.00    -0.302 NA 
HETATM   20  C   UNL     1     -11.853  11.712  67.783  1.00  0.00    -0.247 A  
HETATM   21  C   UNL     1     -12.120  13.399  71.018  1.00  0.00    -0.102 A  
HETATM   22  C   UNL     1     -11.692  12.341  66.551  1.00  0.00    -0.420 A  
HETATM   23  C   UNL     1     -11.661  13.729  66.456  1.00  0.00    -0.412 A  
HETATM   24  H   UNL     1     -11.942  15.404  70.330  1.00  0.00     0.000 HD 
HETATM   25  C   UNL     1     -11.755  14.534  67.596  1.00  0.00    -0.410 A  
ENDBRANCH  14  16
ENDBRANCH  13  14
ENDBRANCH   1  13
TORSDOF 3
ENDMDL
MODEL       78
REMARK 921   NORMALIZED FREE ENERGY PREDICTED BY IDOCK:   -5.83 KCAL/MOL
REMARK 922        TOTAL FREE ENERGY PREDICTED BY IDOCK:   -7.49 KCAL/MOL
REMARK 923 INTER-LIGAND FREE ENERGY PREDICTED BY IDOCK:   -6.64 KCAL/MOL
REMARK 924 INTRA-LIGAND FREE ENERGY PREDICTED BY IDOCK:   -0.85 KCAL/MOL
REMARK 927      BINDING AFFINITY PREDICTED BY RF-SCORE:    0.00 PKD
ROOT
HETATM    1  C   UNL     1      -9.281  10.471  67.886  1.00  0.00    -0.140 C  
HETATM    2  C   UNL     1      -8.680  10.107  69.255  1.00  0.00    -0.186 C  
HETATM    3  C   UNL     1      -8.710   9.483  66.875  1.00  0.00    -0.136 C  
HETATM    4  C   UNL     1      -8.697   8.595  69.602  1.00  0.00    -0.132 C  
HETATM    5  N   UNL     1      -8.208   7.709  68.493  1.00  0.00    -0.124 NA 
HETATM    6  C   UNL     1      -8.994   8.017  67.280  1.00  0.00    -0.138 C  
HETATM    7  O   UNL     1     -10.216   5.029  69.894  1.00  0.00    -0.259 OA 
HETATM    8  C   UNL     1     -10.117   8.212  70.053  1.00  0.00    -0.196 C  
HETATM    9  C   UNL     1      -9.836   6.029  69.295  1.00  0.00    -0.152 C  
HETATM   10  C   UNL     1     -10.712   7.232  69.044  1.00  0.00    -0.183 C  
HETATM   11  C   UNL     1      -8.414   6.243  68.787  1.00  0.00    -0.119 C  
HETATM   12  C   UNL     1     -10.465   7.577  67.550  1.00  0.00    -0.341 C  
ENDROOT
BRANCH   1  13
HETATM   13  O   UNL     1     -10.700  10.354  67.665  1.00  0.00    -0.243 OA 
BRANCH  13  14
HETATM   14  C   UNL     1     -11.639  11.163  68.204  1.00  0.00    -0.280 C  
HETATM   15  O   UNL     1     -12.382  10.830  69.119  1.00  0.00    -0.400 OA 
BRANCH  14  16
HETATM   16  C   UNL     1     -11.741  12.440  67.489  1.00  0.00    -0.425 A  
HETATM   17  C   UNL     1     -11.940  13.988  65.813  1.00  0.00    -0.404 A  
HETATM   18  C   UNL     1     -11.886  12.615  66.075  1.00  0.00    -0.492 A  
HETATM   19  N   UNL     1     -11.786  14.638  67.019  1.00  0.00    -0.374 NA 
HETATM   20  C   UNL     1     -11.938  11.718  64.987  1.00  0.00    -0.021 A  
HETATM   21  C   UNL     1     -11.644  13.724  68.032  1.00  0.00    -0.333 A  
HETATM   22  C   UNL     1     -12.095  12.219  63.698  1.00  0.00    -0.648 A  
HETATM   23  C   UNL     1     -12.197  13.588  63.470  1.00  0.00    -0.410 A  
HETATM   24  H   UNL     1     -11.779  15.650  67.140  1.00  0.00     0.000 HD 
HETATM   25  C   UNL     1     -12.111  14.504  64.524  1.00  0.00    -0.501 A  
ENDBRANCH  14  16
ENDBRANCH  13  14
ENDBRANCH   1  13
TORSDOF 3
ENDMDL
MODEL       79
REMARK 921   NORMALIZED FREE ENERGY PREDICTED BY IDOCK:   -5.83 KCAL/MOL
REMARK 922        TOTAL FREE ENERGY PREDICTED BY IDOCK:   -7.49 KCAL/MOL
REMARK 923 INTER-LIGAND FREE ENERGY PREDICTED BY IDOCK:   -6.59 KCAL/MOL
REMARK 924 INTRA-LIGAND FREE ENERGY PREDICTED BY IDOCK:   -0.89 KCAL/MOL
REMARK 927      BINDING AFFINITY PREDICTED BY RF-SCORE:    0.00 PKD
ROOT
HETATM    1  C   UNL     1     -10.207   9.682  66.843  1.00  0.00    -0.237 C  
HETATM    2  C   UNL     1      -8.708   9.872  67.135  1.00  0.00    -0.136 C  
HETATM    3  C   UNL     1     -10.545   8.236  67.185  1.00  0.00    -0.340 C  
HETATM    4  C   UNL     1      -8.223   9.295  68.491  1.00  0.00    -0.114 C  
HETATM    5  N   UNL     1      -8.702   7.900  68.768  1.00  0.00    -0.128 NA 
HETATM    6  C   UNL     1     -10.174   7.889  68.647  1.00  0.00    -0.205 C  
HETATM    7  O   UNL     1      -8.357   8.599  72.314  1.00  0.00    -0.317 OA 
HETATM    8  C   UNL     1      -8.629  10.269  69.611  1.00  0.00    -0.126 C  
HETATM    9  C   UNL     1      -8.761   8.534  71.158  1.00  0.00    -0.174 C  
HETATM   10  C   UNL     1      -9.642   9.583  70.525  1.00  0.00    -0.312 C  
HETATM   11  C   UNL     1      -8.375   7.440  70.168  1.00  0.00    -0.136 C  
HETATM   12  C   UNL     1     -10.747   8.765  69.802  1.00  0.00    -0.220 C  
ENDROOT
BRANCH   1  13
HETATM   13  O   UNL     1     -11.190  10.416  67.599  1.00  0.00    -0.318 OA 
BRANCH  13  14
HETATM   14  C   UNL     1     -11.673  11.634  67.268  1.00  0.00    -0.175 C  
HETATM   15  O   UNL     1     -11.952  11.969  66.123  1.00  0.00    -0.581 OA 
BRANCH  14  16
HETATM   16  C   UNL     1     -11.712  12.543  68.419  1.00  0.00    -0.375 A  
HETATM   17  C   UNL     1     -11.539  14.421  69.718  1.00  0.00    -0.298 A  
HETATM   18  C   UNL     1     -11.367  13.933  68.418  1.00  0.00    -0.316 A  
HETATM   19  N   UNL     1     -11.931  13.357  70.503  1.00  0.00    -0.512 NA 
HETATM   20  C   UNL     1     -10.885  14.812  67.426  1.00  0.00    -0.300 A  
HETATM   21  C   UNL     1     -12.019  12.219  69.743  1.00  0.00    -0.295 A  
HETATM   22  C   UNL     1     -10.646  16.144  67.753  1.00  0.00    -0.309 A  
HETATM   23  C   UNL     1     -10.874  16.616  69.042  1.00  0.00    -0.314 A  
HETATM   24  H   UNL     1     -12.127  13.410  71.502  1.00  0.00     0.000 HD 
HETATM   25  C   UNL     1     -11.316  15.760  70.057  1.00  0.00    -0.354 A  
ENDBRANCH  14  16
ENDBRANCH  13  14
ENDBRANCH   1  13
TORSDOF 3
ENDMDL
MODEL       80
REMARK 921   NORMALIZED FREE ENERGY PREDICTED BY IDOCK:   -5.82 KCAL/MOL
REMARK 922        TOTAL FREE ENERGY PREDICTED BY IDOCK:   -7.47 KCAL/MOL
REMARK 923 INTER-LIGAND FREE ENERGY PREDICTED BY IDOCK:   -6.79 KCAL/MOL
REMARK 924 INTRA-LIGAND FREE ENERGY PREDICTED BY IDOCK:   -0.67 KCAL/MOL
REMARK 927      BINDING AFFINITY PREDICTED BY RF-SCORE:    0.00 PKD
ROOT
HETATM    1  C   UNL     1     -11.091  11.624  66.733  1.00  0.00    -0.309 C  
HETATM    2  C   UNL     1     -11.874  12.683  67.530  1.00  0.00    -0.396 C  
HETATM    3  C   UNL     1     -11.624  11.664  65.306  1.00  0.00    -0.105 C  
HETATM    4  C   UNL     1     -12.024  14.059  66.830  1.00  0.00    -0.447 C  
HETATM    5  N   UNL     1     -12.455  13.970  65.395  1.00  0.00    -0.478 NA 
HETATM    6  C   UNL     1     -11.513  13.078  64.688  1.00  0.00    -0.336 C  
HETATM    7  O   UNL     1     -10.854  17.177  64.825  1.00  0.00    -0.834 OA 
HETATM    8  C   UNL     1     -10.702  14.832  66.980  1.00  0.00    -0.300 C  
HETATM    9  C   UNL     1     -11.077  15.983  64.992  1.00  0.00    -0.336 C  
HETATM   10  C   UNL     1     -10.080  15.027  65.599  1.00  0.00    -0.390 C  
HETATM   11  C   UNL     1     -12.409  15.303  64.690  1.00  0.00    -0.073 C  
HETATM   12  C   UNL     1     -10.125  13.787  64.664  1.00  0.00    -0.193 C  
ENDROOT
BRANCH   1  13
HETATM   13  O   UNL     1      -9.671  11.771  66.537  1.00  0.00    -0.197 OA 
BRANCH  13  14
HETATM   14  C   UNL     1      -8.735  10.895  66.963  1.00  0.00    -0.141 C  
HETATM   15  O   UNL     1      -7.675  10.693  66.384  1.00  0.00    -0.128 OA 
BRANCH  14  16
HETATM   16  C   UNL     1      -9.186  10.132  68.133  1.00  0.00    -0.137 A  
HETATM   17  C   UNL     1     -10.145   8.515  69.440  1.00  0.00    -0.205 A  
HETATM   18  C   UNL     1      -9.909   8.896  68.115  1.00  0.00    -0.193 A  
HETATM   19  N   UNL     1      -9.626   9.506  70.246  1.00  0.00    -0.250 NA 
HETATM   20  C   UNL     1     -10.418   8.085  67.079  1.00  0.00    -0.410 A  
HETATM   21  C   UNL     1      -9.066  10.494  69.477  1.00  0.00    -0.040 A  
HETATM   22  C   UNL     1     -11.089   6.908  67.402  1.00  0.00    -0.322 A  
HETATM   23  C   UNL     1     -11.265   6.526  68.729  1.00  0.00    -0.319 A  
HETATM   24  H   UNL     1      -9.654   9.504  71.266  1.00  0.00     0.000 HD 
HETATM   25  C   UNL     1     -10.805   7.329  69.779  1.00  0.00    -0.251 A  
ENDBRANCH  14  16
ENDBRANCH  13  14
ENDBRANCH   1  13
TORSDOF 3
ENDMDL
MODEL       81
REMARK 921   NORMALIZED FREE ENERGY PREDICTED BY IDOCK:   -5.80 KCAL/MOL
REMARK 922        TOTAL FREE ENERGY PREDICTED BY IDOCK:   -7.45 KCAL/MOL
REMARK 923 INTER-LIGAND FREE ENERGY PREDICTED BY IDOCK:   -6.59 KCAL/MOL
REMARK 924 INTRA-LIGAND FREE ENERGY PREDICTED BY IDOCK:   -0.86 KCAL/MOL
REMARK 927      BINDING AFFINITY PREDICTED BY RF-SCORE:    0.00 PKD
ROOT
HETATM    1  C   UNL     1      -7.941  15.918  68.925  1.00  0.00    -0.204 C  
HETATM    2  C   UNL     1      -6.843  16.924  69.312  1.00  0.00    -0.228 C  
HETATM    3  C   UNL     1      -9.239  16.707  68.798  1.00  0.00    -0.253 C  
HETATM    4  C   UNL     1      -6.836  18.241  68.491  1.00  0.00    -0.249 C  
HETATM    5  N   UNL     1      -8.187  18.877  68.345  1.00  0.00    -0.330 NA 
HETATM    6  C   UNL     1      -9.109  17.868  67.783  1.00  0.00    -0.258 C  
HETATM    7  O   UNL     1      -7.005  20.438  65.288  1.00  0.00    -0.289 OA 
HETATM    8  C   UNL     1      -6.187  17.962  67.124  1.00  0.00    -0.176 C  
HETATM    9  C   UNL     1      -7.440  19.645  66.116  1.00  0.00    -0.305 C  
HETATM   10  C   UNL     1      -7.233  18.152  66.028  1.00  0.00    -0.305 C  
HETATM   11  C   UNL     1      -8.181  20.044  67.388  1.00  0.00    -0.332 C  
HETATM   12  C   UNL     1      -8.635  17.556  66.331  1.00  0.00    -0.273 C  
ENDROOT
BRANCH   1  13
HETATM   13  O   UNL     1      -7.876  15.226  67.663  1.00  0.00    -0.133 OA 
BRANCH  13  14
HETATM   14  C   UNL     1      -7.903  13.883  67.512  1.00  0.00    -0.181 C  
HETATM   15  O   UNL     1      -6.900  13.185  67.428  1.00  0.00    -0.163 OA 
BRANCH  14  16
HETATM   16  C   UNL     1      -9.270  13.377  67.344  1.00  0.00    -0.213 A  
HETATM   17  C   UNL     1     -11.398  13.071  66.553  1.00  0.00    -0.320 A  
HETATM   18  C   UNL     1     -10.221  13.803  66.361  1.00  0.00    -0.292 A  
HETATM   19  N   UNL     1     -11.195  12.255  67.645  1.00  0.00    -0.271 NA 
HETATM   20  C   UNL     1     -10.193  14.781  65.345  1.00  0.00    -0.415 A  
HETATM   21  C   UNL     1      -9.931  12.441  68.144  1.00  0.00    -0.215 A  
HETATM   22  C   UNL     1     -11.311  14.952  64.532  1.00  0.00    -0.306 A  
HETATM   23  C   UNL     1     -12.451  14.175  64.712  1.00  0.00    -0.395 A  
HETATM   24  H   UNL     1     -11.884  11.607  68.027  1.00  0.00     0.000 HD 
HETATM   25  C   UNL     1     -12.523  13.223  65.736  1.00  0.00    -0.480 A  
ENDBRANCH  14  16
ENDBRANCH  13  14
ENDBRANCH   1  13
TORSDOF 3
ENDMDL
MODEL       82
REMARK 921   NORMALIZED FREE ENERGY PREDICTED BY IDOCK:   -5.79 KCAL/MOL
REMARK 922        TOTAL FREE ENERGY PREDICTED BY IDOCK:   -7.43 KCAL/MOL
REMARK 923 INTER-LIGAND FREE ENERGY PREDICTED BY IDOCK:   -6.76 KCAL/MOL
REMARK 924 INTRA-LIGAND FREE ENERGY PREDICTED BY IDOCK:   -0.67 KCAL/MOL
REMARK 927      BINDING AFFINITY PREDICTED BY RF-SCORE:    0.00 PKD
ROOT
HETATM    1  C   UNL     1     -10.900  11.762  66.309  1.00  0.00    -0.281 C  
HETATM    2  C   UNL     1     -12.020  12.693  65.811  1.00  0.00    -0.503 C  
HETATM    3  C   UNL     1      -9.582  12.372  65.846  1.00  0.00    -0.193 C  
HETATM    4  C   UNL     1     -11.776  14.206  66.049  1.00  0.00    -0.382 C  
HETATM    5  N   UNL     1     -10.406  14.674  65.650  1.00  0.00    -0.328 NA 
HETATM    6  C   UNL     1      -9.414  13.827  66.345  1.00  0.00    -0.243 C  
HETATM    7  O   UNL     1     -10.742  17.371  68.057  1.00  0.00    -0.387 OA 
HETATM    8  C   UNL     1     -12.080  14.525  67.523  1.00  0.00    -0.284 C  
HETATM    9  C   UNL     1     -10.554  16.283  67.522  1.00  0.00    -0.310 C  
HETATM   10  C   UNL     1     -10.790  14.963  68.214  1.00  0.00    -0.257 C  
HETATM   11  C   UNL     1     -10.134  16.099  66.067  1.00  0.00    -0.351 C  
HETATM   12  C   UNL     1      -9.529  14.124  67.870  1.00  0.00    -0.211 C  
ENDROOT
BRANCH   1  13
HETATM   13  O   UNL     1     -10.680  11.588  67.722  1.00  0.00    -0.190 OA 
BRANCH  13  14
HETATM   14  C   UNL     1     -11.463  10.854  68.544  1.00  0.00    -0.310 C  
HETATM   15  O   UNL     1     -12.449  11.297  69.122  1.00  0.00    -0.378 OA 
BRANCH  14  16
HETATM   16  C   UNL     1     -10.929   9.504  68.754  1.00  0.00    -0.116 A  
HETATM   17  C   UNL     1     -10.152   7.602  69.766  1.00  0.00    -0.196 A  
HETATM   18  C   UNL     1     -10.653   8.884  70.016  1.00  0.00    -0.234 A  
HETATM   19  N   UNL     1     -10.078   7.454  68.397  1.00  0.00    -0.172 NA 
HETATM   20  C   UNL     1     -10.752   9.322  71.353  1.00  0.00    -0.432 A  
HETATM   21  C   UNL     1     -10.521   8.594  67.776  1.00  0.00    -0.224 A  
HETATM   22  C   UNL     1     -10.401   8.452  72.382  1.00  0.00    -0.399 A  
HETATM   23  C   UNL     1      -9.954   7.163  72.107  1.00  0.00    -0.183 A  
HETATM   24  H   UNL     1      -9.744   6.619  67.917  1.00  0.00     0.000 HD 
HETATM   25  C   UNL     1      -9.809   6.713  70.790  1.00  0.00    -0.198 A  
ENDBRANCH  14  16
ENDBRANCH  13  14
ENDBRANCH   1  13
TORSDOF 3
ENDMDL
MODEL       83
REMARK 921   NORMALIZED FREE ENERGY PREDICTED BY IDOCK:   -5.77 KCAL/MOL
REMARK 922        TOTAL FREE ENERGY PREDICTED BY IDOCK:   -7.41 KCAL/MOL
REMARK 923 INTER-LIGAND FREE ENERGY PREDICTED BY IDOCK:   -6.96 KCAL/MOL
REMARK 924 INTRA-LIGAND FREE ENERGY PREDICTED BY IDOCK:   -0.45 KCAL/MOL
REMARK 927      BINDING AFFINITY PREDICTED BY RF-SCORE:    0.00 PKD
ROOT
HETATM    1  C   UNL     1     -10.542  10.442  69.411  1.00  0.00    -0.239 C  
HETATM    2  C   UNL     1     -11.556  10.612  70.556  1.00  0.00    -0.444 C  
HETATM    3  C   UNL     1      -9.251   9.927  70.037  1.00  0.00    -0.224 C  
HETATM    4  C   UNL     1     -11.634   9.424  71.550  1.00  0.00    -0.397 C  
HETATM    5  N   UNL     1     -10.296   8.934  72.022  1.00  0.00    -0.340 NA 
HETATM    6  C   UNL     1      -9.478   8.619  70.831  1.00  0.00    -0.194 C  
HETATM    7  O   UNL     1     -11.815   5.694  72.631  1.00  0.00    -0.283 OA 
HETATM    8  C   UNL     1     -12.457   8.297  70.904  1.00  0.00     0.005 C  
HETATM    9  C   UNL     1     -11.299   6.676  72.107  1.00  0.00    -0.274 C  
HETATM   10  C   UNL     1     -11.554   7.087  70.678  1.00  0.00    -0.379 C  
HETATM   11  C   UNL     1     -10.393   7.665  72.833  1.00  0.00    -0.322 C  
HETATM   12  C   UNL     1     -10.140   7.403  70.116  1.00  0.00    -0.197 C  
ENDROOT
BRANCH   1  13
HETATM   13  O   UNL     1     -10.784   9.478  68.367  1.00  0.00    -0.221 OA 
BRANCH  13  14
HETATM   14  C   UNL     1     -10.301   9.560  67.108  1.00  0.00    -0.253 C  
HETATM   15  O   UNL     1     -10.208   8.603  66.349  1.00  0.00    -0.282 OA 
BRANCH  14  16
HETATM   16  C   UNL     1      -9.796  10.902  66.799  1.00  0.00    -0.231 A  
HETATM   17  C   UNL     1      -9.689  13.085  66.113  1.00  0.00    -0.251 A  
HETATM   18  C   UNL     1     -10.551  11.993  66.257  1.00  0.00    -0.287 A  
HETATM   19  N   UNL     1      -8.435  12.668  66.508  1.00  0.00    -0.414 NA 
HETATM   20  C   UNL     1     -11.891  12.131  65.840  1.00  0.00    -0.342 A  
HETATM   21  C   UNL     1      -8.478  11.356  66.902  1.00  0.00    -0.157 A  
HETATM   22  C   UNL     1     -12.329  13.359  65.351  1.00  0.00    -0.522 A  
HETATM   23  C   UNL     1     -11.463  14.444  65.265  1.00  0.00    -0.350 A  
HETATM   24  H   UNL     1      -7.599  13.251  66.507  1.00  0.00     0.000 HD 
HETATM   25  C   UNL     1     -10.118  14.327  65.635  1.00  0.00    -0.364 A  
ENDBRANCH  14  16
ENDBRANCH  13  14
ENDBRANCH   1  13
TORSDOF 3
ENDMDL
MODEL       84
REMARK 921   NORMALIZED FREE ENERGY PREDICTED BY IDOCK:   -5.77 KCAL/MOL
REMARK 922        TOTAL FREE ENERGY PREDICTED BY IDOCK:   -7.41 KCAL/MOL
REMARK 923 INTER-LIGAND FREE ENERGY PREDICTED BY IDOCK:   -6.34 KCAL/MOL
REMARK 924 INTRA-LIGAND FREE ENERGY PREDICTED BY IDOCK:   -1.07 KCAL/MOL
REMARK 927      BINDING AFFINITY PREDICTED BY RF-SCORE:    0.00 PKD
ROOT
HETATM    1  C   UNL     1     -10.162   5.794  69.553  1.00  0.00    -0.239 C  
HETATM    2  C   UNL     1     -11.153   6.233  68.461  1.00  0.00    -0.397 C  
HETATM    3  C   UNL     1      -9.345   4.646  68.971  1.00  0.00    -0.203 C  
HETATM    4  C   UNL     1     -10.545   6.396  67.044  1.00  0.00    -0.327 C  
HETATM    5  N   UNL     1      -9.675   5.250  66.617  1.00  0.00    -0.150 NA 
HETATM    6  C   UNL     1      -8.641   5.049  67.654  1.00  0.00    -0.104 C  
HETATM    7  O   UNL     1      -7.927   7.536  64.405  1.00  0.00    -0.135 OA 
HETATM    8  C   UNL     1      -9.789   7.736  66.985  1.00  0.00    -0.286 C  
HETATM    9  C   UNL     1      -8.318   6.908  65.383  1.00  0.00    -0.119 C  
HETATM   10  C   UNL     1      -8.301   7.460  66.787  1.00  0.00    -0.122 C  
HETATM   11  C   UNL     1      -8.948   5.521  65.322  1.00  0.00    -0.065 C  
HETATM   12  C   UNL     1      -7.716   6.303  67.643  1.00  0.00    -0.098 C  
ENDROOT
BRANCH   1  13
HETATM   13  O   UNL     1      -9.138   6.701  70.008  1.00  0.00    -0.150 OA 
BRANCH  13  14
HETATM   14  C   UNL     1      -9.032   7.183  71.266  1.00  0.00    -0.147 C  
HETATM   15  O   UNL     1      -8.030   7.063  71.960  1.00  0.00    -0.094 OA 
BRANCH  14  16
HETATM   16  C   UNL     1     -10.294   7.761  71.742  1.00  0.00    -0.243 A  
HETATM   17  C   UNL     1     -12.104   9.145  71.977  1.00  0.00    -0.361 A  
HETATM   18  C   UNL     1     -10.928   8.946  71.246  1.00  0.00    -0.363 A  
HETATM   19  N   UNL     1     -12.169   8.143  72.922  1.00  0.00    -0.636 NA 
HETATM   20  C   UNL     1     -10.579   9.892  70.259  1.00  0.00    -0.359 A  
HETATM   21  C   UNL     1     -11.081   7.317  72.808  1.00  0.00    -0.319 A  
HETATM   22  C   UNL     1     -11.436  10.959  70.005  1.00  0.00    -0.411 A  
HETATM   23  C   UNL     1     -12.625  11.105  70.711  1.00  0.00    -0.445 A  
HETATM   24  H   UNL     1     -12.918   8.032  73.605  1.00  0.00     0.000 HD 
HETATM   25  C   UNL     1     -12.980  10.205  71.723  1.00  0.00    -0.567 A  
ENDBRANCH  14  16
ENDBRANCH  13  14
ENDBRANCH   1  13
TORSDOF 3
ENDMDL
MODEL       85
REMARK 921   NORMALIZED FREE ENERGY PREDICTED BY IDOCK:   -5.76 KCAL/MOL
REMARK 922        TOTAL FREE ENERGY PREDICTED BY IDOCK:   -7.40 KCAL/MOL
REMARK 923 INTER-LIGAND FREE ENERGY PREDICTED BY IDOCK:   -6.74 KCAL/MOL
REMARK 924 INTRA-LIGAND FREE ENERGY PREDICTED BY IDOCK:   -0.67 KCAL/MOL
REMARK 927      BINDING AFFINITY PREDICTED BY RF-SCORE:    0.00 PKD
ROOT
HETATM    1  C   UNL     1     -10.650  16.033  66.165  1.00  0.00    -0.297 C  
HETATM    2  C   UNL     1      -9.925  17.385  66.287  1.00  0.00    -0.306 C  
HETATM    3  C   UNL     1      -9.603  15.007  65.747  1.00  0.00    -0.327 C  
HETATM    4  C   UNL     1      -8.577  17.344  67.053  1.00  0.00    -0.233 C  
HETATM    5  N   UNL     1      -7.666  16.228  66.628  1.00  0.00    -0.253 NA 
HETATM    6  C   UNL     1      -8.416  14.959  66.739  1.00  0.00    -0.180 C  
HETATM    7  O   UNL     1      -6.141  16.360  69.920  1.00  0.00    -0.203 OA 
HETATM    8  C   UNL     1      -8.872  17.294  68.563  1.00  0.00    -0.269 C  
HETATM    9  C   UNL     1      -6.892  16.141  68.975  1.00  0.00    -0.176 C  
HETATM   10  C   UNL     1      -8.383  15.960  69.122  1.00  0.00    -0.253 C  
HETATM   11  C   UNL     1      -6.452  16.098  67.515  1.00  0.00    -0.172 C  
HETATM   12  C   UNL     1      -8.701  14.713  68.251  1.00  0.00    -0.173 C  
ENDROOT
BRANCH   1  13
HETATM   13  O   UNL     1     -11.236  15.419  67.329  1.00  0.00    -0.327 OA 
BRANCH  13  14
HETATM   14  C   UNL     1     -11.976  14.288  67.320  1.00  0.00    -0.405 C  
HETATM   15  O   UNL     1     -12.551  13.857  66.328  1.00  0.00    -0.435 OA 
BRANCH  14  16
HETATM   16  C   UNL     1     -12.105  13.703  68.660  1.00  0.00    -0.325 A  
HETATM   17  C   UNL     1     -12.117  12.201  70.388  1.00  0.00    -0.309 A  
HETATM   18  C   UNL     1     -11.881  12.334  69.016  1.00  0.00    -0.358 A  
HETATM   19  N   UNL     1     -12.516  13.436  70.853  1.00  0.00    -0.371 NA 
HETATM   20  C   UNL     1     -11.534  11.184  68.276  1.00  0.00    -0.373 A  
HETATM   21  C   UNL     1     -12.535  14.343  69.825  1.00  0.00    -0.217 A  
HETATM   22  C   UNL     1     -11.384   9.968  68.937  1.00  0.00    -0.123 A  
HETATM   23  C   UNL     1     -11.574   9.874  70.312  1.00  0.00    -0.319 A  
HETATM   24  H   UNL     1     -12.762  13.644  71.821  1.00  0.00     0.000 HD 
HETATM   25  C   UNL     1     -11.956  10.988  71.067  1.00  0.00    -0.334 A  
ENDBRANCH  14  16
ENDBRANCH  13  14
ENDBRANCH   1  13
TORSDOF 3
ENDMDL
MODEL       86
REMARK 921   NORMALIZED FREE ENERGY PREDICTED BY IDOCK:   -5.76 KCAL/MOL
REMARK 922        TOTAL FREE ENERGY PREDICTED BY IDOCK:   -7.40 KCAL/MOL
REMARK 923 INTER-LIGAND FREE ENERGY PREDICTED BY IDOCK:   -5.95 KCAL/MOL
REMARK 924 INTRA-LIGAND FREE ENERGY PREDICTED BY IDOCK:   -1.44 KCAL/MOL
REMARK 927      BINDING AFFINITY PREDICTED BY RF-SCORE:    0.00 PKD
ROOT
HETATM    1  C   UNL     1      -7.228  10.944  67.942  1.00  0.00    -0.086 C  
HETATM    2  C   UNL     1      -7.922  10.297  69.154  1.00  0.00    -0.135 C  
HETATM    3  C   UNL     1      -6.606   9.812  67.133  1.00  0.00    -0.070 C  
HETATM    4  C   UNL     1      -8.788   9.051  68.831  1.00  0.00    -0.139 C  
HETATM    5  N   UNL     1      -8.110   8.050  67.942  1.00  0.00    -0.127 NA 
HETATM    6  C   UNL     1      -7.658   8.753  66.723  1.00  0.00    -0.090 C  
HETATM    7  O   UNL     1     -11.393   6.942  66.862  1.00  0.00    -0.269 OA 
HETATM    8  C   UNL     1     -10.126   9.525  68.238  1.00  0.00    -0.210 C  
HETATM    9  C   UNL     1     -10.345   7.563  67.005  1.00  0.00    -0.324 C  
HETATM   10  C   UNL     1     -10.224   9.052  66.789  1.00  0.00    -0.341 C  
HETATM   11  C   UNL     1      -9.038   6.948  67.492  1.00  0.00    -0.118 C  
HETATM   12  C   UNL     1      -8.929   9.209  65.946  1.00  0.00    -0.231 C  
ENDROOT
BRANCH   1  13
HETATM   13  O   UNL     1      -8.007  11.641  66.950  1.00  0.00    -0.158 OA 
BRANCH  13  14
HETATM   14  C   UNL     1      -8.495  12.894  67.087  1.00  0.00    -0.179 C  
HETATM   15  O   UNL     1      -7.836  13.841  67.498  1.00  0.00    -0.159 OA 
BRANCH  14  16
HETATM   16  C   UNL     1      -9.932  12.959  66.798  1.00  0.00    -0.243 A  
HETATM   17  C   UNL     1     -11.939  12.857  65.700  1.00  0.00    -0.440 A  
HETATM   18  C   UNL     1     -10.562  12.665  65.545  1.00  0.00    -0.301 A  
HETATM   19  N   UNL     1     -12.146  13.299  66.989  1.00  0.00    -0.357 NA 
HETATM   20  C   UNL     1     -10.071  12.287  64.278  1.00  0.00    -0.311 A  
HETATM   21  C   UNL     1     -10.950  13.386  67.654  1.00  0.00    -0.259 A  
HETATM   22  C   UNL     1     -10.970  12.065  63.238  1.00  0.00    -0.399 A  
HETATM   23  C   UNL     1     -12.340  12.214  63.432  1.00  0.00    -0.648 A  
HETATM   24  H   UNL     1     -13.055  13.528  67.390  1.00  0.00     0.000 HD 
HETATM   25  C   UNL     1     -12.854  12.624  64.667  1.00  0.00    -0.361 A  
ENDBRANCH  14  16
ENDBRANCH  13  14
ENDBRANCH   1  13
TORSDOF 3
ENDMDL
MODEL       87
REMARK 921   NORMALIZED FREE ENERGY PREDICTED BY IDOCK:   -5.75 KCAL/MOL
REMARK 922        TOTAL FREE ENERGY PREDICTED BY IDOCK:   -7.39 KCAL/MOL
REMARK 923 INTER-LIGAND FREE ENERGY PREDICTED BY IDOCK:   -6.49 KCAL/MOL
REMARK 924 INTRA-LIGAND FREE ENERGY PREDICTED BY IDOCK:   -0.90 KCAL/MOL
REMARK 927      BINDING AFFINITY PREDICTED BY RF-SCORE:    0.00 PKD
ROOT
HETATM    1  C   UNL     1     -11.071  11.010  68.172  1.00  0.00    -0.270 C  
HETATM    2  C   UNL     1     -12.009  11.667  67.144  1.00  0.00     0.108 C  
HETATM    3  C   UNL     1      -9.654  11.149  67.629  1.00  0.00    -0.180 C  
HETATM    4  C   UNL     1     -11.547  13.051  66.619  1.00  0.00    -0.359 C  
HETATM    5  N   UNL     1     -10.104  13.098  66.208  1.00  0.00    -0.279 NA 
HETATM    6  C   UNL     1      -9.289  12.626  67.347  1.00  0.00    -0.189 C  
HETATM    7  O   UNL     1     -10.138  16.665  66.878  1.00  0.00    -0.265 OA 
HETATM    8  C   UNL     1     -11.869  14.112  67.685  1.00  0.00    -0.427 C  
HETATM    9  C   UNL     1     -10.093  15.445  66.987  1.00  0.00    -0.249 C  
HETATM   10  C   UNL     1     -10.563  14.701  68.213  1.00  0.00    -0.235 C  
HETATM   11  C   UNL     1      -9.636  14.496  65.884  1.00  0.00    -0.247 C  
HETATM   12  C   UNL     1      -9.431  13.674  68.491  1.00  0.00    -0.143 C  
ENDROOT
BRANCH   1  13
HETATM   13  O   UNL     1     -10.950  11.563  69.497  1.00  0.00    -0.211 OA 
BRANCH  13  14
HETATM   14  C   UNL     1     -11.956  11.651  70.396  1.00  0.00    -0.358 C  
HETATM   15  O   UNL     1     -12.375  12.709  70.848  1.00  0.00    -0.374 OA 
BRANCH  14  16
HETATM   16  C   UNL     1     -12.405  10.330  70.850  1.00  0.00    -0.471 A  
HETATM   17  C   UNL     1     -12.409   8.209  71.712  1.00  0.00    -0.321 A  
HETATM   18  C   UNL     1     -11.588   9.305  71.426  1.00  0.00    -0.437 A  
HETATM   19  N   UNL     1     -13.680   8.530  71.284  1.00  0.00    -0.569 NA 
HETATM   20  C   UNL     1     -10.207   9.202  71.695  1.00  0.00    -0.372 A  
HETATM   21  C   UNL     1     -13.690   9.791  70.745  1.00  0.00     0.174 A  
HETATM   22  C   UNL     1      -9.712   8.041  72.283  1.00  0.00    -0.294 A  
HETATM   23  C   UNL     1     -10.559   6.985  72.604  1.00  0.00    -0.275 A  
HETATM   24  H   UNL     1     -14.493   7.919  71.357  1.00  0.00     0.000 HD 
HETATM   25  C   UNL     1     -11.927   7.042  72.315  1.00  0.00    -0.250 A  
ENDBRANCH  14  16
ENDBRANCH  13  14
ENDBRANCH   1  13
TORSDOF 3
ENDMDL
MODEL       88
REMARK 921   NORMALIZED FREE ENERGY PREDICTED BY IDOCK:   -5.74 KCAL/MOL
REMARK 922        TOTAL FREE ENERGY PREDICTED BY IDOCK:   -7.37 KCAL/MOL
REMARK 923 INTER-LIGAND FREE ENERGY PREDICTED BY IDOCK:   -5.90 KCAL/MOL
REMARK 924 INTRA-LIGAND FREE ENERGY PREDICTED BY IDOCK:   -1.47 KCAL/MOL
REMARK 927      BINDING AFFINITY PREDICTED BY RF-SCORE:    0.00 PKD
ROOT
HETATM    1  C   UNL     1      -8.342   5.777  71.838  1.00  0.00    -0.119 C  
HETATM    2  C   UNL     1      -9.772   5.220  71.720  1.00  0.00    -0.206 C  
HETATM    3  C   UNL     1      -7.457   4.912  70.949  1.00  0.00    -0.065 C  
HETATM    4  C   UNL     1     -10.243   4.913  70.275  1.00  0.00    -0.229 C  
HETATM    5  N   UNL     1      -9.246   4.144  69.458  1.00  0.00    -0.130 NA 
HETATM    6  C   UNL     1      -7.965   4.879  69.488  1.00  0.00    -0.070 C  
HETATM    7  O   UNL     1     -10.740   5.579  66.477  1.00  0.00    -0.296 OA 
HETATM    8  C   UNL     1     -10.635   6.237  69.596  1.00  0.00    -0.323 C  
HETATM    9  C   UNL     1     -10.083   5.395  67.497  1.00  0.00    -0.180 C  
HETATM   10  C   UNL     1      -9.678   6.504  68.436  1.00  0.00    -0.132 C  
HETATM   11  C   UNL     1      -9.649   4.026  68.008  1.00  0.00    -0.136 C  
HETATM   12  C   UNL     1      -8.178   6.224  68.730  1.00  0.00    -0.120 C  
ENDROOT
BRANCH   1  13
HETATM   13  O   UNL     1      -8.043   7.107  71.371  1.00  0.00    -0.105 OA 
BRANCH  13  14
HETATM   14  C   UNL     1      -8.393   8.249  72.005  1.00  0.00    -0.165 C  
HETATM   15  O   UNL     1      -8.150   8.476  73.184  1.00  0.00    -0.364 OA 
BRANCH  14  16
HETATM   16  C   UNL     1      -9.195   9.130  71.150  1.00  0.00    -0.301 A  
HETATM   17  C   UNL     1     -10.968  10.264  70.247  1.00  0.00    -0.309 A  
HETATM   18  C   UNL     1     -10.605   9.366  71.255  1.00  0.00    -0.400 A  
HETATM   19  N   UNL     1      -9.832  10.537  69.516  1.00  0.00    -0.383 NA 
HETATM   20  C   UNL     1     -11.612   8.859  72.103  1.00  0.00    -0.400 A  
HETATM   21  C   UNL     1      -8.764   9.848  70.031  1.00  0.00    -0.157 A  
HETATM   22  C   UNL     1     -12.921   9.306  71.948  1.00  0.00    -0.489 A  
HETATM   23  C   UNL     1     -13.247  10.239  70.969  1.00  0.00    -0.399 A  
HETATM   24  H   UNL     1      -9.791  11.160  68.710  1.00  0.00     0.000 HD 
HETATM   25  C   UNL     1     -12.278  10.731  70.089  1.00  0.00    -0.425 A  
ENDBRANCH  14  16
ENDBRANCH  13  14
ENDBRANCH   1  13
TORSDOF 3
ENDMDL
MODEL       89
REMARK 921   NORMALIZED FREE ENERGY PREDICTED BY IDOCK:   -5.71 KCAL/MOL
REMARK 922        TOTAL FREE ENERGY PREDICTED BY IDOCK:   -7.34 KCAL/MOL
REMARK 923 INTER-LIGAND FREE ENERGY PREDICTED BY IDOCK:   -6.84 KCAL/MOL
REMARK 924 INTRA-LIGAND FREE ENERGY PREDICTED BY IDOCK:   -0.50 KCAL/MOL
REMARK 927      BINDING AFFINITY PREDICTED BY RF-SCORE:    0.00 PKD
ROOT
HETATM    1  C   UNL     1      -8.839   9.089  69.039  1.00  0.00    -0.136 C  
HETATM    2  C   UNL     1      -8.666   9.274  70.556  1.00  0.00    -0.276 C  
HETATM    3  C   UNL     1      -8.537   7.626  68.735  1.00  0.00    -0.129 C  
HETATM    4  C   UNL     1      -9.328   8.180  71.435  1.00  0.00    -0.155 C  
HETATM    5  N   UNL     1      -9.044   6.778  70.980  1.00  0.00    -0.155 NA 
HETATM    6  C   UNL     1      -9.433   6.670  69.558  1.00  0.00    -0.147 C  
HETATM    7  O   UNL     1     -12.141   5.748  72.570  1.00  0.00    -0.241 OA 
HETATM    8  C   UNL     1     -10.839   8.459  71.509  1.00  0.00    -0.323 C  
HETATM    9  C   UNL     1     -11.307   6.196  71.790  1.00  0.00    -0.291 C  
HETATM   10  C   UNL     1     -11.591   7.320  70.823  1.00  0.00    -0.334 C  
HETATM   11  C   UNL     1      -9.850   5.747  71.733  1.00  0.00    -0.166 C  
HETATM   12  C   UNL     1     -10.981   6.829  69.482  1.00  0.00    -0.325 C  
ENDROOT
BRANCH   1  13
HETATM   13  O   UNL     1     -10.133   9.269  68.431  1.00  0.00    -0.177 OA 
BRANCH  13  14
HETATM   14  C   UNL     1     -10.665  10.460  68.078  1.00  0.00    -0.249 C  
HETATM   15  O   UNL     1     -11.252  11.202  68.856  1.00  0.00    -0.211 OA 
BRANCH  14  16
HETATM   16  C   UNL     1     -10.559  10.704  66.635  1.00  0.00    -0.276 A  
HETATM   17  C   UNL     1     -10.837  11.623  64.556  1.00  0.00    -0.324 A  
HETATM   18  C   UNL     1     -11.198  11.755  65.900  1.00  0.00    -0.345 A  
HETATM   19  N   UNL     1     -10.040  10.502  64.457  1.00  0.00    -0.346 NA 
HETATM   20  C   UNL     1     -12.088  12.789  66.262  1.00  0.00    -0.400 A  
HETATM   21  C   UNL     1      -9.882   9.927  65.692  1.00  0.00    -0.298 A  
HETATM   22  C   UNL     1     -12.535  13.675  65.285  1.00  0.00    -0.517 A  
HETATM   23  C   UNL     1     -12.119  13.552  63.963  1.00  0.00    -0.494 A  
HETATM   24  H   UNL     1      -9.629  10.152  63.592  1.00  0.00     0.000 HD 
HETATM   25  C   UNL     1     -11.268  12.514  63.567  1.00  0.00    -0.525 A  
ENDBRANCH  14  16
ENDBRANCH  13  14
ENDBRANCH   1  13
TORSDOF 3
ENDMDL
MODEL       90
REMARK 921   NORMALIZED FREE ENERGY PREDICTED BY IDOCK:   -5.70 KCAL/MOL
REMARK 922        TOTAL FREE ENERGY PREDICTED BY IDOCK:   -7.34 KCAL/MOL
REMARK 923 INTER-LIGAND FREE ENERGY PREDICTED BY IDOCK:   -5.91 KCAL/MOL
REMARK 924 INTRA-LIGAND FREE ENERGY PREDICTED BY IDOCK:   -1.43 KCAL/MOL
REMARK 927      BINDING AFFINITY PREDICTED BY RF-SCORE:    0.00 PKD
ROOT
HETATM    1  C   UNL     1     -10.053  11.138  65.634  1.00  0.00    -0.253 C  
HETATM    2  C   UNL     1      -8.641  11.565  66.071  1.00  0.00    -0.046 C  
HETATM    3  C   UNL     1     -10.106   9.618  65.736  1.00  0.00    -0.274 C  
HETATM    4  C   UNL     1      -8.117  10.888  67.364  1.00  0.00    -0.114 C  
HETATM    5  N   UNL     1      -8.315   9.400  67.398  1.00  0.00    -0.124 NA 
HETATM    6  C   UNL     1      -9.747   9.124  67.158  1.00  0.00    -0.182 C  
HETATM    7  O   UNL     1      -8.297   9.586  71.023  1.00  0.00    -0.294 OA 
HETATM    8  C   UNL     1      -8.768  11.576  68.576  1.00  0.00    -0.138 C  
HETATM    9  C   UNL     1      -8.621   9.627  69.841  1.00  0.00    -0.203 C  
HETATM   10  C   UNL     1      -9.665  10.572  69.297  1.00  0.00    -0.215 C  
HETATM   11  C   UNL     1      -7.972   8.797  68.739  1.00  0.00    -0.106 C  
HETATM   12  C   UNL     1     -10.542   9.679  68.377  1.00  0.00    -0.264 C  
ENDROOT
BRANCH   1  13
HETATM   13  O   UNL     1     -11.201  11.540  66.407  1.00  0.00    -0.306 OA 
BRANCH  13  14
HETATM   14  C   UNL     1     -11.807  12.745  66.327  1.00  0.00    -0.423 C  
HETATM   15  O   UNL     1     -12.504  13.096  65.383  1.00  0.00    -0.456 OA 
BRANCH  14  16
HETATM   16  C   UNL     1     -11.438  13.622  67.444  1.00  0.00    -0.365 A  
HETATM   17  C   UNL     1     -10.380  15.214  68.705  1.00  0.00    -0.232 A  
HETATM   18  C   UNL     1     -10.399  14.608  67.444  1.00  0.00    -0.241 A  
HETATM   19  N   UNL     1     -11.343  14.591  69.470  1.00  0.00    -0.265 NA 
HETATM   20  C   UNL     1      -9.445  15.011  66.487  1.00  0.00    -0.306 A  
HETATM   21  C   UNL     1     -11.972  13.619  68.735  1.00  0.00    -0.359 A  
HETATM   22  C   UNL     1      -8.551  16.031  66.803  1.00  0.00    -0.292 A  
HETATM   23  C   UNL     1      -8.587  16.652  68.048  1.00  0.00    -0.193 A  
HETATM   24  H   UNL     1     -11.556  14.819  70.441  1.00  0.00     0.000 HD 
HETATM   25  C   UNL     1      -9.497  16.248  69.032  1.00  0.00    -0.258 A  
ENDBRANCH  14  16
ENDBRANCH  13  14
ENDBRANCH   1  13
TORSDOF 3
ENDMDL
MODEL       91
REMARK 921   NORMALIZED FREE ENERGY PREDICTED BY IDOCK:   -5.69 KCAL/MOL
REMARK 922        TOTAL FREE ENERGY PREDICTED BY IDOCK:   -7.32 KCAL/MOL
REMARK 923 INTER-LIGAND FREE ENERGY PREDICTED BY IDOCK:   -6.72 KCAL/MOL
REMARK 924 INTRA-LIGAND FREE ENERGY PREDICTED BY IDOCK:   -0.60 KCAL/MOL
REMARK 927      BINDING AFFINITY PREDICTED BY RF-SCORE:    0.00 PKD
ROOT
HETATM    1  C   UNL     1      -8.762   8.693  69.432  1.00  0.00    -0.139 C  
HETATM    2  C   UNL     1      -9.122   9.306  70.797  1.00  0.00    -0.306 C  
HETATM    3  C   UNL     1      -8.491   7.212  69.671  1.00  0.00    -0.134 C  
HETATM    4  C   UNL     1     -10.136   8.491  71.640  1.00  0.00    -0.268 C  
HETATM    5  N   UNL     1      -9.825   7.024  71.721  1.00  0.00    -0.163 NA 
HETATM    6  C   UNL     1      -9.693   6.508  70.342  1.00  0.00    -0.172 C  
HETATM    7  O   UNL     1     -13.355   6.412  72.301  1.00  0.00    -0.000 OA 
HETATM    8  C   UNL     1     -11.549   8.742  71.084  1.00  0.00    -0.344 C  
HETATM    9  C   UNL     1     -12.266   6.641  71.785  1.00  0.00    -0.353 C  
HETATM   10  C   UNL     1     -12.099   7.436  70.513  1.00  0.00    -0.089 C  
HETATM   11  C   UNL     1     -10.925   6.231  72.383  1.00  0.00    -0.254 C  
HETATM   12  C   UNL     1     -11.097   6.600  69.671  1.00  0.00    -0.390 C  
ENDROOT
BRANCH   1  13
HETATM   13  O   UNL     1      -9.739   8.661  68.374  1.00  0.00    -0.156 OA 
BRANCH  13  14
HETATM   14  C   UNL     1      -9.601   9.264  67.172  1.00  0.00    -0.159 C  
HETATM   15  O   UNL     1      -8.733   8.972  66.358  1.00  0.00    -0.124 OA 
BRANCH  14  16
HETATM   16  C   UNL     1     -10.535  10.383  67.006  1.00  0.00    -0.309 A  
HETATM   17  C   UNL     1     -11.749  12.087  66.075  1.00  0.00    -0.241 A  
HETATM   18  C   UNL     1     -10.802  11.097  65.793  1.00  0.00    -0.218 A  
HETATM   19  N   UNL     1     -12.022  12.016  67.425  1.00  0.00    -0.585 NA 
HETATM   20  C   UNL     1     -10.288  11.008  64.483  1.00  0.00    -0.420 A  
HETATM   21  C   UNL     1     -11.286  11.014  68.002  1.00  0.00    -0.309 A  
HETATM   22  C   UNL     1     -10.774  11.867  63.501  1.00  0.00    -0.504 A  
HETATM   23  C   UNL     1     -11.753  12.810  63.796  1.00  0.00    -0.562 A  
HETATM   24  H   UNL     1     -12.676  12.622  67.921  1.00  0.00     0.000 HD 
HETATM   25  C   UNL     1     -12.255  12.948  65.095  1.00  0.00    -0.519 A  
ENDBRANCH  14  16
ENDBRANCH  13  14
ENDBRANCH   1  13
TORSDOF 3
ENDMDL
MODEL       92
REMARK 921   NORMALIZED FREE ENERGY PREDICTED BY IDOCK:   -5.68 KCAL/MOL
REMARK 922        TOTAL FREE ENERGY PREDICTED BY IDOCK:   -7.30 KCAL/MOL
REMARK 923 INTER-LIGAND FREE ENERGY PREDICTED BY IDOCK:   -7.08 KCAL/MOL
REMARK 924 INTRA-LIGAND FREE ENERGY PREDICTED BY IDOCK:   -0.22 KCAL/MOL
REMARK 927      BINDING AFFINITY PREDICTED BY RF-SCORE:    0.00 PKD
ROOT
HETATM    1  C   UNL     1      -9.806  12.135  67.427  1.00  0.00    -0.189 C  
HETATM    2  C   UNL     1      -8.435  11.438  67.421  1.00  0.00    -0.143 C  
HETATM    3  C   UNL     1     -10.830  11.101  66.973  1.00  0.00    -0.338 C  
HETATM    4  C   UNL     1      -8.407  10.029  68.070  1.00  0.00    -0.117 C  
HETATM    5  N   UNL     1      -9.524   9.130  67.624  1.00  0.00    -0.138 NA 
HETATM    6  C   UNL     1     -10.801   9.834  67.861  1.00  0.00    -0.242 C  
HETATM    7  O   UNL     1      -9.190   7.337  70.763  1.00  0.00    -0.156 OA 
HETATM    8  C   UNL     1      -8.386  10.195  69.599  1.00  0.00    -0.174 C  
HETATM    9  C   UNL     1      -9.474   8.158  69.898  1.00  0.00    -0.160 C  
HETATM   10  C   UNL     1      -9.679   9.627  70.180  1.00  0.00    -0.301 C  
HETATM   11  C   UNL     1      -9.582   7.842  68.410  1.00  0.00    -0.150 C  
HETATM   12  C   UNL     1     -10.975   9.985  69.402  1.00  0.00    -0.280 C  
ENDROOT
BRANCH   1  13
HETATM   13  O   UNL     1     -10.372  12.606  68.666  1.00  0.00    -0.228 OA 
BRANCH  13  14
HETATM   14  C   UNL     1     -11.466  13.393  68.770  1.00  0.00    -0.305 C  
HETATM   15  O   UNL     1     -11.833  14.169  67.896  1.00  0.00    -0.345 OA 
BRANCH  14  16
HETATM   16  C   UNL     1     -12.092  13.294  70.093  1.00  0.00    -0.403 A  
HETATM   17  C   UNL     1     -12.849  13.823  72.189  1.00  0.00    -0.271 A  
HETATM   18  C   UNL     1     -12.183  14.337  71.071  1.00  0.00    -0.428 A  
HETATM   19  N   UNL     1     -13.118  12.496  71.927  1.00  0.00    -0.407 NA 
HETATM   20  C   UNL     1     -11.720  15.669  71.115  1.00  0.00    -0.461 A  
HETATM   21  C   UNL     1     -12.651  12.158  70.683  1.00  0.00    -0.169 A  
HETATM   22  C   UNL     1     -11.984  16.445  72.240  1.00  0.00    -0.521 A  
HETATM   23  C   UNL     1     -12.694  15.924  73.318  1.00  0.00    -0.650 A  
HETATM   24  H   UNL     1     -13.594  11.859  72.566  1.00  0.00     0.000 HD 
HETATM   25  C   UNL     1     -13.133  14.596  73.320  1.00  0.00    -0.505 A  
ENDBRANCH  14  16
ENDBRANCH  13  14
ENDBRANCH   1  13
TORSDOF 3
ENDMDL
MODEL       93
REMARK 921   NORMALIZED FREE ENERGY PREDICTED BY IDOCK:   -5.67 KCAL/MOL
REMARK 922        TOTAL FREE ENERGY PREDICTED BY IDOCK:   -7.29 KCAL/MOL
REMARK 923 INTER-LIGAND FREE ENERGY PREDICTED BY IDOCK:   -5.96 KCAL/MOL
REMARK 924 INTRA-LIGAND FREE ENERGY PREDICTED BY IDOCK:   -1.33 KCAL/MOL
REMARK 927      BINDING AFFINITY PREDICTED BY RF-SCORE:    0.00 PKD
ROOT
HETATM    1  C   UNL     1      -9.248  13.651  67.937  1.00  0.00    -0.203 C  
HETATM    2  C   UNL     1      -9.230  14.536  66.678  1.00  0.00    -0.290 C  
HETATM    3  C   UNL     1     -10.663  13.714  68.501  1.00  0.00    -0.269 C  
HETATM    4  C   UNL     1     -10.425  14.333  65.711  1.00  0.00    -0.316 C  
HETATM    5  N   UNL     1     -11.764  14.310  66.391  1.00  0.00    -0.377 NA 
HETATM    6  C   UNL     1     -11.719  13.285  67.455  1.00  0.00    -0.373 C  
HETATM    7  O   UNL     1     -13.014  12.314  63.629  1.00  0.00    -0.777 OA 
HETATM    8  C   UNL     1     -10.182  13.053  64.892  1.00  0.00    -0.304 C  
HETATM    9  C   UNL     1     -12.469  12.690  64.661  1.00  0.00    -0.466 C  
HETATM   10  C   UNL     1     -11.250  12.022  65.249  1.00  0.00    -0.374 C  
HETATM   11  C   UNL     1     -12.885  13.923  65.457  1.00  0.00    -0.431 C  
HETATM   12  C   UNL     1     -11.578  11.896  66.762  1.00  0.00    -0.341 C  
ENDROOT
BRANCH   1  13
HETATM   13  O   UNL     1      -9.023  12.232  67.827  1.00  0.00    -0.162 OA 
BRANCH  13  14
HETATM   14  C   UNL     1      -7.872  11.659  67.409  1.00  0.00    -0.147 C  
HETATM   15  O   UNL     1      -6.811  12.262  67.300  1.00  0.00    -0.141 OA 
BRANCH  14  16
HETATM   16  C   UNL     1      -8.070  10.266  66.993  1.00  0.00    -0.121 A  
HETATM   17  C   UNL     1      -8.265   8.387  65.699  1.00  0.00    -0.132 A  
HETATM   18  C   UNL     1      -8.016   9.763  65.653  1.00  0.00    -0.117 A  
HETATM   19  N   UNL     1      -8.509   8.062  67.016  1.00  0.00    -0.119 NA 
HETATM   20  C   UNL     1      -7.814  10.370  64.396  1.00  0.00    -0.064 A  
HETATM   21  C   UNL     1      -8.417   9.181  67.802  1.00  0.00    -0.117 A  
HETATM   22  C   UNL     1      -7.814   9.580  63.249  1.00  0.00    -0.137 A  
HETATM   23  C   UNL     1      -8.013   8.206  63.328  1.00  0.00    -0.149 A  
HETATM   24  H   UNL     1      -8.726   7.125  67.356  1.00  0.00     0.000 HD 
HETATM   25  C   UNL     1      -8.254   7.579  64.556  1.00  0.00    -0.036 A  
ENDBRANCH  14  16
ENDBRANCH  13  14
ENDBRANCH   1  13
TORSDOF 3
ENDMDL
MODEL       94
REMARK 921   NORMALIZED FREE ENERGY PREDICTED BY IDOCK:   -5.67 KCAL/MOL
REMARK 922        TOTAL FREE ENERGY PREDICTED BY IDOCK:   -7.29 KCAL/MOL
REMARK 923 INTER-LIGAND FREE ENERGY PREDICTED BY IDOCK:   -6.55 KCAL/MOL
REMARK 924 INTRA-LIGAND FREE ENERGY PREDICTED BY IDOCK:   -0.74 KCAL/MOL
REMARK 927      BINDING AFFINITY PREDICTED BY RF-SCORE:    0.00 PKD
ROOT
HETATM    1  C   UNL     1      -8.894  11.004  68.387  1.00  0.00    -0.151 C  
HETATM    2  C   UNL     1      -9.184  10.611  66.928  1.00  0.00    -0.172 C  
HETATM    3  C   UNL     1      -8.503  12.477  68.379  1.00  0.00    -0.125 C  
HETATM    4  C   UNL     1     -10.068  11.611  66.138  1.00  0.00    -0.224 C  
HETATM    5  N   UNL     1      -9.649  13.045  66.286  1.00  0.00    -0.262 NA 
HETATM    6  C   UNL     1      -9.595  13.359  67.730  1.00  0.00    -0.213 C  
HETATM    7  O   UNL     1     -13.069  14.011  65.549  1.00  0.00    -0.713 OA 
HETATM    8  C   UNL     1     -11.535  11.402  66.552  1.00  0.00    -0.093 C  
HETATM    9  C   UNL     1     -12.045  13.628  66.104  1.00  0.00    -0.436 C  
HETATM   10  C   UNL     1     -12.037  12.658  67.259  1.00  0.00    -0.184 C  
HETATM   11  C   UNL     1     -10.634  14.007  65.666  1.00  0.00    -0.307 C  
HETATM   12  C   UNL     1     -11.051  13.290  68.280  1.00  0.00    -0.294 C  
ENDROOT
BRANCH   1  13
HETATM   13  O   UNL     1      -9.950  10.971  69.368  1.00  0.00    -0.131 OA 
BRANCH  13  14
HETATM   14  C   UNL     1     -10.063  10.055  70.356  1.00  0.00    -0.106 C  
HETATM   15  O   UNL     1      -9.172   9.274  70.667  1.00  0.00    -0.233 OA 
BRANCH  14  16
HETATM   16  C   UNL     1     -11.412  10.030  70.932  1.00  0.00    -0.452 A  
HETATM   17  C   UNL     1     -13.413   9.284  71.758  1.00  0.00    -0.415 A  
HETATM   18  C   UNL     1     -12.189   8.863  71.228  1.00  0.00    -0.351 A  
HETATM   19  N   UNL     1     -13.410  10.663  71.746  1.00  0.00    -0.374 NA 
HETATM   20  C   UNL     1     -11.969   7.481  71.053  1.00  0.00    -0.317 A  
HETATM   21  C   UNL     1     -12.225  11.126  71.234  1.00  0.00    -0.223 A  
HETATM   22  C   UNL     1     -12.947   6.578  71.461  1.00  0.00     0.003 A  
HETATM   23  C   UNL     1     -14.135   7.022  72.033  1.00  0.00    -0.251 A  
HETATM   24  H   UNL     1     -14.176  11.252  72.071  1.00  0.00     0.000 HD 
HETATM   25  C   UNL     1     -14.399   8.387  72.184  1.00  0.00    -0.520 A  
ENDBRANCH  14  16
ENDBRANCH  13  14
ENDBRANCH   1  13
TORSDOF 3
ENDMDL
MODEL       95
REMARK 921   NORMALIZED FREE ENERGY PREDICTED BY IDOCK:   -5.60 KCAL/MOL
REMARK 922        TOTAL FREE ENERGY PREDICTED BY IDOCK:   -7.21 KCAL/MOL
REMARK 923 INTER-LIGAND FREE ENERGY PREDICTED BY IDOCK:   -6.30 KCAL/MOL
REMARK 924 INTRA-LIGAND FREE ENERGY PREDICTED BY IDOCK:   -0.91 KCAL/MOL
REMARK 927      BINDING AFFINITY PREDICTED BY RF-SCORE:    0.00 PKD
ROOT
HETATM    1  C   UNL     1      -8.274  15.579  68.344  1.00  0.00    -0.145 C  
HETATM    2  C   UNL     1      -8.019  15.773  66.839  1.00  0.00    -0.285 C  
HETATM    3  C   UNL     1      -7.017  16.044  69.069  1.00  0.00    -0.165 C  
HETATM    4  C   UNL     1      -7.395  17.138  66.446  1.00  0.00    -0.299 C  
HETATM    5  N   UNL     1      -6.225  17.542  67.295  1.00  0.00    -0.135 NA 
HETATM    6  C   UNL     1      -6.651  17.504  68.710  1.00  0.00    -0.216 C  
HETATM    7  O   UNL     1      -6.971  21.002  66.493  1.00  0.00    -0.222 OA 
HETATM    8  C   UNL     1      -8.503  18.206  66.459  1.00  0.00    -0.283 C  
HETATM    9  C   UNL     1      -6.971  19.878  66.984  1.00  0.00    -0.216 C  
HETATM   10  C   UNL     1      -8.202  19.222  67.559  1.00  0.00    -0.320 C  
HETATM   11  C   UNL     1      -5.761  18.951  67.016  1.00  0.00    -0.148 C  
HETATM   12  C   UNL     1      -7.717  18.623  68.908  1.00  0.00    -0.270 C  
ENDROOT
BRANCH   1  13
HETATM   13  O   UNL     1      -9.309  16.335  69.005  1.00  0.00    -0.238 OA 
BRANCH  13  14
HETATM   14  C   UNL     1     -10.635  16.184  68.793  1.00  0.00    -0.279 C  
HETATM   15  O   UNL     1     -11.303  16.933  68.091  1.00  0.00    -0.217 OA 
BRANCH  14  16
HETATM   16  C   UNL     1     -11.199  15.091  69.593  1.00  0.00    -0.296 A  
HETATM   17  C   UNL     1     -11.848  13.005  70.279  1.00  0.00    -0.217 A  
HETATM   18  C   UNL     1     -11.212  13.701  69.246  1.00  0.00    -0.284 A  
HETATM   19  N   UNL     1     -12.254  13.938  71.209  1.00  0.00    -0.387 NA 
HETATM   20  C   UNL     1     -10.769  12.979  68.118  1.00  0.00    -0.258 A  
HETATM   21  C   UNL     1     -11.891  15.196  70.802  1.00  0.00    -0.324 A  
HETATM   22  C   UNL     1     -10.928  11.596  68.089  1.00  0.00    -0.275 A  
HETATM   23  C   UNL     1     -11.517  10.922  69.153  1.00  0.00    -0.373 A  
HETATM   24  H   UNL     1     -12.751  13.724  72.073  1.00  0.00     0.000 HD 
HETATM   25  C   UNL     1     -12.001  11.614  70.269  1.00  0.00    -0.445 A  
ENDBRANCH  14  16
ENDBRANCH  13  14
ENDBRANCH   1  13
TORSDOF 3
ENDMDL
MODEL       96
REMARK 921   NORMALIZED FREE ENERGY PREDICTED BY IDOCK:   -5.59 KCAL/MOL
REMARK 922        TOTAL FREE ENERGY PREDICTED BY IDOCK:   -7.21 KCAL/MOL
REMARK 923 INTER-LIGAND FREE ENERGY PREDICTED BY IDOCK:   -6.63 KCAL/MOL
REMARK 924 INTRA-LIGAND FREE ENERGY PREDICTED BY IDOCK:   -0.58 KCAL/MOL
REMARK 927      BINDING AFFINITY PREDICTED BY RF-SCORE:    0.00 PKD
ROOT
HETATM    1  C   UNL     1     -11.029   6.900  69.498  1.00  0.00    -0.250 C  
HETATM    2  C   UNL     1      -9.930   5.943  69.992  1.00  0.00    -0.239 C  
HETATM    3  C   UNL     1     -12.011   7.078  70.651  1.00  0.00    -0.361 C  
HETATM    4  C   UNL     1      -9.371   6.253  71.405  1.00  0.00    -0.152 C  
HETATM    5  N   UNL     1     -10.429   6.512  72.438  1.00  0.00    -0.200 NA 
HETATM    6  C   UNL     1     -11.309   7.586  71.932  1.00  0.00    -0.260 C  
HETATM    7  O   UNL     1      -8.002   8.486  74.279  1.00  0.00    -0.348 OA 
HETATM    8  C   UNL     1      -8.384   7.429  71.295  1.00  0.00    -0.110 C  
HETATM    9  C   UNL     1      -8.844   8.102  73.475  1.00  0.00    -0.241 C  
HETATM   10  C   UNL     1      -8.945   8.624  72.063  1.00  0.00    -0.286 C  
HETATM   11  C   UNL     1      -9.858   6.995  73.749  1.00  0.00    -0.303 C  
HETATM   12  C   UNL     1     -10.462   8.893  71.865  1.00  0.00    -0.415 C  
ENDROOT
BRANCH   1  13
HETATM   13  O   UNL     1     -10.702   8.263  69.159  1.00  0.00    -0.196 OA 
BRANCH  13  14
HETATM   14  C   UNL     1     -10.739   8.781  67.911  1.00  0.00    -0.107 C  
HETATM   15  O   UNL     1     -10.360   8.183  66.912  1.00  0.00    -0.303 OA 
BRANCH  14  16
HETATM   16  C   UNL     1     -11.177  10.182  67.911  1.00  0.00    -0.234 A  
HETATM   17  C   UNL     1     -11.538  12.350  67.269  1.00  0.00    -0.365 A  
HETATM   18  C   UNL     1     -10.968  11.138  66.865  1.00  0.00    -0.333 A  
HETATM   19  N   UNL     1     -12.039  12.161  68.539  1.00  0.00    -0.316 NA 
HETATM   20  C   UNL     1     -10.308  11.085  65.620  1.00  0.00    -0.311 A  
HETATM   21  C   UNL     1     -11.812  10.871  68.947  1.00  0.00    -0.270 A  
HETATM   22  C   UNL     1     -10.287  12.217  64.810  1.00  0.00    -0.320 A  
HETATM   23  C   UNL     1     -10.906  13.396  65.214  1.00  0.00    -0.318 A  
HETATM   24  H   UNL     1     -12.510  12.875  69.094  1.00  0.00     0.000 HD 
HETATM   25  C   UNL     1     -11.536  13.492  66.460  1.00  0.00    -0.391 A  
ENDBRANCH  14  16
ENDBRANCH  13  14
ENDBRANCH   1  13
TORSDOF 3
ENDMDL
MODEL       97
REMARK 921   NORMALIZED FREE ENERGY PREDICTED BY IDOCK:   -5.59 KCAL/MOL
REMARK 922        TOTAL FREE ENERGY PREDICTED BY IDOCK:   -7.20 KCAL/MOL
REMARK 923 INTER-LIGAND FREE ENERGY PREDICTED BY IDOCK:   -6.57 KCAL/MOL
REMARK 924 INTRA-LIGAND FREE ENERGY PREDICTED BY IDOCK:   -0.63 KCAL/MOL
REMARK 927      BINDING AFFINITY PREDICTED BY RF-SCORE:    0.00 PKD
ROOT
HETATM    1  C   UNL     1     -10.167   9.108  70.600  1.00  0.00    -0.246 C  
HETATM    2  C   UNL     1      -9.554   8.901  71.996  1.00  0.00    -0.277 C  
HETATM    3  C   UNL     1      -9.695   7.947  69.733  1.00  0.00    -0.176 C  
HETATM    4  C   UNL     1      -9.666   7.459  72.559  1.00  0.00    -0.160 C  
HETATM    5  N   UNL     1      -9.272   6.390  71.581  1.00  0.00    -0.145 NA 
HETATM    6  C   UNL     1     -10.069   6.578  70.351  1.00  0.00    -0.184 C  
HETATM    7  O   UNL     1     -11.421   4.092  73.392  1.00  0.00    -0.238 OA 
HETATM    8  C   UNL     1     -11.096   7.249  73.086  1.00  0.00    -0.336 C  
HETATM    9  C   UNL     1     -10.989   4.966  72.648  1.00  0.00    -0.186 C  
HETATM   10  C   UNL     1     -11.787   6.181  72.242  1.00  0.00    -0.326 C  
HETATM   11  C   UNL     1      -9.571   5.000  72.088  1.00  0.00    -0.150 C  
HETATM   12  C   UNL     1     -11.559   6.290  70.709  1.00  0.00    -0.347 C  
ENDROOT
BRANCH   1  13
HETATM   13  O   UNL     1     -11.597   9.064  70.425  1.00  0.00    -0.226 OA 
BRANCH  13  14
HETATM   14  C   UNL     1     -12.471   9.950  70.952  1.00  0.00    -0.307 C  
HETATM   15  O   UNL     1     -13.441   9.631  71.628  1.00  0.00    -0.382 OA 
BRANCH  14  16
HETATM   16  C   UNL     1     -12.188  11.324  70.522  1.00  0.00    -0.474 A  
HETATM   17  C   UNL     1     -11.616  13.129  69.233  1.00  0.00    -0.314 A  
HETATM   18  C   UNL     1     -11.786  11.740  69.212  1.00  0.00    -0.398 A  
HETATM   19  N   UNL     1     -11.860  13.548  70.524  1.00  0.00    -0.524 NA 
HETATM   20  C   UNL     1     -11.514  11.046  68.015  1.00  0.00    -0.365 A  
HETATM   21  C   UNL     1     -12.183  12.475  71.314  1.00  0.00     0.142 A  
HETATM   22  C   UNL     1     -11.139  11.762  66.881  1.00  0.00    -0.361 A  
HETATM   23  C   UNL     1     -11.028  13.149  66.916  1.00  0.00    -0.295 A  
HETATM   24  H   UNL     1     -11.808  14.515  70.844  1.00  0.00     0.000 HD 
HETATM   25  C   UNL     1     -11.253  13.862  68.099  1.00  0.00    -0.293 A  
ENDBRANCH  14  16
ENDBRANCH  13  14
ENDBRANCH   1  13
TORSDOF 3
ENDMDL
MODEL       98
REMARK 921   NORMALIZED FREE ENERGY PREDICTED BY IDOCK:   -5.58 KCAL/MOL
REMARK 922        TOTAL FREE ENERGY PREDICTED BY IDOCK:   -7.19 KCAL/MOL
REMARK 923 INTER-LIGAND FREE ENERGY PREDICTED BY IDOCK:   -6.75 KCAL/MOL
REMARK 924 INTRA-LIGAND FREE ENERGY PREDICTED BY IDOCK:   -0.44 KCAL/MOL
REMARK 927      BINDING AFFINITY PREDICTED BY RF-SCORE:    0.00 PKD
ROOT
HETATM    1  C   UNL     1     -11.243   6.774  69.657  1.00  0.00    -0.292 C  
HETATM    2  C   UNL     1     -10.122   5.805  70.074  1.00  0.00    -0.279 C  
HETATM    3  C   UNL     1     -12.230   6.833  70.818  1.00  0.00    -0.353 C  
HETATM    4  C   UNL     1      -9.571   6.011  71.509  1.00  0.00    -0.156 C  
HETATM    5  N   UNL     1     -10.636   6.159  72.557  1.00  0.00    -0.204 NA 
HETATM    6  C   UNL     1     -11.541   7.250  72.139  1.00  0.00    -0.286 C  
HETATM    7  O   UNL     1      -8.258   8.030  74.561  1.00  0.00    -0.231 OA 
HETATM    8  C   UNL     1      -8.613   7.214  71.499  1.00  0.00    -0.115 C  
HETATM    9  C   UNL     1      -9.091   7.694  73.726  1.00  0.00    -0.277 C  
HETATM   10  C   UNL     1      -9.202   8.328  72.361  1.00  0.00    -0.326 C  
HETATM   11  C   UNL     1     -10.078   6.546  73.904  1.00  0.00    -0.308 C  
HETATM   12  C   UNL     1     -10.725   8.577  72.181  1.00  0.00    -0.426 C  
ENDROOT
BRANCH   1  13
HETATM   13  O   UNL     1     -10.948   8.167  69.432  1.00  0.00    -0.146 OA 
BRANCH  13  14
HETATM   14  C   UNL     1     -10.727   8.727  68.222  1.00  0.00    -0.067 C  
HETATM   15  O   UNL     1     -10.362   8.099  67.236  1.00  0.00    -0.249 OA 
BRANCH  14  16
HETATM   16  C   UNL     1     -10.863  10.187  68.259  1.00  0.00    -0.297 A  
HETATM   17  C   UNL     1     -11.429  12.306  68.920  1.00  0.00    -0.304 A  
HETATM   18  C   UNL     1     -11.527  10.955  69.270  1.00  0.00    -0.372 A  
HETATM   19  N   UNL     1     -10.769  12.365  67.711  1.00  0.00    -0.216 NA 
HETATM   20  C   UNL     1     -12.238  10.611  70.439  1.00  0.00    -0.432 A  
HETATM   21  C   UNL     1     -10.442  11.102  67.290  1.00  0.00    -0.226 A  
HETATM   22  C   UNL     1     -12.772  11.621  71.234  1.00  0.00    -0.444 A  
HETATM   23  C   UNL     1     -12.617  12.960  70.889  1.00  0.00    -0.355 A  
HETATM   24  H   UNL     1     -10.555  13.224  67.203  1.00  0.00     0.000 HD 
HETATM   25  C   UNL     1     -11.950  13.332  69.716  1.00  0.00    -0.391 A  
ENDBRANCH  14  16
ENDBRANCH  13  14
ENDBRANCH   1  13
TORSDOF 3
ENDMDL
MODEL       99
REMARK 921   NORMALIZED FREE ENERGY PREDICTED BY IDOCK:   -5.57 KCAL/MOL
REMARK 922        TOTAL FREE ENERGY PREDICTED BY IDOCK:   -7.18 KCAL/MOL
REMARK 923 INTER-LIGAND FREE ENERGY PREDICTED BY IDOCK:   -6.00 KCAL/MOL
REMARK 924 INTRA-LIGAND FREE ENERGY PREDICTED BY IDOCK:   -1.18 KCAL/MOL
REMARK 927      BINDING AFFINITY PREDICTED BY RF-SCORE:    0.00 PKD
ROOT
HETATM    1  C   UNL     1      -8.736   7.841  69.373  1.00  0.00    -0.135 C  
HETATM    2  C   UNL     1      -8.557   8.958  70.416  1.00  0.00    -0.198 C  
HETATM    3  C   UNL     1      -9.051   6.564  70.143  1.00  0.00    -0.155 C  
HETATM    4  C   UNL     1      -9.640   9.006  71.525  1.00  0.00    -0.270 C  
HETATM    5  N   UNL     1      -9.943   7.671  72.142  1.00  0.00    -0.176 NA 
HETATM    6  C   UNL     1     -10.290   6.732  71.055  1.00  0.00    -0.206 C  
HETATM    7  O   UNL     1     -13.243   8.926  72.984  1.00  0.00    -0.312 OA 
HETATM    8  C   UNL     1     -10.905   9.664  70.946  1.00  0.00    -0.409 C  
HETATM    9  C   UNL     1     -12.271   8.462  72.397  1.00  0.00    -0.367 C  
HETATM   10  C   UNL     1     -12.033   8.635  70.917  1.00  0.00    -0.220 C  
HETATM   11  C   UNL     1     -11.127   7.717  73.076  1.00  0.00    -0.381 C  
HETATM   12  C   UNL     1     -11.632   7.216  70.429  1.00  0.00    -0.300 C  
ENDROOT
BRANCH   1  13
HETATM   13  O   UNL     1      -9.819   7.905  68.425  1.00  0.00    -0.163 OA 
BRANCH  13  14
HETATM   14  C   UNL     1      -9.675   8.091  67.094  1.00  0.00    -0.195 C  
HETATM   15  O   UNL     1      -9.784   7.196  66.264  1.00  0.00    -0.115 OA 
BRANCH  14  16
HETATM   16  C   UNL     1      -9.257   9.460  66.772  1.00  0.00    -0.179 A  
HETATM   17  C   UNL     1      -9.236  11.742  66.581  1.00  0.00    -0.198 A  
HETATM   18  C   UNL     1      -9.983  10.661  67.059  1.00  0.00    -0.243 A  
HETATM   19  N   UNL     1      -8.110  11.222  65.977  1.00  0.00    -0.345 NA 
HETATM   20  C   UNL     1     -11.236  10.917  67.655  1.00  0.00    -0.379 A  
HETATM   21  C   UNL     1      -8.118   9.854  66.064  1.00  0.00    -0.120 A  
HETATM   22  C   UNL     1     -11.666  12.234  67.797  1.00  0.00    -0.403 A  
HETATM   23  C   UNL     1     -10.879  13.294  67.358  1.00  0.00    -0.279 A  
HETATM   24  H   UNL     1      -7.378  11.775  65.532  1.00  0.00     0.000 HD 
HETATM   25  C   UNL     1      -9.649  13.070  66.729  1.00  0.00    -0.248 A  
ENDBRANCH  14  16
ENDBRANCH  13  14
ENDBRANCH   1  13
TORSDOF 3
ENDMDL
MODEL      100
REMARK 921   NORMALIZED FREE ENERGY PREDICTED BY IDOCK:   -5.54 KCAL/MOL
REMARK 922        TOTAL FREE ENERGY PREDICTED BY IDOCK:   -7.15 KCAL/MOL
REMARK 923 INTER-LIGAND FREE ENERGY PREDICTED BY IDOCK:   -6.65 KCAL/MOL
REMARK 924 INTRA-LIGAND FREE ENERGY PREDICTED BY IDOCK:   -0.50 KCAL/MOL
REMARK 927      BINDING AFFINITY PREDICTED BY RF-SCORE:    0.00 PKD
ROOT
HETATM    1  C   UNL     1      -9.667  12.195  67.911  1.00  0.00    -0.200 C  
HETATM    2  C   UNL     1      -8.819  12.710  66.735  1.00  0.00    -0.168 C  
HETATM    3  C   UNL     1     -10.430  13.393  68.464  1.00  0.00    -0.260 C  
HETATM    4  C   UNL     1      -9.564  13.640  65.742  1.00  0.00    -0.061 C  
HETATM    5  N   UNL     1     -10.367  14.722  66.404  1.00  0.00    -0.284 NA 
HETATM    6  C   UNL     1     -11.282  14.085  67.374  1.00  0.00    -0.311 C  
HETATM    7  O   UNL     1     -12.497  14.794  63.466  1.00  0.00    -0.642 OA 
HETATM    8  C   UNL     1     -10.435  12.772  64.817  1.00  0.00    -0.357 C  
HETATM    9  C   UNL     1     -11.967  14.501  64.532  1.00  0.00    -0.468 C  
HETATM   10  C   UNL     1     -11.906  13.092  65.071  1.00  0.00    -0.390 C  
HETATM   11  C   UNL     1     -11.227  15.488  65.428  1.00  0.00    -0.228 C  
HETATM   12  C   UNL     1     -12.310  13.239  66.564  1.00  0.00    -0.311 C  
ENDROOT
BRANCH   1  13
HETATM   13  O   UNL     1     -10.720  11.238  67.679  1.00  0.00    -0.201 OA 
BRANCH  13  14
HETATM   14  C   UNL     1     -10.954  10.143  68.436  1.00  0.00    -0.244 C  
HETATM   15  O   UNL     1     -11.334  10.187  69.599  1.00  0.00    -0.246 OA 
BRANCH  14  16
HETATM   16  C   UNL     1     -10.588   8.905  67.740  1.00  0.00    -0.266 A  
HETATM   17  C   UNL     1     -10.099   6.708  67.315  1.00  0.00    -0.170 A  
HETATM   18  C   UNL     1     -10.472   7.602  68.324  1.00  0.00    -0.219 A  
HETATM   19  N   UNL     1      -9.945   7.442  66.158  1.00  0.00    -0.436 NA 
HETATM   20  C   UNL     1     -10.616   7.113  69.639  1.00  0.00    -0.249 A  
HETATM   21  C   UNL     1     -10.214   8.765  66.401  1.00  0.00    -0.186 A  
HETATM   22  C   UNL     1     -10.438   5.754  69.884  1.00  0.00    -0.360 A  
HETATM   23  C   UNL     1     -10.117   4.877  68.853  1.00  0.00    -0.185 A  
HETATM   24  H   UNL     1      -9.672   7.057  65.254  1.00  0.00     0.000 HD 
HETATM   25  C   UNL     1      -9.929   5.338  67.545  1.00  0.00    -0.206 A  
ENDBRANCH  14  16
ENDBRANCH  13  14
ENDBRANCH   1  13
TORSDOF 3
ENDMDL
MODEL      101
REMARK 921   NORMALIZED FREE ENERGY PREDICTED BY IDOCK:   -5.54 KCAL/MOL
REMARK 922        TOTAL FREE ENERGY PREDICTED BY IDOCK:   -7.15 KCAL/MOL
REMARK 923 INTER-LIGAND FREE ENERGY PREDICTED BY IDOCK:   -6.11 KCAL/MOL
REMARK 924 INTRA-LIGAND FREE ENERGY PREDICTED BY IDOCK:   -1.04 KCAL/MOL
REMARK 927      BINDING AFFINITY PREDICTED BY RF-SCORE:    0.00 PKD
ROOT
HETATM    1  C   UNL     1      -8.066   7.889  69.012  1.00  0.00    -0.124 C  
HETATM    2  C   UNL     1      -7.129   7.071  68.106  1.00  0.00    -0.085 C  
HETATM    3  C   UNL     1      -9.446   7.855  68.364  1.00  0.00    -0.150 C  
HETATM    4  C   UNL     1      -7.694   5.707  67.632  1.00  0.00    -0.097 C  
HETATM    5  N   UNL     1      -9.099   5.777  67.108  1.00  0.00    -0.112 NA 
HETATM    6  C   UNL     1      -9.943   6.407  68.145  1.00  0.00    -0.136 C  
HETATM    7  O   UNL     1      -9.494   2.280  67.997  1.00  0.00    -0.207 OA 
HETATM    8  C   UNL     1      -7.567   4.695  68.784  1.00  0.00    -0.068 C  
HETATM    9  C   UNL     1      -9.417   3.503  68.026  1.00  0.00    -0.160 C  
HETATM   10  C   UNL     1      -8.964   4.279  69.239  1.00  0.00    -0.154 C  
HETATM   11  C   UNL     1      -9.687   4.414  66.833  1.00  0.00    -0.210 C  
HETATM   12  C   UNL     1      -9.998   5.432  69.360  1.00  0.00    -0.280 C  
ENDROOT
BRANCH   1  13
HETATM   13  O   UNL     1      -8.344   7.445  70.354  1.00  0.00    -0.126 OA 
BRANCH  13  14
HETATM   14  C   UNL     1      -8.501   8.257  71.423  1.00  0.00    -0.138 C  
HETATM   15  O   UNL     1      -7.587   8.887  71.941  1.00  0.00    -0.303 OA 
BRANCH  14  16
HETATM   16  C   UNL     1      -9.866   8.205  71.958  1.00  0.00    -0.298 A  
HETATM   17  C   UNL     1     -12.069   8.688  72.358  1.00  0.00    -0.345 A  
HETATM   18  C   UNL     1     -10.948   9.081  71.620  1.00  0.00    -0.435 A  
HETATM   19  N   UNL     1     -11.680   7.635  73.158  1.00  0.00    -0.636 NA 
HETATM   20  C   UNL     1     -11.057  10.204  70.773  1.00  0.00    -0.372 A  
HETATM   21  C   UNL     1     -10.356   7.346  72.946  1.00  0.00    -0.279 A  
HETATM   22  C   UNL     1     -12.284  10.852  70.655  1.00  0.00    -0.472 A  
HETATM   23  C   UNL     1     -13.397  10.408  71.362  1.00  0.00    -0.373 A  
HETATM   24  H   UNL     1     -12.288   7.142  73.812  1.00  0.00     0.000 HD 
HETATM   25  C   UNL     1     -13.311   9.321  72.239  1.00  0.00    -0.547 A  
ENDBRANCH  14  16
ENDBRANCH  13  14
ENDBRANCH   1  13
TORSDOF 3
ENDMDL
MODEL      102
REMARK 921   NORMALIZED FREE ENERGY PREDICTED BY IDOCK:   -5.52 KCAL/MOL
REMARK 922        TOTAL FREE ENERGY PREDICTED BY IDOCK:   -7.12 KCAL/MOL
REMARK 923 INTER-LIGAND FREE ENERGY PREDICTED BY IDOCK:   -5.79 KCAL/MOL
REMARK 924 INTRA-LIGAND FREE ENERGY PREDICTED BY IDOCK:   -1.32 KCAL/MOL
REMARK 927      BINDING AFFINITY PREDICTED BY RF-SCORE:    0.00 PKD
ROOT
HETATM    1  C   UNL     1     -10.865  13.150  64.238  1.00  0.00    -0.406 C  
HETATM    2  C   UNL     1     -12.264  12.868  64.813  1.00  0.00    -0.499 C  
HETATM    3  C   UNL     1     -10.438  14.515  64.763  1.00  0.00    -0.365 C  
HETATM    4  C   UNL     1     -12.428  13.168  66.326  1.00  0.00    -0.140 C  
HETATM    5  N   UNL     1     -11.879  14.499  66.748  1.00  0.00    -0.392 NA 
HETATM    6  C   UNL     1     -10.470  14.573  66.309  1.00  0.00    -0.301 C  
HETATM    7  O   UNL     1     -11.439  13.142  70.086  1.00  0.00    -0.124 OA 
HETATM    8  C   UNL     1     -11.798  12.013  67.126  1.00  0.00    -0.251 C  
HETATM    9  C   UNL     1     -11.301  13.432  68.903  1.00  0.00    -0.287 C  
HETATM   10  C   UNL     1     -10.598  12.544  67.905  1.00  0.00    -0.233 C  
HETATM   11  C   UNL     1     -11.880  14.681  68.247  1.00  0.00    -0.298 C  
HETATM   12  C   UNL     1      -9.668  13.513  67.124  1.00  0.00    -0.244 C  
ENDROOT
BRANCH   1  13
HETATM   13  O   UNL     1      -9.750  12.314  64.607  1.00  0.00    -0.135 OA 
BRANCH  13  14
HETATM   14  C   UNL     1      -9.536  11.060  64.153  1.00  0.00    -0.266 C  
HETATM   15  O   UNL     1     -10.079  10.593  63.158  1.00  0.00    -0.297 OA 
BRANCH  14  16
HETATM   16  C   UNL     1      -8.672  10.288  65.052  1.00  0.00    -0.195 A  
HETATM   17  C   UNL     1      -7.962   8.844  66.682  1.00  0.00    -0.103 A  
HETATM   18  C   UNL     1      -9.101   9.350  66.047  1.00  0.00    -0.228 A  
HETATM   19  N   UNL     1      -6.871   9.482  66.130  1.00  0.00    -0.088 NA 
HETATM   20  C   UNL     1     -10.368   8.916  66.489  1.00  0.00    -0.267 A  
HETATM   21  C   UNL     1      -7.282  10.367  65.166  1.00  0.00    -0.081 A  
HETATM   22  C   UNL     1     -10.448   7.963  67.500  1.00  0.00    -0.332 A  
HETATM   23  C   UNL     1      -9.297   7.438  68.080  1.00  0.00    -0.135 A  
HETATM   24  H   UNL     1      -5.901   9.320  66.400  1.00  0.00     0.000 HD 
HETATM   25  C   UNL     1      -8.027   7.876  67.691  1.00  0.00    -0.124 A  
ENDBRANCH  14  16
ENDBRANCH  13  14
ENDBRANCH   1  13
TORSDOF 3
ENDMDL
MODEL      103
REMARK 921   NORMALIZED FREE ENERGY PREDICTED BY IDOCK:   -5.51 KCAL/MOL
REMARK 922        TOTAL FREE ENERGY PREDICTED BY IDOCK:   -7.11 KCAL/MOL
REMARK 923 INTER-LIGAND FREE ENERGY PREDICTED BY IDOCK:   -6.06 KCAL/MOL
REMARK 924 INTRA-LIGAND FREE ENERGY PREDICTED BY IDOCK:   -1.04 KCAL/MOL
REMARK 927      BINDING AFFINITY PREDICTED BY RF-SCORE:    0.00 PKD
ROOT
HETATM    1  C   UNL     1     -10.129  10.202  66.444  1.00  0.00    -0.236 C  
HETATM    2  C   UNL     1      -8.681   9.744  66.195  1.00  0.00    -0.150 C  
HETATM    3  C   UNL     1     -10.768   9.168  67.362  1.00  0.00    -0.247 C  
HETATM    4  C   UNL     1      -7.905   9.292  67.461  1.00  0.00    -0.096 C  
HETATM    5  N   UNL     1      -8.673   8.353  68.345  1.00  0.00    -0.136 NA 
HETATM    6  C   UNL     1      -9.966   8.989  68.674  1.00  0.00    -0.172 C  
HETATM    7  O   UNL     1      -6.664   9.508  71.139  1.00  0.00    -0.220 OA 
HETATM    8  C   UNL     1      -7.444  10.545  68.226  1.00  0.00    -0.090 C  
HETATM    9  C   UNL     1      -7.508   9.406  70.255  1.00  0.00    -0.128 C  
HETATM   10  C   UNL     1      -8.152  10.591  69.578  1.00  0.00    -0.105 C  
HETATM   11  C   UNL     1      -7.973   8.083  69.655  1.00  0.00    -0.117 C  
HETATM   12  C   UNL     1      -9.664  10.239  69.554  1.00  0.00    -0.235 C  
ENDROOT
BRANCH   1  13
HETATM   13  O   UNL     1     -10.387  11.436  67.141  1.00  0.00    -0.201 OA 
BRANCH  13  14
HETATM   14  C   UNL     1     -11.362  12.317  66.825  1.00  0.00    -0.339 C  
HETATM   15  O   UNL     1     -12.164  12.149  65.915  1.00  0.00    -0.604 OA 
BRANCH  14  16
HETATM   16  C   UNL     1     -11.275  13.545  67.623  1.00  0.00    -0.304 A  
HETATM   17  C   UNL     1     -11.421  15.026  69.364  1.00  0.00    -0.300 A  
HETATM   18  C   UNL     1     -11.665  13.699  68.993  1.00  0.00    -0.375 A  
HETATM   19  N   UNL     1     -10.941  15.678  68.248  1.00  0.00    -0.300 NA 
HETATM   20  C   UNL     1     -12.242  12.829  69.941  1.00  0.00    -0.245 A  
HETATM   21  C   UNL     1     -10.867  14.809  67.190  1.00  0.00    -0.311 A  
HETATM   22  C   UNL     1     -12.502  13.297  71.226  1.00  0.00    -0.351 A  
HETATM   23  C   UNL     1     -12.202  14.607  71.584  1.00  0.00    -0.411 A  
HETATM   24  H   UNL     1     -10.679  16.663  68.215  1.00  0.00     0.000 HD 
HETATM   25  C   UNL     1     -11.664  15.505  70.656  1.00  0.00    -0.389 A  
ENDBRANCH  14  16
ENDBRANCH  13  14
ENDBRANCH   1  13
TORSDOF 3
ENDMDL
MODEL      104
REMARK 921   NORMALIZED FREE ENERGY PREDICTED BY IDOCK:   -5.50 KCAL/MOL
REMARK 922        TOTAL FREE ENERGY PREDICTED BY IDOCK:   -7.10 KCAL/MOL
REMARK 923 INTER-LIGAND FREE ENERGY PREDICTED BY IDOCK:   -5.72 KCAL/MOL
REMARK 924 INTRA-LIGAND FREE ENERGY PREDICTED BY IDOCK:   -1.38 KCAL/MOL
REMARK 927      BINDING AFFINITY PREDICTED BY RF-SCORE:    0.00 PKD
ROOT
HETATM    1  C   UNL     1      -8.576  10.202  69.335  1.00  0.00    -0.174 C  
HETATM    2  C   UNL     1     -10.088   9.979  69.515  1.00  0.00    -0.248 C  
HETATM    3  C   UNL     1      -7.886   8.908  69.750  1.00  0.00    -0.090 C  
HETATM    4  C   UNL     1     -10.628   8.635  68.958  1.00  0.00    -0.160 C  
HETATM    5  N   UNL     1      -9.809   7.439  69.348  1.00  0.00    -0.166 NA 
HETATM    6  C   UNL     1      -8.409   7.693  68.948  1.00  0.00    -0.129 C  
HETATM    7  O   UNL     1     -11.032   5.763  66.369  1.00  0.00    -0.206 OA 
HETATM    8  C   UNL     1     -10.764   8.758  67.430  1.00  0.00    -0.216 C  
HETATM    9  C   UNL     1     -10.412   6.474  67.152  1.00  0.00    -0.287 C  
HETATM   10  C   UNL     1      -9.787   7.792  66.764  1.00  0.00    -0.312 C  
HETATM   11  C   UNL     1     -10.245   6.180  68.639  1.00  0.00    -0.181 C  
HETATM   12  C   UNL     1      -8.367   7.739  67.390  1.00  0.00    -0.123 C  
ENDROOT
BRANCH   1  13
HETATM   13  O   UNL     1      -8.031  10.434  68.021  1.00  0.00    -0.103 OA 
BRANCH  13  14
HETATM   14  C   UNL     1      -8.161  11.582  67.320  1.00  0.00    -0.153 C  
HETATM   15  O   UNL     1      -7.849  12.685  67.753  1.00  0.00    -0.128 OA 
BRANCH  14  16
HETATM   16  C   UNL     1      -8.824  11.367  66.029  1.00  0.00    -0.177 A  
HETATM   17  C   UNL     1     -10.361  11.430  64.333  1.00  0.00    -0.320 A  
HETATM   18  C   UNL     1     -10.104  11.873  65.635  1.00  0.00    -0.274 A  
HETATM   19  N   UNL     1      -9.296  10.640  63.955  1.00  0.00    -0.243 NA 
HETATM   20  C   UNL     1     -11.087  12.642  66.292  1.00  0.00    -0.330 A  
HETATM   21  C   UNL     1      -8.376  10.574  64.969  1.00  0.00    -0.140 A  
HETATM   22  C   UNL     1     -12.254  12.981  65.612  1.00  0.00    -0.521 A  
HETATM   23  C   UNL     1     -12.462  12.571  64.299  1.00  0.00    -0.520 A  
HETATM   24  H   UNL     1      -9.207  10.173  63.052  1.00  0.00     0.000 HD 
HETATM   25  C   UNL     1     -11.523  11.776  63.633  1.00  0.00    -0.524 A  
ENDBRANCH  14  16
ENDBRANCH  13  14
ENDBRANCH   1  13
TORSDOF 3
ENDMDL
MODEL      105
REMARK 921   NORMALIZED FREE ENERGY PREDICTED BY IDOCK:   -5.49 KCAL/MOL
REMARK 922        TOTAL FREE ENERGY PREDICTED BY IDOCK:   -7.09 KCAL/MOL
REMARK 923 INTER-LIGAND FREE ENERGY PREDICTED BY IDOCK:   -6.45 KCAL/MOL
REMARK 924 INTRA-LIGAND FREE ENERGY PREDICTED BY IDOCK:   -0.64 KCAL/MOL
REMARK 927      BINDING AFFINITY PREDICTED BY RF-SCORE:    0.00 PKD
ROOT
HETATM    1  C   UNL     1     -12.192  14.569  66.112  1.00  0.00    -0.251 C  
HETATM    2  C   UNL     1     -12.828  13.651  65.053  1.00  0.00    -0.325 C  
HETATM    3  C   UNL     1     -11.773  13.677  67.275  1.00  0.00    -0.416 C  
HETATM    4  C   UNL     1     -12.040  12.351  64.747  1.00  0.00    -0.416 C  
HETATM    5  N   UNL     1     -11.589  11.608  65.971  1.00  0.00    -0.355 NA 
HETATM    6  C   UNL     1     -10.823  12.545  66.818  1.00  0.00    -0.249 C  
HETATM    7  O   UNL     1      -8.898  10.190  63.989  1.00  0.00    -0.189 OA 
HETATM    8  C   UNL     1     -10.858  12.700  63.825  1.00  0.00    -0.466 C  
HETATM    9  C   UNL     1      -9.598  10.933  64.668  1.00  0.00    -0.257 C  
HETATM   10  C   UNL     1      -9.551  12.439  64.571  1.00  0.00     0.138 C  
HETATM   11  C   UNL     1     -10.667  10.457  65.646  1.00  0.00     0.075 C  
HETATM   12  C   UNL     1      -9.519  12.914  66.049  1.00  0.00    -0.112 C  
ENDROOT
BRANCH   1  13
HETATM   13  O   UNL     1     -10.975  15.281  65.814  1.00  0.00    -0.338 OA 
BRANCH  13  14
HETATM   14  C   UNL     1     -10.898  16.598  65.522  1.00  0.00    -0.163 C  
HETATM   15  O   UNL     1     -11.125  17.064  64.412  1.00  0.00    -1.144 OA 
BRANCH  14  16
HETATM   16  C   UNL     1     -10.400  17.385  66.655  1.00  0.00    -0.306 A  
HETATM   17  C   UNL     1      -9.175  18.853  67.916  1.00  0.00    -0.303 A  
HETATM   18  C   UNL     1      -9.328  18.335  66.625  1.00  0.00    -0.304 A  
HETATM   19  N   UNL     1     -10.091  18.212  68.722  1.00  0.00    -0.386 NA 
HETATM   20  C   UNL     1      -8.445  18.770  65.615  1.00  0.00     0.589 A  
HETATM   21  C   UNL     1     -10.819  17.313  67.986  1.00  0.00    -0.297 A  
HETATM   22  C   UNL     1      -7.490  19.737  65.915  1.00  0.00    -0.335 A  
HETATM   23  C   UNL     1      -7.393  20.274  67.195  1.00  0.00    -0.329 A  
HETATM   24  H   UNL     1     -10.210  18.381  69.721  1.00  0.00     0.000 HD 
HETATM   25  C   UNL     1      -8.228  19.835  68.228  1.00  0.00    -0.312 A  
ENDBRANCH  14  16
ENDBRANCH  13  14
ENDBRANCH   1  13
TORSDOF 3
ENDMDL
MODEL      106
REMARK 921   NORMALIZED FREE ENERGY PREDICTED BY IDOCK:   -5.49 KCAL/MOL
REMARK 922        TOTAL FREE ENERGY PREDICTED BY IDOCK:   -7.08 KCAL/MOL
REMARK 923 INTER-LIGAND FREE ENERGY PREDICTED BY IDOCK:   -6.06 KCAL/MOL
REMARK 924 INTRA-LIGAND FREE ENERGY PREDICTED BY IDOCK:   -1.03 KCAL/MOL
REMARK 927      BINDING AFFINITY PREDICTED BY RF-SCORE:    0.00 PKD
ROOT
HETATM    1  C   UNL     1      -8.821  16.095  66.109  1.00  0.00    -0.332 C  
HETATM    2  C   UNL     1      -9.162  14.638  66.467  1.00  0.00    -0.294 C  
HETATM    3  C   UNL     1     -10.131  16.874  66.136  1.00  0.00    -0.347 C  
HETATM    4  C   UNL     1     -10.108  14.461  67.683  1.00  0.00    -0.222 C  
HETATM    5  N   UNL     1     -11.315  15.354  67.654  1.00  0.00    -0.321 NA 
HETATM    6  C   UNL     1     -10.848  16.748  67.501  1.00  0.00    -0.216 C  
HETATM    7  O   UNL     1     -11.449  15.116  71.273  1.00  0.00    -0.327 OA 
HETATM    8  C   UNL     1      -9.290  14.652  68.972  1.00  0.00    -0.118 C  
HETATM    9  C   UNL     1     -11.163  15.422  70.121  1.00  0.00    -0.302 C  
HETATM   10  C   UNL     1      -9.793  15.896  69.701  1.00  0.00    -0.238 C  
HETATM   11  C   UNL     1     -12.112  15.297  68.934  1.00  0.00    -0.192 C  
HETATM   12  C   UNL     1     -10.077  17.129  68.800  1.00  0.00    -0.329 C  
ENDROOT
BRANCH   1  13
HETATM   13  O   UNL     1      -7.980  16.876  66.980  1.00  0.00    -0.171 OA 
BRANCH  13  14
HETATM   14  C   UNL     1      -6.940  17.639  66.576  1.00  0.00    -0.241 C  
HETATM   15  O   UNL     1      -6.206  17.350  65.639  1.00  0.00    -0.040 OA 
BRANCH  14  16
HETATM   16  C   UNL     1      -6.726  18.790  67.460  1.00  0.00    -0.205 A  
HETATM   17  C   UNL     1      -6.170  20.066  69.279  1.00  0.00    -0.325 A  
HETATM   18  C   UNL     1      -6.207  18.754  68.794  1.00  0.00    -0.246 A  
HETATM   19  N   UNL     1      -6.693  20.878  68.294  1.00  0.00    -0.186 NA 
HETATM   20  C   UNL     1      -5.799  17.708  69.648  1.00  0.00    -0.242 A  
HETATM   21  C   UNL     1      -7.051  20.126  67.205  1.00  0.00    -0.254 A  
HETATM   22  C   UNL     1      -5.324  18.012  70.920  1.00  0.00    -0.228 A  
HETATM   23  C   UNL     1      -5.250  19.331  71.359  1.00  0.00    -0.340 A  
HETATM   24  H   UNL     1      -6.797  21.889  68.366  1.00  0.00     0.000 HD 
HETATM   25  C   UNL     1      -5.683  20.387  70.550  1.00  0.00    -0.342 A  
ENDBRANCH  14  16
ENDBRANCH  13  14
ENDBRANCH   1  13
TORSDOF 3
ENDMDL
MODEL      107
REMARK 921   NORMALIZED FREE ENERGY PREDICTED BY IDOCK:   -5.47 KCAL/MOL
REMARK 922        TOTAL FREE ENERGY PREDICTED BY IDOCK:   -7.07 KCAL/MOL
REMARK 923 INTER-LIGAND FREE ENERGY PREDICTED BY IDOCK:   -5.70 KCAL/MOL
REMARK 924 INTRA-LIGAND FREE ENERGY PREDICTED BY IDOCK:   -1.37 KCAL/MOL
REMARK 927      BINDING AFFINITY PREDICTED BY RF-SCORE:    0.00 PKD
ROOT
HETATM    1  C   UNL     1      -9.761   9.138  68.598  1.00  0.00    -0.155 C  
HETATM    2  C   UNL     1     -10.538   8.495  67.436  1.00  0.00    -0.304 C  
HETATM    3  C   UNL     1      -8.372   8.512  68.601  1.00  0.00    -0.123 C  
HETATM    4  C   UNL     1      -9.763   8.398  66.097  1.00  0.00    -0.153 C  
HETATM    5  N   UNL     1      -8.367   7.862  66.236  1.00  0.00    -0.119 NA 
HETATM    6  C   UNL     1      -7.659   8.684  67.239  1.00  0.00    -0.093 C  
HETATM    7  O   UNL     1      -7.489   9.653  63.203  1.00  0.00    -0.108 OA 
HETATM    8  C   UNL     1      -9.776   9.781  65.422  1.00  0.00    -0.383 C  
HETATM    9  C   UNL     1      -7.747   9.354  64.364  1.00  0.00    -0.119 C  
HETATM   10  C   UNL     1      -8.348  10.318  65.358  1.00  0.00    -0.164 C  
HETATM   11  C   UNL     1      -7.576   7.958  64.954  1.00  0.00    -0.104 C  
HETATM   12  C   UNL     1      -7.499  10.116  66.644  1.00  0.00    -0.106 C  
ENDROOT
BRANCH   1  13
HETATM   13  O   UNL     1      -9.464  10.548  68.575  1.00  0.00    -0.151 OA 
BRANCH  13  14
HETATM   14  C   UNL     1     -10.386  11.536  68.602  1.00  0.00    -0.210 C  
HETATM   15  O   UNL     1     -11.403  11.501  69.282  1.00  0.00    -0.244 OA 
BRANCH  14  16
HETATM   16  C   UNL     1     -10.083  12.598  67.636  1.00  0.00    -0.218 A  
HETATM   17  C   UNL     1     -10.251  14.054  65.876  1.00  0.00    -0.320 A  
HETATM   18  C   UNL     1     -10.915  13.024  66.550  1.00  0.00    -0.307 A  
HETATM   19  N   UNL     1      -9.031  14.225  66.495  1.00  0.00    -0.450 NA 
HETATM   20  C   UNL     1     -12.166  12.593  66.060  1.00  0.00    -0.329 A  
HETATM   21  C   UNL     1      -8.906  13.345  67.539  1.00  0.00    -0.210 A  
HETATM   22  C   UNL     1     -12.725  13.236  64.959  1.00  0.00    -0.438 A  
HETATM   23  C   UNL     1     -12.066  14.292  64.337  1.00  0.00    -0.490 A  
HETATM   24  H   UNL     1      -8.326  14.907  66.217  1.00  0.00     0.000 HD 
HETATM   25  C   UNL     1     -10.807  14.717  64.776  1.00  0.00    -0.395 A  
ENDBRANCH  14  16
ENDBRANCH  13  14
ENDBRANCH   1  13
TORSDOF 3
ENDMDL
MODEL      108
REMARK 921   NORMALIZED FREE ENERGY PREDICTED BY IDOCK:   -5.44 KCAL/MOL
REMARK 922        TOTAL FREE ENERGY PREDICTED BY IDOCK:   -7.02 KCAL/MOL
REMARK 923 INTER-LIGAND FREE ENERGY PREDICTED BY IDOCK:   -6.56 KCAL/MOL
REMARK 924 INTRA-LIGAND FREE ENERGY PREDICTED BY IDOCK:   -0.46 KCAL/MOL
REMARK 927      BINDING AFFINITY PREDICTED BY RF-SCORE:    0.00 PKD
ROOT
HETATM    1  C   UNL     1      -9.031  11.865  68.081  1.00  0.00    -0.185 C  
HETATM    2  C   UNL     1      -8.525  11.778  66.630  1.00  0.00    -0.153 C  
HETATM    3  C   UNL     1      -9.445  13.313  68.318  1.00  0.00    -0.209 C  
HETATM    4  C   UNL     1      -9.421  12.477  65.575  1.00  0.00     0.056 C  
HETATM    5  N   UNL     1      -9.853  13.862  65.962  1.00  0.00    -0.302 NA 
HETATM    6  C   UNL     1     -10.499  13.786  67.289  1.00  0.00    -0.264 C  
HETATM    7  O   UNL     1     -12.750  13.445  63.814  1.00  0.00    -0.685 OA 
HETATM    8  C   UNL     1     -10.627  11.568  65.277  1.00  0.00    -0.339 C  
HETATM    9  C   UNL     1     -11.960  13.403  64.751  1.00  0.00    -0.390 C  
HETATM   10  C   UNL     1     -11.903  12.265  65.741  1.00  0.00    -0.417 C  
HETATM   11  C   UNL     1     -10.873  14.441  65.011  1.00  0.00    -0.407 C  
HETATM   12  C   UNL     1     -11.816  12.969  67.123  1.00  0.00    -0.431 C  
ENDROOT
BRANCH   1  13
HETATM   13  O   UNL     1     -10.209  11.138  68.481  1.00  0.00    -0.183 OA 
BRANCH  13  14
HETATM   14  C   UNL     1     -10.301   9.792  68.558  1.00  0.00    -0.202 C  
HETATM   15  O   UNL     1     -10.872   9.099  67.726  1.00  0.00    -0.217 OA 
BRANCH  14  16
HETATM   16  C   UNL     1      -9.739   9.273  69.810  1.00  0.00    -0.202 A  
HETATM   17  C   UNL     1      -9.468   8.079  71.746  1.00  0.00    -0.169 A  
HETATM   18  C   UNL     1     -10.325   8.278  70.658  1.00  0.00    -0.220 A  
HETATM   19  N   UNL     1      -8.413   8.954  71.597  1.00  0.00    -0.336 NA 
HETATM   20  C   UNL     1     -11.535   7.555  70.611  1.00  0.00    -0.291 A  
HETATM   21  C   UNL     1      -8.571   9.692  70.452  1.00  0.00    -0.157 A  
HETATM   22  C   UNL     1     -11.815   6.630  71.614  1.00  0.00    -0.383 A  
HETATM   23  C   UNL     1     -10.921   6.415  72.658  1.00  0.00    -0.284 A  
HETATM   24  H   UNL     1      -7.629   9.040  72.244  1.00  0.00     0.000 HD 
HETATM   25  C   UNL     1      -9.731   7.144  72.753  1.00  0.00    -0.190 A  
ENDBRANCH  14  16
ENDBRANCH  13  14
ENDBRANCH   1  13
TORSDOF 3
ENDMDL
MODEL      109
REMARK 921   NORMALIZED FREE ENERGY PREDICTED BY IDOCK:   -5.40 KCAL/MOL
REMARK 922        TOTAL FREE ENERGY PREDICTED BY IDOCK:   -6.98 KCAL/MOL
REMARK 923 INTER-LIGAND FREE ENERGY PREDICTED BY IDOCK:   -6.17 KCAL/MOL
REMARK 924 INTRA-LIGAND FREE ENERGY PREDICTED BY IDOCK:   -0.81 KCAL/MOL
REMARK 927      BINDING AFFINITY PREDICTED BY RF-SCORE:    0.00 PKD
ROOT
HETATM    1  C   UNL     1     -11.833   7.816  71.170  1.00  0.00    -0.291 C  
HETATM    2  C   UNL     1     -11.214   6.531  70.594  1.00  0.00    -0.386 C  
HETATM    3  C   UNL     1     -11.603   7.780  72.677  1.00  0.00    -0.398 C  
HETATM    4  C   UNL     1      -9.797   6.186  71.122  1.00  0.00    -0.181 C  
HETATM    5  N   UNL     1      -9.661   6.283  72.614  1.00  0.00    -0.152 NA 
HETATM    6  C   UNL     1     -10.103   7.632  73.027  1.00  0.00    -0.304 C  
HETATM    7  O   UNL     1      -6.113   6.889  72.144  1.00  0.00    -0.038 OA 
HETATM    8  C   UNL     1      -8.774   7.078  70.398  1.00  0.00    -0.147 C  
HETATM    9  C   UNL     1      -7.330   7.011  72.223  1.00  0.00    -0.085 C  
HETATM   10  C   UNL     1      -8.119   8.011  71.414  1.00  0.00    -0.118 C  
HETATM   11  C   UNL     1      -8.233   6.130  73.079  1.00  0.00    -0.115 C  
HETATM   12  C   UNL     1      -9.084   8.658  72.446  1.00  0.00    -0.228 C  
ENDROOT
BRANCH   1  13
HETATM   13  O   UNL     1     -11.295   9.103  70.807  1.00  0.00    -0.258 OA 
BRANCH  13  14
HETATM   14  C   UNL     1     -12.033  10.204  70.538  1.00  0.00    -0.311 C  
HETATM   15  O   UNL     1     -13.015  10.542  71.188  1.00  0.00    -0.372 OA 
BRANCH  14  16
HETATM   16  C   UNL     1     -11.589  10.878  69.313  1.00  0.00    -0.388 A  
HETATM   17  C   UNL     1     -10.708  11.259  67.234  1.00  0.00    -0.251 A  
HETATM   18  C   UNL     1     -10.978  10.260  68.175  1.00  0.00    -0.328 A  
HETATM   19  N   UNL     1     -11.097  12.458  67.792  1.00  0.00    -0.233 NA 
HETATM   20  C   UNL     1     -10.596   8.934  67.880  1.00  0.00    -0.244 A  
HETATM   21  C   UNL     1     -11.607  12.250  69.047  1.00  0.00    -0.316 A  
HETATM   22  C   UNL     1     -10.014   8.651  66.647  1.00  0.00    -0.357 A  
HETATM   23  C   UNL     1      -9.803   9.656  65.708  1.00  0.00    -0.373 A  
HETATM   24  H   UNL     1     -11.016  13.368  67.337  1.00  0.00     0.000 HD 
HETATM   25  C   UNL     1     -10.137  10.986  65.986  1.00  0.00    -0.297 A  
ENDBRANCH  14  16
ENDBRANCH  13  14
ENDBRANCH   1  13
TORSDOF 3
ENDMDL
MODEL      110
REMARK 921   NORMALIZED FREE ENERGY PREDICTED BY IDOCK:   -5.40 KCAL/MOL
REMARK 922        TOTAL FREE ENERGY PREDICTED BY IDOCK:   -6.98 KCAL/MOL
REMARK 923 INTER-LIGAND FREE ENERGY PREDICTED BY IDOCK:   -5.94 KCAL/MOL
REMARK 924 INTRA-LIGAND FREE ENERGY PREDICTED BY IDOCK:   -1.04 KCAL/MOL
REMARK 927      BINDING AFFINITY PREDICTED BY RF-SCORE:    0.00 PKD
ROOT
HETATM    1  C   UNL     1     -10.866   9.637  68.716  1.00  0.00    -0.168 C  
HETATM    2  C   UNL     1     -10.349   8.478  67.845  1.00  0.00    -0.281 C  
HETATM    3  C   UNL     1     -11.184   9.052  70.086  1.00  0.00    -0.191 C  
HETATM    4  C   UNL     1      -9.299   7.560  68.524  1.00  0.00    -0.142 C  
HETATM    5  N   UNL     1      -9.672   7.128  69.912  1.00  0.00    -0.170 NA 
HETATM    6  C   UNL     1      -9.958   8.341  70.707  1.00  0.00    -0.190 C  
HETATM    7  O   UNL     1      -6.136   6.717  70.621  1.00  0.00    -0.026 OA 
HETATM    8  C   UNL     1      -7.935   8.272  68.497  1.00  0.00    -0.122 C  
HETATM    9  C   UNL     1      -7.256   7.180  70.437  1.00  0.00    -0.070 C  
HETATM   10  C   UNL     1      -7.505   8.579  69.929  1.00  0.00    -0.063 C  
HETATM   11  C   UNL     1      -8.553   6.398  70.615  1.00  0.00    -0.139 C  
HETATM   12  C   UNL     1      -8.622   9.128  70.859  1.00  0.00    -0.259 C  
ENDROOT
BRANCH   1  13
HETATM   13  O   UNL     1      -9.996  10.738  69.044  1.00  0.00    -0.196 OA 
BRANCH  13  14
HETATM   14  C   UNL     1      -9.494  11.623  68.154  1.00  0.00    -0.191 C  
HETATM   15  O   UNL     1      -8.297  11.826  67.995  1.00  0.00    -0.139 OA 
BRANCH  14  16
HETATM   16  C   UNL     1     -10.550  12.391  67.487  1.00  0.00    -0.240 A  
HETATM   17  C   UNL     1     -11.992  13.182  65.892  1.00  0.00    -0.427 A  
HETATM   18  C   UNL     1     -10.963  12.262  66.121  1.00  0.00    -0.328 A  
HETATM   19  N   UNL     1     -12.176  13.886  67.064  1.00  0.00    -0.474 NA 
HETATM   20  C   UNL     1     -10.520  11.464  65.045  1.00  0.00    -0.361 A  
HETATM   21  C   UNL     1     -11.304  13.438  68.023  1.00  0.00    -0.286 A  
HETATM   22  C   UNL     1     -11.152  11.575  63.809  1.00  0.00    -0.471 A  
HETATM   23  C   UNL     1     -12.208  12.462  63.623  1.00  0.00    -0.653 A  
HETATM   24  H   UNL     1     -12.860  14.630  67.197  1.00  0.00     0.000 HD 
HETATM   25  C   UNL     1     -12.644  13.294  64.660  1.00  0.00    -0.354 A  
ENDBRANCH  14  16
ENDBRANCH  13  14
ENDBRANCH   1  13
TORSDOF 3
ENDMDL
MODEL      111
REMARK 921   NORMALIZED FREE ENERGY PREDICTED BY IDOCK:   -5.39 KCAL/MOL
REMARK 922        TOTAL FREE ENERGY PREDICTED BY IDOCK:   -6.96 KCAL/MOL
REMARK 923 INTER-LIGAND FREE ENERGY PREDICTED BY IDOCK:   -5.80 KCAL/MOL
REMARK 924 INTRA-LIGAND FREE ENERGY PREDICTED BY IDOCK:   -1.17 KCAL/MOL
REMARK 927      BINDING AFFINITY PREDICTED BY RF-SCORE:    0.00 PKD
ROOT
HETATM    1  C   UNL     1      -9.144   5.887  70.637  1.00  0.00    -0.149 C  
HETATM    2  C   UNL     1      -9.519   5.956  72.128  1.00  0.00    -0.161 C  
HETATM    3  C   UNL     1     -10.422   5.552  69.876  1.00  0.00    -0.386 C  
HETATM    4  C   UNL     1     -10.808   6.757  72.448  1.00  0.00    -0.238 C  
HETATM    5  N   UNL     1     -11.974   6.416  71.567  1.00  0.00    -0.317 NA 
HETATM    6  C   UNL     1     -11.547   6.575  70.161  1.00  0.00    -0.402 C  
HETATM    7  O   UNL     1     -13.298   9.734  72.213  1.00  0.00    -0.443 OA 
HETATM    8  C   UNL     1     -10.477   8.259  72.397  1.00  0.00    -0.404 C  
HETATM    9  C   UNL     1     -12.658   8.783  71.776  1.00  0.00    -0.356 C  
HETATM   10  C   UNL     1     -11.250   8.901  71.247  1.00  0.00    -0.368 C  
HETATM   11  C   UNL     1     -13.150   7.339  71.774  1.00  0.00    -0.317 C  
HETATM   12  C   UNL     1     -11.272   8.090  69.922  1.00  0.00    -0.040 C  
ENDROOT
BRANCH   1  13
HETATM   13  O   UNL     1      -8.678   7.068  69.953  1.00  0.00    -0.140 OA 
BRANCH  13  14
HETATM   14  C   UNL     1      -7.779   7.075  68.944  1.00  0.00    -0.110 C  
HETATM   15  O   UNL     1      -6.588   6.828  69.090  1.00  0.00    -0.044 OA 
BRANCH  14  16
HETATM   16  C   UNL     1      -8.373   7.526  67.681  1.00  0.00    -0.118 A  
HETATM   17  C   UNL     1      -9.303   8.855  66.064  1.00  0.00    -0.242 A  
HETATM   18  C   UNL     1      -8.788   8.861  67.364  1.00  0.00    -0.136 A  
HETATM   19  N   UNL     1      -9.251   7.553  65.611  1.00  0.00    -0.387 NA 
HETATM   20  C   UNL     1      -8.805  10.069  68.091  1.00  0.00    -0.122 A  
HETATM   21  C   UNL     1      -8.715   6.741  66.577  1.00  0.00    -0.136 A  
HETATM   22  C   UNL     1      -9.279  11.226  67.479  1.00  0.00    -0.159 A  
HETATM   23  C   UNL     1      -9.739  11.203  66.166  1.00  0.00    -0.253 A  
HETATM   24  H   UNL     1      -9.564   7.241  64.693  1.00  0.00     0.000 HD 
HETATM   25  C   UNL     1      -9.771  10.012  65.432  1.00  0.00    -0.368 A  
ENDBRANCH  14  16
ENDBRANCH  13  14
ENDBRANCH   1  13
TORSDOF 3
ENDMDL
MODEL      112
REMARK 921   NORMALIZED FREE ENERGY PREDICTED BY IDOCK:   -5.36 KCAL/MOL
REMARK 922        TOTAL FREE ENERGY PREDICTED BY IDOCK:   -6.93 KCAL/MOL
REMARK 923 INTER-LIGAND FREE ENERGY PREDICTED BY IDOCK:   -5.77 KCAL/MOL
REMARK 924 INTRA-LIGAND FREE ENERGY PREDICTED BY IDOCK:   -1.17 KCAL/MOL
REMARK 927      BINDING AFFINITY PREDICTED BY RF-SCORE:    0.00 PKD
ROOT
HETATM    1  C   UNL     1     -10.805   6.180  70.847  1.00  0.00    -0.281 C  
HETATM    2  C   UNL     1     -11.409   6.308  69.437  1.00  0.00    -0.448 C  
HETATM    3  C   UNL     1     -10.017   4.876  70.873  1.00  0.00    -0.287 C  
HETATM    4  C   UNL     1     -10.431   6.006  68.271  1.00  0.00    -0.235 C  
HETATM    5  N   UNL     1      -9.632   4.748  68.454  1.00  0.00    -0.144 NA 
HETATM    6  C   UNL     1      -8.944   4.829  69.759  1.00  0.00    -0.096 C  
HETATM    7  O   UNL     1      -7.086   6.177  66.297  1.00  0.00    -0.065 OA 
HETATM    8  C   UNL     1      -9.524   7.231  68.062  1.00  0.00    -0.139 C  
HETATM    9  C   UNL     1      -7.798   5.893  67.254  1.00  0.00    -0.102 C  
HETATM   10  C   UNL     1      -8.083   6.845  68.390  1.00  0.00    -0.120 C  
HETATM   11  C   UNL     1      -8.561   4.581  67.404  1.00  0.00    -0.104 C  
HETATM   12  C   UNL     1      -7.897   5.980  69.667  1.00  0.00    -0.102 C  
ENDROOT
BRANCH   1  13
HETATM   13  O   UNL     1      -9.832   7.138  71.306  1.00  0.00    -0.178 OA 
BRANCH  13  14
HETATM   14  C   UNL     1     -10.116   8.249  72.023  1.00  0.00    -0.261 C  
HETATM   15  O   UNL     1      -9.730   8.436  73.171  1.00  0.00    -0.210 OA 
BRANCH  14  16
HETATM   16  C   UNL     1     -11.031   9.146  71.309  1.00  0.00    -0.400 A  
HETATM   17  C   UNL     1     -11.856  10.694  69.838  1.00  0.00    -0.315 A  
HETATM   18  C   UNL     1     -10.696  10.014  70.220  1.00  0.00    -0.367 A  
HETATM   19  N   UNL     1     -12.862  10.295  70.692  1.00  0.00    -0.495 NA 
HETATM   20  C   UNL     1      -9.490  10.307  69.550  1.00  0.00    -0.207 A  
HETATM   21  C   UNL     1     -12.379   9.382  71.594  1.00  0.00    -0.385 A  
HETATM   22  C   UNL     1      -9.499  11.219  68.498  1.00  0.00    -0.191 A  
HETATM   23  C   UNL     1     -10.678  11.844  68.105  1.00  0.00    -0.246 A  
HETATM   24  H   UNL     1     -13.825  10.629  70.658  1.00  0.00     0.000 HD 
HETATM   25  C   UNL     1     -11.883  11.603  68.775  1.00  0.00    -0.387 A  
ENDBRANCH  14  16
ENDBRANCH  13  14
ENDBRANCH   1  13
TORSDOF 3
ENDMDL
MODEL      113
REMARK 921   NORMALIZED FREE ENERGY PREDICTED BY IDOCK:   -5.34 KCAL/MOL
REMARK 922        TOTAL FREE ENERGY PREDICTED BY IDOCK:   -6.91 KCAL/MOL
REMARK 923 INTER-LIGAND FREE ENERGY PREDICTED BY IDOCK:   -5.84 KCAL/MOL
REMARK 924 INTRA-LIGAND FREE ENERGY PREDICTED BY IDOCK:   -1.06 KCAL/MOL
REMARK 927      BINDING AFFINITY PREDICTED BY RF-SCORE:    0.00 PKD
ROOT
HETATM    1  C   UNL     1      -8.689  10.095  66.404  1.00  0.00    -0.130 C  
HETATM    2  C   UNL     1      -9.349  11.125  65.471  1.00  0.00    -0.247 C  
HETATM    3  C   UNL     1      -7.818  10.876  67.380  1.00  0.00    -0.113 C  
HETATM    4  C   UNL     1      -9.953  12.366  66.180  1.00  0.00    -0.253 C  
HETATM    5  N   UNL     1      -9.043  12.993  67.196  1.00  0.00    -0.217 NA 
HETATM    6  C   UNL     1      -8.630  11.943  68.151  1.00  0.00    -0.165 C  
HETATM    7  O   UNL     1     -11.987  14.277  68.887  1.00  0.00    -0.325 OA 
HETATM    8  C   UNL     1     -11.305  11.966  66.798  1.00  0.00    -0.393 C  
HETATM    9  C   UNL     1     -11.079  13.561  68.479  1.00  0.00    -0.272 C  
HETATM   10  C   UNL     1     -11.207  12.066  68.319  1.00  0.00    -0.315 C  
HETATM   11  C   UNL     1      -9.724  14.073  68.000  1.00  0.00    -0.221 C  
HETATM   12  C   UNL     1      -9.899  11.504  68.942  1.00  0.00    -0.091 C  
ENDROOT
BRANCH   1  13
HETATM   13  O   UNL     1      -9.501   9.295  67.287  1.00  0.00    -0.138 OA 
BRANCH  13  14
HETATM   14  C   UNL     1      -9.285   7.992  67.573  1.00  0.00    -0.137 C  
HETATM   15  O   UNL     1      -8.479   7.288  66.977  1.00  0.00    -0.116 OA 
BRANCH  14  16
HETATM   16  C   UNL     1     -10.208   7.493  68.598  1.00  0.00    -0.210 A  
HETATM   17  C   UNL     1     -11.226   7.117  70.614  1.00  0.00    -0.280 A  
HETATM   18  C   UNL     1     -10.176   7.804  69.996  1.00  0.00    -0.210 A  
HETATM   19  N   UNL     1     -11.854   6.371  69.639  1.00  0.00    -0.523 NA 
HETATM   20  C   UNL     1      -9.317   8.585  70.796  1.00  0.00    -0.206 A  
HETATM   21  C   UNL     1     -11.242   6.569  68.428  1.00  0.00    -0.180 A  
HETATM   22  C   UNL     1      -9.568   8.693  72.162  1.00  0.00    -0.378 A  
HETATM   23  C   UNL     1     -10.650   8.039  72.743  1.00  0.00    -0.420 A  
HETATM   24  H   UNL     1     -12.657   5.762  69.796  1.00  0.00     0.000 HD 
HETATM   25  C   UNL     1     -11.498   7.227  71.982  1.00  0.00    -0.305 A  
ENDBRANCH  14  16
ENDBRANCH  13  14
ENDBRANCH   1  13
TORSDOF 3
ENDMDL
MODEL      114
REMARK 921   NORMALIZED FREE ENERGY PREDICTED BY IDOCK:   -5.31 KCAL/MOL
REMARK 922        TOTAL FREE ENERGY PREDICTED BY IDOCK:   -6.87 KCAL/MOL
REMARK 923 INTER-LIGAND FREE ENERGY PREDICTED BY IDOCK:   -6.27 KCAL/MOL
REMARK 924 INTRA-LIGAND FREE ENERGY PREDICTED BY IDOCK:   -0.60 KCAL/MOL
REMARK 927      BINDING AFFINITY PREDICTED BY RF-SCORE:    0.00 PKD
ROOT
HETATM    1  C   UNL     1     -10.844  14.584  68.986  1.00  0.00    -0.254 C  
HETATM    2  C   UNL     1      -9.523  15.029  69.636  1.00  0.00    -0.026 C  
HETATM    3  C   UNL     1     -11.545  15.847  68.500  1.00  0.00    -0.351 C  
HETATM    4  C   UNL     1      -8.705  16.068  68.826  1.00  0.00    -0.223 C  
HETATM    5  N   UNL     1      -9.519  17.218  68.309  1.00  0.00    -0.273 NA 
HETATM    6  C   UNL     1     -10.652  16.666  67.537  1.00  0.00    -0.311 C  
HETATM    7  O   UNL     1      -7.074  17.623  65.658  1.00  0.00    -0.424 OA 
HETATM    8  C   UNL     1      -7.971  15.335  67.689  1.00  0.00    -0.177 C  
HETATM    9  C   UNL     1      -8.009  17.240  66.351  1.00  0.00    -0.303 C  
HETATM   10  C   UNL     1      -8.520  15.819  66.348  1.00  0.00    -0.313 C  
HETATM   11  C   UNL     1      -8.742  18.107  67.370  1.00  0.00    -0.245 C  
HETATM   12  C   UNL     1     -10.064  15.970  66.273  1.00  0.00    -0.329 C  
ENDROOT
BRANCH   1  13
HETATM   13  O   UNL     1     -10.827  13.765  67.800  1.00  0.00    -0.245 OA 
BRANCH  13  14
HETATM   14  C   UNL     1     -11.118  12.446  67.764  1.00  0.00    -0.247 C  
HETATM   15  O   UNL     1     -12.097  11.948  68.305  1.00  0.00    -0.485 OA 
BRANCH  14  16
HETATM   16  C   UNL     1     -10.065  11.668  67.101  1.00  0.00    -0.227 A  
HETATM   17  C   UNL     1      -8.816   9.913  66.324  1.00  0.00    -0.143 A  
HETATM   18  C   UNL     1      -9.970  10.240  67.044  1.00  0.00    -0.249 A  
HETATM   19  N   UNL     1      -8.196  11.098  65.988  1.00  0.00    -0.297 NA 
HETATM   20  C   UNL     1     -10.750   9.194  67.579  1.00  0.00    -0.255 A  
HETATM   21  C   UNL     1      -8.921  12.160  66.466  1.00  0.00    -0.179 A  
HETATM   22  C   UNL     1     -10.383   7.874  67.331  1.00  0.00    -0.349 A  
HETATM   23  C   UNL     1      -9.259   7.576  66.567  1.00  0.00    -0.217 A  
HETATM   24  H   UNL     1      -7.326  11.174  65.462  1.00  0.00     0.000 HD 
HETATM   25  C   UNL     1      -8.443   8.591  66.056  1.00  0.00    -0.150 A  
ENDBRANCH  14  16
ENDBRANCH  13  14
ENDBRANCH   1  13
TORSDOF 3
ENDMDL
MODEL      115
REMARK 921   NORMALIZED FREE ENERGY PREDICTED BY IDOCK:   -5.30 KCAL/MOL
REMARK 922        TOTAL FREE ENERGY PREDICTED BY IDOCK:   -6.86 KCAL/MOL
REMARK 923 INTER-LIGAND FREE ENERGY PREDICTED BY IDOCK:   -5.92 KCAL/MOL
REMARK 924 INTRA-LIGAND FREE ENERGY PREDICTED BY IDOCK:   -0.94 KCAL/MOL
REMARK 927      BINDING AFFINITY PREDICTED BY RF-SCORE:    0.00 PKD
ROOT
HETATM    1  C   UNL     1     -10.815  15.185  66.180  1.00  0.00    -0.330 C  
HETATM    2  C   UNL     1     -10.192  14.120  65.261  1.00  0.00    -0.400 C  
HETATM    3  C   UNL     1     -12.075  14.571  66.779  1.00  0.00    -0.313 C  
HETATM    4  C   UNL     1     -10.109  12.694  65.866  1.00  0.00    -0.264 C  
HETATM    5  N   UNL     1     -11.379  12.233  66.520  1.00  0.00    -0.331 NA 
HETATM    6  C   UNL     1     -11.772  13.247  67.521  1.00  0.00    -0.366 C  
HETATM    7  O   UNL     1      -9.382  10.025  68.598  1.00  0.00    -0.147 OA 
HETATM    8  C   UNL     1      -8.917  12.643  66.838  1.00  0.00    -0.213 C  
HETATM    9  C   UNL     1      -9.953  11.000  68.121  1.00  0.00    -0.177 C  
HETATM   10  C   UNL     1      -9.439  12.412  68.254  1.00  0.00    -0.203 C  
HETATM   11  C   UNL     1     -11.211  10.929  67.262  1.00  0.00    -0.233 C  
HETATM   12  C   UNL     1     -10.695  13.238  68.647  1.00  0.00    -0.281 C  
ENDROOT
BRANCH   1  13
HETATM   13  O   UNL     1     -10.105  15.635  67.351  1.00  0.00    -0.244 OA 
BRANCH  13  14
HETATM   14  C   UNL     1     -10.108  16.903  67.820  1.00  0.00    -0.292 C  
HETATM   15  O   UNL     1     -11.118  17.585  67.936  1.00  0.00    -0.241 OA 
BRANCH  14  16
HETATM   16  C   UNL     1      -8.750  17.403  68.064  1.00  0.00    -0.241 A  
HETATM   17  C   UNL     1      -6.577  17.547  68.772  1.00  0.00    -0.216 A  
HETATM   18  C   UNL     1      -7.703  16.718  68.762  1.00  0.00    -0.242 A  
HETATM   19  N   UNL     1      -6.931  18.722  68.142  1.00  0.00    -0.238 NA 
HETATM   20  C   UNL     1      -7.631  15.474  69.422  1.00  0.00    -0.225 A  
HETATM   21  C   UNL     1      -8.237  18.659  67.730  1.00  0.00    -0.255 A  
HETATM   22  C   UNL     1      -6.432  15.085  70.015  1.00  0.00    -0.160 A  
HETATM   23  C   UNL     1      -5.311  15.908  69.966  1.00  0.00    -0.143 A  
HETATM   24  H   UNL     1      -6.312  19.520  68.003  1.00  0.00     0.000 HD 
HETATM   25  C   UNL     1      -5.362  17.164  69.352  1.00  0.00    -0.165 A  
ENDBRANCH  14  16
ENDBRANCH  13  14
ENDBRANCH   1  13
TORSDOF 3
ENDMDL
MODEL      116
REMARK 921   NORMALIZED FREE ENERGY PREDICTED BY IDOCK:   -5.30 KCAL/MOL
REMARK 922        TOTAL FREE ENERGY PREDICTED BY IDOCK:   -6.86 KCAL/MOL
REMARK 923 INTER-LIGAND FREE ENERGY PREDICTED BY IDOCK:   -5.67 KCAL/MOL
REMARK 924 INTRA-LIGAND FREE ENERGY PREDICTED BY IDOCK:   -1.19 KCAL/MOL
REMARK 927      BINDING AFFINITY PREDICTED BY RF-SCORE:    0.00 PKD
ROOT
HETATM    1  C   UNL     1     -10.190   9.686  70.413  1.00  0.00    -0.288 C  
HETATM    2  C   UNL     1      -8.684   9.771  70.111  1.00  0.00    -0.215 C  
HETATM    3  C   UNL     1     -10.833  10.926  69.802  1.00  0.00    -0.247 C  
HETATM    4  C   UNL     1      -8.323  10.154  68.652  1.00  0.00    -0.116 C  
HETATM    5  N   UNL     1      -9.094  11.327  68.120  1.00  0.00    -0.160 NA 
HETATM    6  C   UNL     1     -10.534  11.043  68.289  1.00  0.00    -0.186 C  
HETATM    7  O   UNL     1      -8.571  10.021  64.774  1.00  0.00    -0.154 OA 
HETATM    8  C   UNL     1      -8.496   8.910  67.762  1.00  0.00    -0.125 C  
HETATM    9  C   UNL     1      -8.990  10.227  65.908  1.00  0.00    -0.158 C  
HETATM   10  C   UNL     1      -9.626   9.162  66.767  1.00  0.00    -0.253 C  
HETATM   11  C   UNL     1      -8.863  11.556  66.646  1.00  0.00    -0.187 C  
HETATM   12  C   UNL     1     -10.890   9.850  67.351  1.00  0.00    -0.293 C  
ENDROOT
BRANCH   1  13
HETATM   13  O   UNL     1     -10.981   8.620  69.852  1.00  0.00    -0.234 OA 
BRANCH  13  14
HETATM   14  C   UNL     1     -11.521   7.601  70.557  1.00  0.00    -0.218 C  
HETATM   15  O   UNL     1     -12.420   7.741  71.378  1.00  0.00    -0.316 OA 
BRANCH  14  16
HETATM   16  C   UNL     1     -10.828   6.332  70.310  1.00  0.00    -0.366 A  
HETATM   17  C   UNL     1      -9.896   4.531  69.247  1.00  0.00    -0.171 A  
HETATM   18  C   UNL     1     -10.576   5.734  69.033  1.00  0.00    -0.351 A  
HETATM   19  N   UNL     1      -9.773   4.369  70.610  1.00  0.00    -0.198 NA 
HETATM   20  C   UNL     1     -10.905   6.098  67.711  1.00  0.00    -0.413 A  
HETATM   21  C   UNL     1     -10.346   5.431  71.263  1.00  0.00    -0.228 A  
HETATM   22  C   UNL     1     -10.498   5.282  66.658  1.00  0.00    -0.345 A  
HETATM   23  C   UNL     1      -9.778   4.116  66.895  1.00  0.00    -0.232 A  
HETATM   24  H   UNL     1      -9.323   3.577  71.067  1.00  0.00     0.000 HD 
HETATM   25  C   UNL     1      -9.470   3.708  68.198  1.00  0.00    -0.215 A  
ENDBRANCH  14  16
ENDBRANCH  13  14
ENDBRANCH   1  13
TORSDOF 3
ENDMDL
MODEL      117
REMARK 921   NORMALIZED FREE ENERGY PREDICTED BY IDOCK:   -5.29 KCAL/MOL
REMARK 922        TOTAL FREE ENERGY PREDICTED BY IDOCK:   -6.84 KCAL/MOL
REMARK 923 INTER-LIGAND FREE ENERGY PREDICTED BY IDOCK:   -6.31 KCAL/MOL
REMARK 924 INTRA-LIGAND FREE ENERGY PREDICTED BY IDOCK:   -0.54 KCAL/MOL
REMARK 927      BINDING AFFINITY PREDICTED BY RF-SCORE:    0.00 PKD
ROOT
HETATM    1  C   UNL     1     -10.124   7.826  70.332  1.00  0.00    -0.194 C  
HETATM    2  C   UNL     1      -8.652   7.801  69.884  1.00  0.00    -0.137 C  
HETATM    3  C   UNL     1     -10.382   6.519  71.073  1.00  0.00    -0.240 C  
HETATM    4  C   UNL     1      -7.639   7.348  70.967  1.00  0.00    -0.086 C  
HETATM    5  N   UNL     1      -8.047   6.105  71.704  1.00  0.00    -0.110 NA 
HETATM    6  C   UNL     1      -9.402   6.323  72.254  1.00  0.00    -0.145 C  
HETATM    7  O   UNL     1      -6.029   7.227  74.504  1.00  0.00    -0.079 OA 
HETATM    8  C   UNL     1      -7.392   8.523  71.929  1.00  0.00    -0.119 C  
HETATM    9  C   UNL     1      -6.930   7.069  73.687  1.00  0.00    -0.069 C  
HETATM   10  C   UNL     1      -7.914   8.151  73.315  1.00  0.00    -0.234 C  
HETATM   11  C   UNL     1      -7.144   5.798  72.873  1.00  0.00    -0.085 C  
HETATM   12  C   UNL     1      -9.293   7.436  73.340  1.00  0.00    -0.260 C  
ENDROOT
BRANCH   1  13
HETATM   13  O   UNL     1     -10.574   8.812  71.281  1.00  0.00    -0.221 OA 
BRANCH  13  14
HETATM   14  C   UNL     1     -11.794   9.395  71.275  1.00  0.00    -0.360 C  
HETATM   15  O   UNL     1     -12.817   8.838  71.653  1.00  0.00    -0.323 OA 
BRANCH  14  16
HETATM   16  C   UNL     1     -11.765  10.724  70.656  1.00  0.00    -0.442 A  
HETATM   17  C   UNL     1     -12.162  12.941  70.238  1.00  0.00    -0.289 A  
HETATM   18  C   UNL     1     -12.456  11.893  71.116  1.00  0.00    -0.365 A  
HETATM   19  N   UNL     1     -11.356  12.426  69.244  1.00  0.00    -0.346 NA 
HETATM   20  C   UNL     1     -13.339  12.138  72.188  1.00  0.00    -0.438 A  
HETATM   21  C   UNL     1     -11.126  11.093  69.469  1.00  0.00    -0.252 A  
HETATM   22  C   UNL     1     -13.848  13.421  72.372  1.00  0.00    -0.665 A  
HETATM   23  C   UNL     1     -13.499  14.458  71.513  1.00  0.00    -0.443 A  
HETATM   24  H   UNL     1     -10.985  12.958  68.458  1.00  0.00     0.000 HD 
HETATM   25  C   UNL     1     -12.655  14.238  70.418  1.00  0.00    -0.405 A  
ENDBRANCH  14  16
ENDBRANCH  13  14
ENDBRANCH   1  13
TORSDOF 3
ENDMDL
MODEL      118
REMARK 921   NORMALIZED FREE ENERGY PREDICTED BY IDOCK:   -5.28 KCAL/MOL
REMARK 922        TOTAL FREE ENERGY PREDICTED BY IDOCK:   -6.84 KCAL/MOL
REMARK 923 INTER-LIGAND FREE ENERGY PREDICTED BY IDOCK:   -6.22 KCAL/MOL
REMARK 924 INTRA-LIGAND FREE ENERGY PREDICTED BY IDOCK:   -0.61 KCAL/MOL
REMARK 927      BINDING AFFINITY PREDICTED BY RF-SCORE:    0.00 PKD
ROOT
HETATM    1  C   UNL     1     -11.831  14.024  67.502  1.00  0.00    -0.407 C  
HETATM    2  C   UNL     1     -12.266  15.192  68.405  1.00  0.00     0.036 C  
HETATM    3  C   UNL     1     -11.336  14.636  66.197  1.00  0.00    -0.350 C  
HETATM    4  C   UNL     1     -11.271  16.381  68.471  1.00  0.00    -0.334 C  
HETATM    5  N   UNL     1     -10.770  16.833  67.131  1.00  0.00    -0.246 NA 
HETATM    6  C   UNL     1     -10.200  15.660  66.436  1.00  0.00    -0.290 C  
HETATM    7  O   UNL     1      -7.800  18.102  68.786  1.00  0.00    -0.299 OA 
HETATM    8  C   UNL     1     -10.115  16.001  69.412  1.00  0.00    -0.271 C  
HETATM    9  C   UNL     1      -8.638  17.381  68.257  1.00  0.00    -0.260 C  
HETATM   10  C   UNL     1      -8.821  15.924  68.605  1.00  0.00    -0.206 C  
HETATM   11  C   UNL     1      -9.667  17.857  67.237  1.00  0.00    -0.289 C  
HETATM   12  C   UNL     1      -8.933  15.215  67.228  1.00  0.00    -0.213 C  
ENDROOT
BRANCH   1  13
HETATM   13  O   UNL     1     -10.726  13.184  67.889  1.00  0.00    -0.227 OA 
BRANCH  13  14
HETATM   14  C   UNL     1     -10.702  11.837  67.783  1.00  0.00    -0.205 C  
HETATM   15  O   UNL     1     -10.533  11.239  66.727  1.00  0.00    -0.228 OA 
BRANCH  14  16
HETATM   16  C   UNL     1     -11.015  11.179  69.056  1.00  0.00    -0.286 A  
HETATM   17  C   UNL     1     -10.933   9.762  70.853  1.00  0.00    -0.341 A  
HETATM   18  C   UNL     1     -10.302  10.087  69.648  1.00  0.00    -0.274 A  
HETATM   19  N   UNL     1     -12.026  10.595  70.977  1.00  0.00    -0.350 NA 
HETATM   20  C   UNL     1      -9.191   9.320  69.240  1.00  0.00    -0.152 A  
HETATM   21  C   UNL     1     -12.101  11.436  69.897  1.00  0.00    -0.330 A  
HETATM   22  C   UNL     1      -8.724   8.302  70.069  1.00  0.00    -0.133 A  
HETATM   23  C   UNL     1      -9.340   8.034  71.287  1.00  0.00    -0.182 A  
HETATM   24  H   UNL     1     -12.681  10.586  71.758  1.00  0.00     0.000 HD 
HETATM   25  C   UNL     1     -10.467   8.752  71.702  1.00  0.00    -0.387 A  
ENDBRANCH  14  16
ENDBRANCH  13  14
ENDBRANCH   1  13
TORSDOF 3
ENDMDL
MODEL      119
REMARK 921   NORMALIZED FREE ENERGY PREDICTED BY IDOCK:   -5.28 KCAL/MOL
REMARK 922        TOTAL FREE ENERGY PREDICTED BY IDOCK:   -6.84 KCAL/MOL
REMARK 923 INTER-LIGAND FREE ENERGY PREDICTED BY IDOCK:   -6.29 KCAL/MOL
REMARK 924 INTRA-LIGAND FREE ENERGY PREDICTED BY IDOCK:   -0.54 KCAL/MOL
REMARK 927      BINDING AFFINITY PREDICTED BY RF-SCORE:    0.00 PKD
ROOT
HETATM    1  C   UNL     1     -11.223  12.655  67.432  1.00  0.00    -0.290 C  
HETATM    2  C   UNL     1     -12.018  13.720  68.207  1.00  0.00    -0.392 C  
HETATM    3  C   UNL     1     -10.841  13.276  66.093  1.00  0.00    -0.290 C  
HETATM    4  C   UNL     1     -11.400  15.143  68.196  1.00  0.00    -0.335 C  
HETATM    5  N   UNL     1     -10.965  15.610  66.837  1.00  0.00    -0.288 NA 
HETATM    6  C   UNL     1     -10.052  14.594  66.274  1.00  0.00    -0.294 C  
HETATM    7  O   UNL     1      -8.569  17.793  68.469  1.00  0.00    -0.288 OA 
HETATM    8  C   UNL     1     -10.241  15.181  69.208  1.00  0.00    -0.251 C  
HETATM    9  C   UNL     1      -9.141  16.825  67.981  1.00  0.00    -0.228 C  
HETATM   10  C   UNL     1      -8.931  15.408  68.456  1.00  0.00    -0.192 C  
HETATM   11  C   UNL     1     -10.199  16.909  66.886  1.00  0.00    -0.296 C  
HETATM   12  C   UNL     1      -8.760  14.590  67.147  1.00  0.00    -0.237 C  
ENDROOT
BRANCH   1  13
HETATM   13  O   UNL     1      -9.953  12.194  67.932  1.00  0.00    -0.189 OA 
BRANCH  13  14
HETATM   14  C   UNL     1      -9.350  11.039  67.572  1.00  0.00    -0.159 C  
HETATM   15  O   UNL     1      -8.654  10.916  66.572  1.00  0.00    -0.145 OA 
BRANCH  14  16
HETATM   16  C   UNL     1      -9.720   9.927  68.454  1.00  0.00    -0.161 A  
HETATM   17  C   UNL     1     -10.412   7.874  69.197  1.00  0.00    -0.209 A  
HETATM   18  C   UNL     1     -10.158   8.626  68.045  1.00  0.00    -0.241 A  
HETATM   19  N   UNL     1     -10.183   8.698  70.279  1.00  0.00    -0.189 NA 
HETATM   20  C   UNL     1     -10.397   8.034  66.787  1.00  0.00    -0.360 A  
HETATM   21  C   UNL     1      -9.788   9.939  69.850  1.00  0.00    -0.245 A  
HETATM   22  C   UNL     1     -10.824   6.710  66.727  1.00  0.00    -0.322 A  
HETATM   23  C   UNL     1     -11.020   5.969  67.888  1.00  0.00    -0.334 A  
HETATM   24  H   UNL     1     -10.292   8.424  71.255  1.00  0.00     0.000 HD 
HETATM   25  C   UNL     1     -10.829   6.539  69.151  1.00  0.00    -0.354 A  
ENDBRANCH  14  16
ENDBRANCH  13  14
ENDBRANCH   1  13
TORSDOF 3
ENDMDL
MODEL      120
REMARK 921   NORMALIZED FREE ENERGY PREDICTED BY IDOCK:   -5.28 KCAL/MOL
REMARK 922        TOTAL FREE ENERGY PREDICTED BY IDOCK:   -6.84 KCAL/MOL
REMARK 923 INTER-LIGAND FREE ENERGY PREDICTED BY IDOCK:   -6.13 KCAL/MOL
REMARK 924 INTRA-LIGAND FREE ENERGY PREDICTED BY IDOCK:   -0.71 KCAL/MOL
REMARK 927      BINDING AFFINITY PREDICTED BY RF-SCORE:    0.00 PKD
ROOT
HETATM    1  C   UNL     1     -10.408   9.358  69.818  1.00  0.00    -0.223 C  
HETATM    2  C   UNL     1     -10.295   7.886  69.384  1.00  0.00    -0.220 C  
HETATM    3  C   UNL     1      -9.013   9.962  69.701  1.00  0.00    -0.232 C  
HETATM    4  C   UNL     1      -9.485   7.642  68.084  1.00  0.00    -0.145 C  
HETATM    5  N   UNL     1      -8.173   8.368  68.036  1.00  0.00    -0.126 NA 
HETATM    6  C   UNL     1      -8.435   9.803  68.274  1.00  0.00    -0.114 C  
HETATM    7  O   UNL     1      -8.374   8.274  64.413  1.00  0.00    -0.151 OA 
HETATM    8  C   UNL     1     -10.375   7.994  66.879  1.00  0.00    -0.408 C  
HETATM    9  C   UNL     1      -8.519   8.564  65.595  1.00  0.00    -0.155 C  
HETATM   10  C   UNL     1      -9.774   9.193  66.150  1.00  0.00    -0.357 C  
HETATM   11  C   UNL     1      -7.499   8.265  66.689  1.00  0.00    -0.086 C  
HETATM   12  C   UNL     1      -9.254  10.338  67.061  1.00  0.00    -0.169 C  
ENDROOT
BRANCH   1  13
HETATM   13  O   UNL     1     -11.207  10.279  69.050  1.00  0.00    -0.230 OA 
BRANCH  13  14
HETATM   14  C   UNL     1     -11.833  11.367  69.551  1.00  0.00    -0.357 C  
HETATM   15  O   UNL     1     -12.492  11.360  70.584  1.00  0.00    -0.338 OA 
BRANCH  14  16
HETATM   16  C   UNL     1     -11.728  12.524  68.655  1.00  0.00    -0.368 A  
HETATM   17  C   UNL     1     -11.477  14.666  67.884  1.00  0.00    -0.329 A  
HETATM   18  C   UNL     1     -11.506  13.885  69.044  1.00  0.00    -0.341 A  
HETATM   19  N   UNL     1     -11.720  13.823  66.820  1.00  0.00    -0.369 NA 
HETATM   20  C   UNL     1     -11.364  14.525  70.293  1.00  0.00    -0.225 A  
HETATM   21  C   UNL     1     -11.893  12.539  67.268  1.00  0.00    -0.311 A  
HETATM   22  C   UNL     1     -11.147  15.900  70.333  1.00  0.00    -0.382 A  
HETATM   23  C   UNL     1     -11.072  16.646  69.161  1.00  0.00    -0.219 A  
HETATM   24  H   UNL     1     -11.763  14.113  65.844  1.00  0.00     0.000 HD 
HETATM   25  C   UNL     1     -11.247  16.046  67.909  1.00  0.00    -0.276 A  
ENDBRANCH  14  16
ENDBRANCH  13  14
ENDBRANCH   1  13
TORSDOF 3
ENDMDL
MODEL      121
REMARK 921   NORMALIZED FREE ENERGY PREDICTED BY IDOCK:   -5.28 KCAL/MOL
REMARK 922        TOTAL FREE ENERGY PREDICTED BY IDOCK:   -6.83 KCAL/MOL
REMARK 923 INTER-LIGAND FREE ENERGY PREDICTED BY IDOCK:   -5.75 KCAL/MOL
REMARK 924 INTRA-LIGAND FREE ENERGY PREDICTED BY IDOCK:   -1.09 KCAL/MOL
REMARK 927      BINDING AFFINITY PREDICTED BY RF-SCORE:    0.00 PKD
ROOT
HETATM    1  C   UNL     1      -9.050  15.485  65.777  1.00  0.00    -0.070 C  
HETATM    2  C   UNL     1     -10.235  16.468  65.779  1.00  0.00    -0.350 C  
HETATM    3  C   UNL     1      -8.051  15.996  66.808  1.00  0.00    -0.302 C  
HETATM    4  C   UNL     1     -10.755  16.870  67.184  1.00  0.00    -0.180 C  
HETATM    5  N   UNL     1      -9.673  17.257  68.149  1.00  0.00    -0.273 NA 
HETATM    6  C   UNL     1      -8.695  16.150  68.207  1.00  0.00    -0.180 C  
HETATM    7  O   UNL     1     -11.889  16.295  70.858  1.00  0.00    -0.341 OA 
HETATM    8  C   UNL     1     -11.623  15.724  67.732  1.00  0.00    -0.097 C  
HETATM    9  C   UNL     1     -11.091  16.287  69.927  1.00  0.00    -0.347 C  
HETATM   10  C   UNL     1     -10.946  15.132  68.966  1.00  0.00    -0.245 C  
HETATM   11  C   UNL     1     -10.189  17.458  69.553  1.00  0.00    -0.014 C  
HETATM   12  C   UNL     1      -9.411  14.925  68.851  1.00  0.00    -0.197 C  
ENDROOT
BRANCH   1  13
HETATM   13  O   UNL     1      -9.245  14.117  66.187  1.00  0.00    -0.189 OA 
BRANCH  13  14
HETATM   14  C   UNL     1     -10.065  13.234  65.575  1.00  0.00    -0.263 C  
HETATM   15  O   UNL     1     -10.464  13.358  64.424  1.00  0.00    -0.426 OA 
BRANCH  14  16
HETATM   16  C   UNL     1     -10.510  12.174  66.487  1.00  0.00    -0.254 A  
HETATM   17  C   UNL     1     -10.548  10.273  67.764  1.00  0.00    -0.250 A  
HETATM   18  C   UNL     1      -9.751  11.030  66.898  1.00  0.00    -0.215 A  
HETATM   19  N   UNL     1     -11.771  10.904  67.848  1.00  0.00    -0.682 NA 
HETATM   20  C   UNL     1      -8.464  10.554  66.575  1.00  0.00    -0.139 A  
HETATM   21  C   UNL     1     -11.772  12.034  67.071  1.00  0.00    -0.267 A  
HETATM   22  C   UNL     1      -8.004   9.379  67.165  1.00  0.00    -0.102 A  
HETATM   23  C   UNL     1      -8.797   8.672  68.063  1.00  0.00    -0.141 A  
HETATM   24  H   UNL     1     -12.559  10.578  68.406  1.00  0.00     0.000 HD 
HETATM   25  C   UNL     1     -10.093   9.099  68.374  1.00  0.00    -0.220 A  
ENDBRANCH  14  16
ENDBRANCH  13  14
ENDBRANCH   1  13
TORSDOF 3
ENDMDL
MODEL      122
REMARK 921   NORMALIZED FREE ENERGY PREDICTED BY IDOCK:   -5.27 KCAL/MOL
REMARK 922        TOTAL FREE ENERGY PREDICTED BY IDOCK:   -6.83 KCAL/MOL
REMARK 923 INTER-LIGAND FREE ENERGY PREDICTED BY IDOCK:   -6.13 KCAL/MOL
REMARK 924 INTRA-LIGAND FREE ENERGY PREDICTED BY IDOCK:   -0.70 KCAL/MOL
REMARK 927      BINDING AFFINITY PREDICTED BY RF-SCORE:    0.00 PKD
ROOT
HETATM    1  C   UNL     1     -10.596  12.578  65.379  1.00  0.00    -0.281 C  
HETATM    2  C   UNL     1      -9.523  11.511  65.099  1.00  0.00    -0.190 C  
HETATM    3  C   UNL     1     -11.777  11.858  66.020  1.00  0.00    -0.209 C  
HETATM    4  C   UNL     1      -9.249  10.528  66.267  1.00  0.00    -0.168 C  
HETATM    5  N   UNL     1     -10.491   9.959  66.890  1.00  0.00    -0.233 NA 
HETATM    6  C   UNL     1     -11.358  11.086  67.294  1.00  0.00    -0.188 C  
HETATM    7  O   UNL     1      -8.605   9.474  69.954  1.00  0.00    -0.165 OA 
HETATM    8  C   UNL     1      -8.364  11.237  67.308  1.00  0.00    -0.145 C  
HETATM    9  C   UNL     1      -9.257   9.955  69.033  1.00  0.00    -0.168 C  
HETATM   10  C   UNL     1      -9.153  11.398  68.605  1.00  0.00    -0.138 C  
HETATM   11  C   UNL     1     -10.203   9.161  68.138  1.00  0.00    -0.207 C  
HETATM   12  C   UNL     1     -10.629  11.852  68.439  1.00  0.00    -0.239 C  
ENDROOT
BRANCH   1  13
HETATM   13  O   UNL     1     -10.334  13.639  66.318  1.00  0.00    -0.281 OA 
BRANCH  13  14
HETATM   14  C   UNL     1     -10.632  14.942  66.119  1.00  0.00    -0.318 C  
HETATM   15  O   UNL     1     -10.843  15.433  65.017  1.00  0.00    -0.399 OA 
BRANCH  14  16
HETATM   16  C   UNL     1     -10.560  15.719  67.361  1.00  0.00    -0.313 A  
HETATM   17  C   UNL     1     -10.904  16.422  69.514  1.00  0.00    -0.338 A  
HETATM   18  C   UNL     1     -11.246  15.432  68.586  1.00  0.00    -0.312 A  
HETATM   19  N   UNL     1     -10.072  17.313  68.870  1.00  0.00    -0.325 NA 
HETATM   20  C   UNL     1     -12.163  14.433  68.973  1.00  0.00    -0.233 A  
HETATM   21  C   UNL     1      -9.873  16.918  67.572  1.00  0.00    -0.260 A  
HETATM   22  C   UNL     1     -12.656  14.427  70.275  1.00  0.00    -0.380 A  
HETATM   23  C   UNL     1     -12.260  15.394  71.193  1.00  0.00    -0.429 A  
HETATM   24  H   UNL     1      -9.664  18.145  69.297  1.00  0.00     0.000 HD 
HETATM   25  C   UNL     1     -11.382  16.421  70.829  1.00  0.00    -0.211 A  
ENDBRANCH  14  16
ENDBRANCH  13  14
ENDBRANCH   1  13
TORSDOF 3
ENDMDL
MODEL      123
REMARK 921   NORMALIZED FREE ENERGY PREDICTED BY IDOCK:   -5.27 KCAL/MOL
REMARK 922        TOTAL FREE ENERGY PREDICTED BY IDOCK:   -6.82 KCAL/MOL
REMARK 923 INTER-LIGAND FREE ENERGY PREDICTED BY IDOCK:   -5.81 KCAL/MOL
REMARK 924 INTRA-LIGAND FREE ENERGY PREDICTED BY IDOCK:   -1.01 KCAL/MOL
REMARK 927      BINDING AFFINITY PREDICTED BY RF-SCORE:    0.00 PKD
ROOT
HETATM    1  C   UNL     1     -10.901  14.905  68.530  1.00  0.00    -0.247 C  
HETATM    2  C   UNL     1      -9.586  15.249  69.252  1.00  0.00    -0.249 C  
HETATM    3  C   UNL     1     -11.621  16.224  68.273  1.00  0.00    -0.118 C  
HETATM    4  C   UNL     1      -8.785  16.427  68.639  1.00  0.00    -0.234 C  
HETATM    5  N   UNL     1      -9.618  17.638  68.332  1.00  0.00    -0.297 NA 
HETATM    6  C   UNL     1     -10.742  17.213  67.472  1.00  0.00    -0.276 C  
HETATM    7  O   UNL     1      -7.180  18.542  65.799  1.00  0.00    -0.416 OA 
HETATM    8  C   UNL     1      -8.041  15.918  67.393  1.00  0.00    -0.187 C  
HETATM    9  C   UNL     1      -8.109  18.027  66.412  1.00  0.00    -0.260 C  
HETATM   10  C   UNL     1      -8.597  16.622  66.158  1.00  0.00    -0.324 C  
HETATM   11  C   UNL     1      -8.854  18.691  67.566  1.00  0.00    -0.270 C  
HETATM   12  C   UNL     1     -10.143  16.760  66.106  1.00  0.00    -0.360 C  
ENDROOT
BRANCH   1  13
HETATM   13  O   UNL     1     -10.871  14.309  67.218  1.00  0.00    -0.277 OA 
BRANCH  13  14
HETATM   14  C   UNL     1     -11.300  13.062  66.923  1.00  0.00    -0.311 C  
HETATM   15  O   UNL     1     -12.313  12.560  67.394  1.00  0.00    -0.338 OA 
BRANCH  14  16
HETATM   16  C   UNL     1     -10.350  12.341  66.068  1.00  0.00    -0.273 A  
HETATM   17  C   UNL     1      -8.546  11.117  65.368  1.00  0.00    -0.009 A  
HETATM   18  C   UNL     1      -9.162  11.664  66.497  1.00  0.00    -0.205 A  
HETATM   19  N   UNL     1      -9.303  11.482  64.274  1.00  0.00    -0.423 NA 
HETATM   20  C   UNL     1      -8.537  11.504  67.752  1.00  0.00    -0.138 A  
HETATM   21  C   UNL     1     -10.376  12.235  64.675  1.00  0.00    -0.301 A  
HETATM   22  C   UNL     1      -7.361  10.764  67.837  1.00  0.00    -0.088 A  
HETATM   23  C   UNL     1      -6.796  10.186  66.704  1.00  0.00    -0.084 A  
HETATM   24  H   UNL     1      -9.094  11.230  63.309  1.00  0.00     0.000 HD 
HETATM   25  C   UNL     1      -7.372  10.360  65.441  1.00  0.00    -0.124 A  
ENDBRANCH  14  16
ENDBRANCH  13  14
ENDBRANCH   1  13
TORSDOF 3
ENDMDL
MODEL      124
REMARK 921   NORMALIZED FREE ENERGY PREDICTED BY IDOCK:   -5.26 KCAL/MOL
REMARK 922        TOTAL FREE ENERGY PREDICTED BY IDOCK:   -6.81 KCAL/MOL
REMARK 923 INTER-LIGAND FREE ENERGY PREDICTED BY IDOCK:   -5.78 KCAL/MOL
REMARK 924 INTRA-LIGAND FREE ENERGY PREDICTED BY IDOCK:   -1.03 KCAL/MOL
REMARK 927      BINDING AFFINITY PREDICTED BY RF-SCORE:    0.00 PKD
ROOT
HETATM    1  C   UNL     1      -8.123   8.363  69.066  1.00  0.00    -0.116 C  
HETATM    2  C   UNL     1      -8.051   7.561  70.377  1.00  0.00    -0.111 C  
HETATM    3  C   UNL     1      -9.344   7.858  68.306  1.00  0.00    -0.145 C  
HETATM    4  C   UNL     1      -9.395   7.419  71.139  1.00  0.00    -0.155 C  
HETATM    5  N   UNL     1     -10.550   7.016  70.269  1.00  0.00    -0.219 NA 
HETATM    6  C   UNL     1     -10.636   7.977  69.149  1.00  0.00    -0.169 C  
HETATM    7  O   UNL     1     -12.768   8.615  72.656  1.00  0.00    -0.365 OA 
HETATM    8  C   UNL     1      -9.677   8.734  71.886  1.00  0.00    -0.386 C  
HETATM    9  C   UNL     1     -11.975   8.393  71.748  1.00  0.00    -0.325 C  
HETATM   10  C   UNL     1     -10.928   9.383  71.298  1.00  0.00    -0.440 C  
HETATM   11  C   UNL     1     -11.872   7.071  70.995  1.00  0.00    -0.351 C  
HETATM   12  C   UNL     1     -11.027   9.361  69.748  1.00  0.00    -0.234 C  
ENDROOT
BRANCH   1  13
HETATM   13  O   UNL     1      -8.348   9.786  69.101  1.00  0.00    -0.119 OA 
BRANCH  13  14
HETATM   14  C   UNL     1      -7.668  10.697  68.369  1.00  0.00    -0.106 C  
HETATM   15  O   UNL     1      -6.561  11.126  68.671  1.00  0.00    -0.054 OA 
BRANCH  14  16
HETATM   16  C   UNL     1      -8.458  11.194  67.237  1.00  0.00    -0.137 A  
HETATM   17  C   UNL     1     -10.088  12.233  66.008  1.00  0.00    -0.248 A  
HETATM   18  C   UNL     1      -9.654  11.979  67.314  1.00  0.00    -0.185 A  
HETATM   19  N   UNL     1      -9.216  11.588  65.157  1.00  0.00    -0.398 NA 
HETATM   20  C   UNL     1     -10.428  12.465  68.388  1.00  0.00    -0.245 A  
HETATM   21  C   UNL     1      -8.245  10.942  65.879  1.00  0.00    -0.133 A  
HETATM   22  C   UNL     1     -11.564  13.224  68.121  1.00  0.00    -0.373 A  
HETATM   23  C   UNL     1     -11.945  13.505  66.813  1.00  0.00    -0.453 A  
HETATM   24  H   UNL     1      -9.283  11.590  64.140  1.00  0.00     0.000 HD 
HETATM   25  C   UNL     1     -11.219  13.006  65.726  1.00  0.00    -0.316 A  
ENDBRANCH  14  16
ENDBRANCH  13  14
ENDBRANCH   1  13
TORSDOF 3
ENDMDL
MODEL      125
REMARK 921   NORMALIZED FREE ENERGY PREDICTED BY IDOCK:   -5.25 KCAL/MOL
REMARK 922        TOTAL FREE ENERGY PREDICTED BY IDOCK:   -6.80 KCAL/MOL
REMARK 923 INTER-LIGAND FREE ENERGY PREDICTED BY IDOCK:   -6.23 KCAL/MOL
REMARK 924 INTRA-LIGAND FREE ENERGY PREDICTED BY IDOCK:   -0.57 KCAL/MOL
REMARK 927      BINDING AFFINITY PREDICTED BY RF-SCORE:    0.00 PKD
ROOT
HETATM    1  C   UNL     1     -10.954  10.479  68.909  1.00  0.00    -0.246 C  
HETATM    2  C   UNL     1     -11.943  11.653  69.023  1.00  0.00    -0.368 C  
HETATM    3  C   UNL     1     -10.978  10.021  67.456  1.00  0.00    -0.276 C  
HETATM    4  C   UNL     1     -11.829  12.722  67.905  1.00  0.00    -0.339 C  
HETATM    5  N   UNL     1     -11.756  12.150  66.519  1.00  0.00    -0.564 NA 
HETATM    6  C   UNL     1     -10.644  11.177  66.483  1.00  0.00    -0.262 C  
HETATM    7  O   UNL     1     -10.009  15.159  65.483  1.00  0.00    -0.335 OA 
HETATM    8  C   UNL     1     -10.622  13.626  68.211  1.00  0.00    -0.261 C  
HETATM    9  C   UNL     1     -10.293  14.060  65.948  1.00  0.00    -0.318 C  
HETATM   10  C   UNL     1      -9.571  13.440  67.120  1.00  0.00    -0.241 C  
HETATM   11  C   UNL     1     -11.456  13.196  65.472  1.00  0.00    -0.315 C  
HETATM   12  C   UNL     1      -9.319  11.973  66.677  1.00  0.00    -0.221 C  
ENDROOT
BRANCH   1  13
HETATM   13  O   UNL     1      -9.548  10.692  69.144  1.00  0.00    -0.201 OA 
BRANCH  13  14
HETATM   14  C   UNL     1      -8.806  10.034  70.061  1.00  0.00    -0.080 C  
HETATM   15  O   UNL     1      -7.653  10.332  70.347  1.00  0.00    -0.228 OA 
BRANCH  14  16
HETATM   16  C   UNL     1      -9.501   8.854  70.587  1.00  0.00    -0.259 A  
HETATM   17  C   UNL     1     -10.230   6.701  70.869  1.00  0.00    -0.196 A  
HETATM   18  C   UNL     1      -9.405   7.515  70.086  1.00  0.00    -0.157 A  
HETATM   19  N   UNL     1     -10.849   7.517  71.792  1.00  0.00    -0.225 NA 
HETATM   20  C   UNL     1      -8.713   6.933  69.004  1.00  0.00    -0.131 A  
HETATM   21  C   UNL     1     -10.439   8.815  71.622  1.00  0.00    -0.317 A  
HETATM   22  C   UNL     1      -8.827   5.563  68.780  1.00  0.00    -0.109 A  
HETATM   23  C   UNL     1      -9.614   4.767  69.606  1.00  0.00    -0.253 A  
HETATM   24  H   UNL     1     -11.515   7.202  72.497  1.00  0.00     0.000 HD 
HETATM   25  C   UNL     1     -10.343   5.322  70.664  1.00  0.00    -0.324 A  
ENDBRANCH  14  16
ENDBRANCH  13  14
ENDBRANCH   1  13
TORSDOF 3
ENDMDL
MODEL      126
REMARK 921   NORMALIZED FREE ENERGY PREDICTED BY IDOCK:   -5.25 KCAL/MOL
REMARK 922        TOTAL FREE ENERGY PREDICTED BY IDOCK:   -6.80 KCAL/MOL
REMARK 923 INTER-LIGAND FREE ENERGY PREDICTED BY IDOCK:   -5.65 KCAL/MOL
REMARK 924 INTRA-LIGAND FREE ENERGY PREDICTED BY IDOCK:   -1.14 KCAL/MOL
REMARK 927      BINDING AFFINITY PREDICTED BY RF-SCORE:    0.00 PKD
ROOT
HETATM    1  C   UNL     1     -10.802  14.984  68.298  1.00  0.00    -0.259 C  
HETATM    2  C   UNL     1     -10.822  15.783  66.984  1.00  0.00    -0.273 C  
HETATM    3  C   UNL     1     -12.058  14.120  68.310  1.00  0.00    -0.297 C  
HETATM    4  C   UNL     1     -11.171  14.960  65.716  1.00  0.00    -0.334 C  
HETATM    5  N   UNL     1     -12.367  14.068  65.877  1.00  0.00    -0.471 NA 
HETATM    6  C   UNL     1     -12.143  13.211  67.061  1.00  0.00    -0.307 C  
HETATM    7  O   UNL     1     -10.997  11.938  63.276  1.00  0.00    -0.377 OA 
HETATM    8  C   UNL     1      -9.924  14.168  65.287  1.00  0.00    -0.295 C  
HETATM    9  C   UNL     1     -11.235  12.492  64.344  1.00  0.00    -0.339 C  
HETATM   10  C   UNL     1     -10.207  12.675  65.434  1.00  0.00    -0.301 C  
HETATM   11  C   UNL     1     -12.567  13.144  64.700  1.00  0.00    -0.322 C  
HETATM   12  C   UNL     1     -10.953  12.260  66.732  1.00  0.00    -0.321 C  
ENDROOT
BRANCH   1  13
HETATM   13  O   UNL     1      -9.760  14.017  68.540  1.00  0.00    -0.224 OA 
BRANCH  13  14
HETATM   14  C   UNL     1      -8.460  14.316  68.755  1.00  0.00    -0.094 C  
HETATM   15  O   UNL     1      -8.078  15.334  69.319  1.00  0.00    -0.207 OA 
BRANCH  14  16
HETATM   16  C   UNL     1      -7.560  13.337  68.133  1.00  0.00    -0.141 A  
HETATM   17  C   UNL     1      -6.630  11.357  67.456  1.00  0.00    -0.078 A  
HETATM   18  C   UNL     1      -7.700  11.912  68.165  1.00  0.00    -0.126 A  
HETATM   19  N   UNL     1      -5.832  12.403  67.040  1.00  0.00    -0.410 NA 
HETATM   20  C   UNL     1      -8.629  11.042  68.773  1.00  0.00    -0.144 A  
HETATM   21  C   UNL     1      -6.365  13.596  67.456  1.00  0.00    -0.061 A  
HETATM   22  C   UNL     1      -8.487   9.667  68.606  1.00  0.00    -0.119 A  
HETATM   23  C   UNL     1      -7.441   9.144  67.852  1.00  0.00    -0.084 A  
HETATM   24  H   UNL     1      -4.972  12.303  66.502  1.00  0.00     0.000 HD 
HETATM   25  C   UNL     1      -6.482   9.979  67.269  1.00  0.00    -0.068 A  
ENDBRANCH  14  16
ENDBRANCH  13  14
ENDBRANCH   1  13
TORSDOF 3
ENDMDL
MODEL      127
REMARK 921   NORMALIZED FREE ENERGY PREDICTED BY IDOCK:   -5.21 KCAL/MOL
REMARK 922        TOTAL FREE ENERGY PREDICTED BY IDOCK:   -6.76 KCAL/MOL
REMARK 923 INTER-LIGAND FREE ENERGY PREDICTED BY IDOCK:   -6.10 KCAL/MOL
REMARK 924 INTRA-LIGAND FREE ENERGY PREDICTED BY IDOCK:   -0.66 KCAL/MOL
REMARK 927      BINDING AFFINITY PREDICTED BY RF-SCORE:    0.00 PKD
ROOT
HETATM    1  C   UNL     1     -10.441  18.066  68.576  1.00  0.00    -0.280 C  
HETATM    2  C   UNL     1      -9.349  18.969  69.177  1.00  0.00    -0.193 C  
HETATM    3  C   UNL     1     -10.829  18.677  67.234  1.00  0.00    -0.369 C  
HETATM    4  C   UNL     1      -8.223  19.385  68.195  1.00  0.00    -0.324 C  
HETATM    5  N   UNL     1      -8.720  19.874  66.866  1.00  0.00    -0.326 NA 
HETATM    6  C   UNL     1      -9.607  18.837  66.299  1.00  0.00    -0.297 C  
HETATM    7  O   UNL     1      -5.546  18.864  65.424  1.00  0.00    -0.161 OA 
HETATM    8  C   UNL     1      -7.249  18.204  68.038  1.00  0.00    -0.228 C  
HETATM    9  C   UNL     1      -6.684  18.876  65.882  1.00  0.00    -0.255 C  
HETATM   10  C   UNL     1      -7.305  17.701  66.598  1.00  0.00    -0.265 C  
HETATM   11  C   UNL     1      -7.607  20.090  65.871  1.00  0.00    -0.300 C  
HETATM   12  C   UNL     1      -8.727  17.590  65.983  1.00  0.00    -0.069 C  
ENDROOT
BRANCH   1  13
HETATM   13  O   UNL     1     -10.138  16.704  68.219  1.00  0.00    -0.248 OA 
BRANCH  13  14
HETATM   14  C   UNL     1      -9.741  15.745  69.085  1.00  0.00    -0.250 C  
HETATM   15  O   UNL     1      -8.626  15.700  69.589  1.00  0.00    -0.230 OA 
BRANCH  14  16
HETATM   16  C   UNL     1     -10.761  14.704  69.258  1.00  0.00    -0.254 A  
HETATM   17  C   UNL     1     -11.865  12.700  69.165  1.00  0.00    -0.297 A  
HETATM   18  C   UNL     1     -10.683  13.350  68.796  1.00  0.00    -0.257 A  
HETATM   19  N   UNL     1     -12.664  13.632  69.792  1.00  0.00    -0.127 NA 
HETATM   20  C   UNL     1      -9.719  12.632  68.059  1.00  0.00    -0.215 A  
HETATM   21  C   UNL     1     -12.025  14.845  69.837  1.00  0.00    -0.330 A  
HETATM   22  C   UNL     1      -9.945  11.289  67.767  1.00  0.00    -0.193 A  
HETATM   23  C   UNL     1     -11.108  10.652  68.191  1.00  0.00    -0.343 A  
HETATM   24  H   UNL     1     -13.594  13.447  70.167  1.00  0.00     0.000 HD 
HETATM   25  C   UNL     1     -12.100  11.348  68.890  1.00  0.00    -0.285 A  
ENDBRANCH  14  16
ENDBRANCH  13  14
ENDBRANCH   1  13
TORSDOF 3
ENDMDL
MODEL      128
REMARK 921   NORMALIZED FREE ENERGY PREDICTED BY IDOCK:   -5.20 KCAL/MOL
REMARK 922        TOTAL FREE ENERGY PREDICTED BY IDOCK:   -6.74 KCAL/MOL
REMARK 923 INTER-LIGAND FREE ENERGY PREDICTED BY IDOCK:   -5.99 KCAL/MOL
REMARK 924 INTRA-LIGAND FREE ENERGY PREDICTED BY IDOCK:   -0.75 KCAL/MOL
REMARK 927      BINDING AFFINITY PREDICTED BY RF-SCORE:    0.00 PKD
ROOT
HETATM    1  C   UNL     1     -10.823  11.835  67.160  1.00  0.00    -0.258 C  
HETATM    2  C   UNL     1     -12.059  12.575  67.702  1.00  0.00    -0.123 C  
HETATM    3  C   UNL     1     -10.268  12.680  66.019  1.00  0.00    -0.287 C  
HETATM    4  C   UNL     1     -11.870  14.098  67.928  1.00  0.00    -0.370 C  
HETATM    5  N   UNL     1     -11.219  14.810  66.778  1.00  0.00    -0.339 NA 
HETATM    6  C   UNL     1      -9.946  14.123  66.475  1.00  0.00    -0.283 C  
HETATM    7  O   UNL     1     -10.051  17.318  69.127  1.00  0.00    -0.302 OA 
HETATM    8  C   UNL     1     -11.092  14.306  69.239  1.00  0.00    -0.297 C  
HETATM    9  C   UNL     1     -10.182  16.300  68.456  1.00  0.00    -0.247 C  
HETATM   10  C   UNL     1      -9.737  14.935  68.920  1.00  0.00    -0.223 C  
HETATM   11  C   UNL     1     -10.877  16.244  67.099  1.00  0.00    -0.190 C  
HETATM   12  C   UNL     1      -8.996  14.339  67.692  1.00  0.00    -0.194 C  
ENDROOT
BRANCH   1  13
HETATM   13  O   UNL     1      -9.666  11.650  67.998  1.00  0.00    -0.171 OA 
BRANCH  13  14
HETATM   14  C   UNL     1      -8.779  10.636  67.883  1.00  0.00    -0.127 C  
HETATM   15  O   UNL     1      -7.564  10.790  67.879  1.00  0.00    -0.089 OA 
BRANCH  14  16
HETATM   16  C   UNL     1      -9.442   9.349  67.648  1.00  0.00    -0.154 A  
HETATM   17  C   UNL     1     -10.521   7.359  67.998  1.00  0.00    -0.199 A  
HETATM   18  C   UNL     1      -9.988   8.478  68.646  1.00  0.00    -0.197 A  
HETATM   19  N   UNL     1     -10.272   7.513  66.650  1.00  0.00    -0.453 NA 
HETATM   20  C   UNL     1     -10.040   8.529  70.055  1.00  0.00    -0.195 A  
HETATM   21  C   UNL     1      -9.606   8.691  66.427  1.00  0.00    -0.247 A  
HETATM   22  C   UNL     1     -10.663   7.498  70.752  1.00  0.00    -0.238 A  
HETATM   23  C   UNL     1     -11.231   6.421  70.079  1.00  0.00    -0.475 A  
HETATM   24  H   UNL     1     -10.542   6.848  65.926  1.00  0.00     0.000 HD 
HETATM   25  C   UNL     1     -11.163   6.322  68.685  1.00  0.00    -0.328 A  
ENDBRANCH  14  16
ENDBRANCH  13  14
ENDBRANCH   1  13
TORSDOF 3
ENDMDL
MODEL      129
REMARK 921   NORMALIZED FREE ENERGY PREDICTED BY IDOCK:   -5.19 KCAL/MOL
REMARK 922        TOTAL FREE ENERGY PREDICTED BY IDOCK:   -6.74 KCAL/MOL
REMARK 923 INTER-LIGAND FREE ENERGY PREDICTED BY IDOCK:   -5.71 KCAL/MOL
REMARK 924 INTRA-LIGAND FREE ENERGY PREDICTED BY IDOCK:   -1.03 KCAL/MOL
REMARK 927      BINDING AFFINITY PREDICTED BY RF-SCORE:    0.00 PKD
ROOT
HETATM    1  C   UNL     1     -10.809  11.201  66.601  1.00  0.00    -0.253 C  
HETATM    2  C   UNL     1     -11.665  12.219  67.375  1.00  0.00    -0.405 C  
HETATM    3  C   UNL     1     -11.403  11.099  65.201  1.00  0.00     0.117 C  
HETATM    4  C   UNL     1     -11.989  13.528  66.608  1.00  0.00    -0.404 C  
HETATM    5  N   UNL     1     -12.469  13.308  65.202  1.00  0.00    -0.499 NA 
HETATM    6  C   UNL     1     -11.468  12.477  64.501  1.00  0.00    -0.337 C  
HETATM    7  O   UNL     1     -11.241  16.623  64.377  1.00  0.00    -1.033 OA 
HETATM    8  C   UNL     1     -10.751  14.440  66.650  1.00  0.00    -0.292 C  
HETATM    9  C   UNL     1     -11.329  15.424  64.621  1.00  0.00    -0.355 C  
HETATM   10  C   UNL     1     -10.212  14.615  65.232  1.00  0.00    -0.421 C  
HETATM   11  C   UNL     1     -12.593  14.594  64.422  1.00  0.00    -0.132 C  
HETATM   12  C   UNL     1     -10.165  13.322  64.371  1.00  0.00    -0.300 C  
ENDROOT
BRANCH   1  13
HETATM   13  O   UNL     1      -9.422  11.481  66.329  1.00  0.00    -0.204 OA 
BRANCH  13  14
HETATM   14  C   UNL     1      -8.383  11.058  67.082  1.00  0.00    -0.132 C  
HETATM   15  O   UNL     1      -8.341   9.965  67.634  1.00  0.00    -0.114 OA 
BRANCH  14  16
HETATM   16  C   UNL     1      -7.368  12.103  67.256  1.00  0.00    -0.149 A  
HETATM   17  C   UNL     1      -6.313  14.027  67.912  1.00  0.00    -0.161 A  
HETATM   18  C   UNL     1      -7.511  13.312  68.012  1.00  0.00    -0.138 A  
HETATM   19  N   UNL     1      -5.477  13.306  67.087  1.00  0.00    -0.314 NA 
HETATM   20  C   UNL     1      -8.577  13.877  68.742  1.00  0.00     0.001 A  
HETATM   21  C   UNL     1      -6.102  12.160  66.667  1.00  0.00     0.317 A  
HETATM   22  C   UNL     1      -8.389  15.098  69.385  1.00  0.00    -0.195 A  
HETATM   23  C   UNL     1      -7.170  15.765  69.313  1.00  0.00    -0.211 A  
HETATM   24  H   UNL     1      -4.531  13.585  66.826  1.00  0.00     0.000 HD 
HETATM   25  C   UNL     1      -6.107  15.248  68.564  1.00  0.00    -0.094 A  
ENDBRANCH  14  16
ENDBRANCH  13  14
ENDBRANCH   1  13
TORSDOF 3
ENDMDL
MODEL      130
REMARK 921   NORMALIZED FREE ENERGY PREDICTED BY IDOCK:   -5.18 KCAL/MOL
REMARK 922        TOTAL FREE ENERGY PREDICTED BY IDOCK:   -6.72 KCAL/MOL
REMARK 923 INTER-LIGAND FREE ENERGY PREDICTED BY IDOCK:   -5.73 KCAL/MOL
REMARK 924 INTRA-LIGAND FREE ENERGY PREDICTED BY IDOCK:   -0.99 KCAL/MOL
REMARK 927      BINDING AFFINITY PREDICTED BY RF-SCORE:    0.00 PKD
ROOT
HETATM    1  C   UNL     1     -11.215  13.179  64.908  1.00  0.00    -0.310 C  
HETATM    2  C   UNL     1     -12.492  13.585  65.664  1.00  0.00    -0.528 C  
HETATM    3  C   UNL     1     -10.317  14.410  64.864  1.00  0.00    -0.419 C  
HETATM    4  C   UNL     1     -12.258  14.382  66.974  1.00  0.00    -0.239 C  
HETATM    5  N   UNL     1     -11.276  15.509  66.836  1.00  0.00    -0.226 NA 
HETATM    6  C   UNL     1     -10.023  14.958  66.281  1.00  0.00    -0.282 C  
HETATM    7  O   UNL     1     -10.591  15.207  70.388  1.00  0.00    -0.235 OA 
HETATM    8  C   UNL     1     -11.841  13.397  68.080  1.00  0.00    -0.392 C  
HETATM    9  C   UNL     1     -10.613  15.045  69.173  1.00  0.00    -0.251 C  
HETATM   10  C   UNL     1     -10.408  13.705  68.508  1.00  0.00    -0.244 C  
HETATM   11  C   UNL     1     -10.927  16.142  68.161  1.00  0.00    -0.341 C  
HETATM   12  C   UNL     1      -9.415  14.004  67.352  1.00  0.00    -0.225 C  
ENDROOT
BRANCH   1  13
HETATM   13  O   UNL     1     -10.337  12.177  65.457  1.00  0.00    -0.248 OA 
BRANCH  13  14
HETATM   14  C   UNL     1     -10.102  10.965  64.907  1.00  0.00    -0.312 C  
HETATM   15  O   UNL     1     -10.366  10.681  63.745  1.00  0.00    -0.297 OA 
BRANCH  14  16
HETATM   16  C   UNL     1      -9.605   9.999  65.893  1.00  0.00    -0.283 A  
HETATM   17  C   UNL     1      -8.237   8.892  67.359  1.00  0.00    -0.108 A  
HETATM   18  C   UNL     1      -8.296   9.975  66.475  1.00  0.00    -0.126 A  
HETATM   19  N   UNL     1      -9.452   8.244  67.289  1.00  0.00    -0.145 NA 
HETATM   20  C   UNL     1      -7.140  10.762  66.294  1.00  0.00    -0.134 A  
HETATM   21  C   UNL     1     -10.276   8.883  66.399  1.00  0.00    -0.203 A  
HETATM   22  C   UNL     1      -5.997  10.475  67.037  1.00  0.00    -0.053 A  
HETATM   23  C   UNL     1      -5.982   9.423  67.947  1.00  0.00    -0.052 A  
HETATM   24  H   UNL     1      -9.701   7.411  67.823  1.00  0.00     0.000 HD 
HETATM   25  C   UNL     1      -7.100   8.600  68.120  1.00  0.00    -0.082 A  
ENDBRANCH  14  16
ENDBRANCH  13  14
ENDBRANCH   1  13
TORSDOF 3
ENDMDL
MODEL      131
REMARK 921   NORMALIZED FREE ENERGY PREDICTED BY IDOCK:   -5.16 KCAL/MOL
REMARK 922        TOTAL FREE ENERGY PREDICTED BY IDOCK:   -6.70 KCAL/MOL
REMARK 923 INTER-LIGAND FREE ENERGY PREDICTED BY IDOCK:   -5.53 KCAL/MOL
REMARK 924 INTRA-LIGAND FREE ENERGY PREDICTED BY IDOCK:   -1.17 KCAL/MOL
REMARK 927      BINDING AFFINITY PREDICTED BY RF-SCORE:    0.00 PKD
ROOT
HETATM    1  C   UNL     1      -7.202   9.322  67.379  1.00  0.00    -0.080 C  
HETATM    2  C   UNL     1      -7.535   9.731  65.934  1.00  0.00    -0.103 C  
HETATM    3  C   UNL     1      -7.197  10.600  68.210  1.00  0.00    -0.083 C  
HETATM    4  C   UNL     1      -8.720  10.720  65.784  1.00  0.00    -0.186 C  
HETATM    5  N   UNL     1      -8.663  11.889  66.724  1.00  0.00    -0.191 NA 
HETATM    6  C   UNL     1      -8.538  11.364  68.100  1.00  0.00    -0.153 C  
HETATM    7  O   UNL     1     -12.274  12.143  66.460  1.00  0.00    -0.584 OA 
HETATM    8  C   UNL     1     -10.035   9.935  65.931  1.00  0.00    -0.347 C  
HETATM    9  C   UNL     1     -11.134  11.810  66.765  1.00  0.00    -0.306 C  
HETATM   10  C   UNL     1     -10.761  10.410  67.188  1.00  0.00    -0.316 C  
HETATM   11  C   UNL     1      -9.918  12.727  66.688  1.00  0.00    -0.245 C  
HETATM   12  C   UNL     1      -9.864  10.618  68.439  1.00  0.00    -0.170 C  
ENDROOT
BRANCH   1  13
HETATM   13  O   UNL     1      -8.106   8.478  68.118  1.00  0.00    -0.116 OA 
BRANCH  13  14
HETATM   14  C   UNL     1      -7.737   7.595  69.073  1.00  0.00    -0.117 C  
HETATM   15  O   UNL     1      -7.044   6.608  68.858  1.00  0.00    -0.079 OA 
BRANCH  14  16
HETATM   16  C   UNL     1      -8.360   7.892  70.368  1.00  0.00    -0.121 A  
HETATM   17  C   UNL     1      -9.900   8.076  72.052  1.00  0.00    -0.211 A  
HETATM   18  C   UNL     1      -9.721   7.638  70.736  1.00  0.00    -0.173 A  
HETATM   19  N   UNL     1      -8.704   8.624  72.465  1.00  0.00    -0.405 NA 
HETATM   20  C   UNL     1     -10.829   7.106  70.045  1.00  0.00    -0.276 A  
HETATM   21  C   UNL     1      -7.776   8.540  71.459  1.00  0.00    -0.118 A  
HETATM   22  C   UNL     1     -12.049   6.982  70.705  1.00  0.00    -0.374 A  
HETATM   23  C   UNL     1     -12.187   7.378  72.032  1.00  0.00    -0.315 A  
HETATM   24  H   UNL     1      -8.535   9.031  73.385  1.00  0.00     0.000 HD 
HETATM   25  C   UNL     1     -11.116   7.945  72.732  1.00  0.00    -0.462 A  
ENDBRANCH  14  16
ENDBRANCH  13  14
ENDBRANCH   1  13
TORSDOF 3
ENDMDL
MODEL      132
REMARK 921   NORMALIZED FREE ENERGY PREDICTED BY IDOCK:   -5.16 KCAL/MOL
REMARK 922        TOTAL FREE ENERGY PREDICTED BY IDOCK:   -6.69 KCAL/MOL
REMARK 923 INTER-LIGAND FREE ENERGY PREDICTED BY IDOCK:   -5.97 KCAL/MOL
REMARK 924 INTRA-LIGAND FREE ENERGY PREDICTED BY IDOCK:   -0.72 KCAL/MOL
REMARK 927      BINDING AFFINITY PREDICTED BY RF-SCORE:    0.00 PKD
ROOT
HETATM    1  C   UNL     1      -9.217  11.129  68.080  1.00  0.00    -0.159 C  
HETATM    2  C   UNL     1     -10.284  10.890  69.163  1.00  0.00    -0.215 C  
HETATM    3  C   UNL     1      -7.862  11.075  68.775  1.00  0.00    -0.138 C  
HETATM    4  C   UNL     1      -9.990   9.714  70.131  1.00  0.00    -0.261 C  
HETATM    5  N   UNL     1      -8.591   9.706  70.675  1.00  0.00    -0.213 NA 
HETATM    6  C   UNL     1      -7.655   9.742  69.531  1.00  0.00    -0.114 C  
HETATM    7  O   UNL     1      -8.904   6.119  71.134  1.00  0.00    -0.138 OA 
HETATM    8  C   UNL     1     -10.330   8.395  69.416  1.00  0.00    -0.217 C  
HETATM    9  C   UNL     1      -8.739   7.237  70.660  1.00  0.00    -0.147 C  
HETATM   10  C   UNL     1      -9.049   7.587  69.225  1.00  0.00    -0.138 C  
HETATM   11  C   UNL     1      -8.278   8.453  71.457  1.00  0.00    -0.144 C  
HETATM   12  C   UNL     1      -7.810   8.399  68.756  1.00  0.00    -0.115 C  
ENDROOT
BRANCH   1  13
HETATM   13  O   UNL     1      -9.051  10.181  67.007  1.00  0.00    -0.138 OA 
BRANCH  13  14
HETATM   14  C   UNL     1     -10.040   9.751  66.191  1.00  0.00    -0.245 C  
HETATM   15  O   UNL     1     -10.626   8.685  66.333  1.00  0.00    -0.115 OA 
BRANCH  14  16
HETATM   16  C   UNL     1     -10.248  10.656  65.055  1.00  0.00    -0.380 A  
HETATM   17  C   UNL     1     -10.998  12.389  63.760  1.00  0.00    -0.447 A  
HETATM   18  C   UNL     1     -11.081  11.821  65.036  1.00  0.00    -0.343 A  
HETATM   19  N   UNL     1     -10.179  11.577  63.005  1.00  0.00    -0.634 NA 
HETATM   20  C   UNL     1     -11.932  12.421  65.988  1.00  0.00    -0.419 A  
HETATM   21  C   UNL     1      -9.738  10.521  63.761  1.00  0.00    -0.326 A  
HETATM   22  C   UNL     1     -12.618  13.584  65.651  1.00  0.00    -0.512 A  
HETATM   23  C   UNL     1     -12.478  14.158  64.391  1.00  0.00    -0.325 A  
HETATM   24  H   UNL     1      -9.937  11.738  62.028  1.00  0.00     0.000 HD 
HETATM   25  C   UNL     1     -11.672  13.565  63.413  1.00  0.00    -0.091 A  
ENDBRANCH  14  16
ENDBRANCH  13  14
ENDBRANCH   1  13
TORSDOF 3
ENDMDL
MODEL      133
REMARK 921   NORMALIZED FREE ENERGY PREDICTED BY IDOCK:   -5.16 KCAL/MOL
REMARK 922        TOTAL FREE ENERGY PREDICTED BY IDOCK:   -6.69 KCAL/MOL
REMARK 923 INTER-LIGAND FREE ENERGY PREDICTED BY IDOCK:   -5.99 KCAL/MOL
REMARK 924 INTRA-LIGAND FREE ENERGY PREDICTED BY IDOCK:   -0.70 KCAL/MOL
REMARK 927      BINDING AFFINITY PREDICTED BY RF-SCORE:    0.00 PKD
ROOT
HETATM    1  C   UNL     1     -11.024  11.873  66.968  1.00  0.00    -0.278 C  
HETATM    2  C   UNL     1     -12.057  12.930  66.538  1.00  0.00    -0.375 C  
HETATM    3  C   UNL     1      -9.668  12.350  66.463  1.00  0.00    -0.245 C  
HETATM    4  C   UNL     1     -11.642  14.402  66.797  1.00  0.00    -0.385 C  
HETATM    5  N   UNL     1     -10.248  14.731  66.350  1.00  0.00    -0.282 NA 
HETATM    6  C   UNL     1      -9.325  13.766  66.983  1.00  0.00    -0.248 C  
HETATM    7  O   UNL     1     -10.194  17.387  68.824  1.00  0.00    -0.327 OA 
HETATM    8  C   UNL     1     -11.850  14.715  68.289  1.00  0.00    -0.333 C  
HETATM    9  C   UNL     1     -10.146  16.300  68.259  1.00  0.00    -0.243 C  
HETATM   10  C   UNL     1     -10.495  14.995  68.933  1.00  0.00    -0.241 C  
HETATM   11  C   UNL     1      -9.807  16.108  66.784  1.00  0.00    -0.245 C  
HETATM   12  C   UNL     1      -9.346  14.035  68.518  1.00  0.00    -0.182 C  
ENDROOT
BRANCH   1  13
HETATM   13  O   UNL     1     -10.768  11.641  68.367  1.00  0.00    -0.198 OA 
BRANCH  13  14
HETATM   14  C   UNL     1     -11.514  10.852  69.172  1.00  0.00    -0.303 C  
HETATM   15  O   UNL     1     -12.739  10.851  69.181  1.00  0.00    -0.262 OA 
BRANCH  14  16
HETATM   16  C   UNL     1     -10.688  10.084  70.110  1.00  0.00    -0.361 A  
HETATM   17  C   UNL     1      -8.943   8.911  71.020  1.00  0.00    -0.241 A  
HETATM   18  C   UNL     1      -9.364   9.591  69.872  1.00  0.00    -0.247 A  
HETATM   19  N   UNL     1      -9.989   8.945  71.918  1.00  0.00    -0.338 NA 
HETATM   20  C   UNL     1      -8.500   9.632  68.758  1.00  0.00    -0.123 A  
HETATM   21  C   UNL     1     -11.050   9.626  71.380  1.00  0.00    -0.326 A  
HETATM   22  C   UNL     1      -7.240   9.047  68.850  1.00  0.00    -0.073 A  
HETATM   23  C   UNL     1      -6.827   8.421  70.022  1.00  0.00    -0.042 A  
HETATM   24  H   UNL     1      -9.975   8.524  72.847  1.00  0.00     0.000 HD 
HETATM   25  C   UNL     1      -7.676   8.330  71.131  1.00  0.00    -0.097 A  
ENDBRANCH  14  16
ENDBRANCH  13  14
ENDBRANCH   1  13
TORSDOF 3
ENDMDL
MODEL      134
REMARK 921   NORMALIZED FREE ENERGY PREDICTED BY IDOCK:   -5.16 KCAL/MOL
REMARK 922        TOTAL FREE ENERGY PREDICTED BY IDOCK:   -6.69 KCAL/MOL
REMARK 923 INTER-LIGAND FREE ENERGY PREDICTED BY IDOCK:   -5.93 KCAL/MOL
REMARK 924 INTRA-LIGAND FREE ENERGY PREDICTED BY IDOCK:   -0.76 KCAL/MOL
REMARK 927      BINDING AFFINITY PREDICTED BY RF-SCORE:    0.00 PKD
ROOT
HETATM    1  C   UNL     1      -9.341  11.130  66.456  1.00  0.00    -0.180 C  
HETATM    2  C   UNL     1      -7.830  10.944  66.682  1.00  0.00    -0.145 C  
HETATM    3  C   UNL     1      -9.941   9.736  66.317  1.00  0.00    -0.331 C  
HETATM    4  C   UNL     1      -7.446   9.862  67.724  1.00  0.00    -0.090 C  
HETATM    5  N   UNL     1      -8.177   8.561  67.552  1.00  0.00    -0.116 NA 
HETATM    6  C   UNL     1      -9.627   8.848  67.545  1.00  0.00    -0.145 C  
HETATM    7  O   UNL     1      -7.666   7.926  71.089  1.00  0.00    -0.080 OA 
HETATM    8  C   UNL     1      -7.649  10.445  69.134  1.00  0.00    -0.117 C  
HETATM    9  C   UNL     1      -8.088   8.335  70.012  1.00  0.00    -0.116 C  
HETATM   10  C   UNL     1      -8.763   9.673  69.837  1.00  0.00    -0.236 C  
HETATM   11  C   UNL     1      -7.927   7.598  68.687  1.00  0.00    -0.122 C  
HETATM   12  C   UNL     1     -10.010   9.358  68.967  1.00  0.00    -0.182 C  
ENDROOT
BRANCH   1  13
HETATM   13  O   UNL     1     -10.159  11.717  67.487  1.00  0.00    -0.188 OA 
BRANCH  13  14
HETATM   14  C   UNL     1     -11.423  12.162  67.315  1.00  0.00    -0.345 C  
HETATM   15  O   UNL     1     -12.395  11.701  67.901  1.00  0.00    -0.404 OA 
BRANCH  14  16
HETATM   16  C   UNL     1     -11.510  13.179  66.261  1.00  0.00    -0.372 A  
HETATM   17  C   UNL     1     -11.370  15.172  65.141  1.00  0.00    -0.357 A  
HETATM   18  C   UNL     1     -11.116  14.553  66.369  1.00  0.00    -0.331 A  
HETATM   19  N   UNL     1     -11.943  14.225  64.319  1.00  0.00    -0.596 NA 
HETATM   20  C   UNL     1     -10.599  15.333  67.424  1.00  0.00    -0.282 A  
HETATM   21  C   UNL     1     -12.054  13.030  64.982  1.00  0.00    -0.427 A  
HETATM   22  C   UNL     1     -10.306  16.675  67.199  1.00  0.00    -0.300 A  
HETATM   23  C   UNL     1     -10.520  17.254  65.952  1.00  0.00    -0.267 A  
HETATM   24  H   UNL     1     -12.241  14.389  63.357  1.00  0.00     0.000 HD 
HETATM   25  C   UNL     1     -11.068  16.516  64.897  1.00  0.00    -0.199 A  
ENDBRANCH  14  16
ENDBRANCH  13  14
ENDBRANCH   1  13
TORSDOF 3
ENDMDL
MODEL      135
REMARK 921   NORMALIZED FREE ENERGY PREDICTED BY IDOCK:   -5.15 KCAL/MOL
REMARK 922        TOTAL FREE ENERGY PREDICTED BY IDOCK:   -6.69 KCAL/MOL
REMARK 923 INTER-LIGAND FREE ENERGY PREDICTED BY IDOCK:   -5.89 KCAL/MOL
REMARK 924 INTRA-LIGAND FREE ENERGY PREDICTED BY IDOCK:   -0.80 KCAL/MOL
REMARK 927      BINDING AFFINITY PREDICTED BY RF-SCORE:    0.00 PKD
ROOT
HETATM    1  C   UNL     1     -10.117   9.904  69.494  1.00  0.00    -0.221 C  
HETATM    2  C   UNL     1     -11.138   8.752  69.488  1.00  0.00     0.006 C  
HETATM    3  C   UNL     1      -8.823   9.344  70.071  1.00  0.00    -0.231 C  
HETATM    4  C   UNL     1     -10.604   7.400  68.946  1.00  0.00    -0.176 C  
HETATM    5  N   UNL     1      -9.272   6.999  69.509  1.00  0.00    -0.149 NA 
HETATM    6  C   UNL     1      -8.325   8.111  69.280  1.00  0.00    -0.130 C  
HETATM    7  O   UNL     1      -8.706   5.047  66.501  1.00  0.00    -0.110 OA 
HETATM    8  C   UNL     1     -10.576   7.466  67.409  1.00  0.00    -0.371 C  
HETATM    9  C   UNL     1      -8.804   5.960  67.315  1.00  0.00    -0.106 C  
HETATM   10  C   UNL     1      -9.127   7.384  66.933  1.00  0.00    -0.164 C  
HETATM   11  C   UNL     1      -8.693   5.784  68.826  1.00  0.00    -0.108 C  
HETATM   12  C   UNL     1      -8.109   8.234  67.742  1.00  0.00    -0.127 C  
ENDROOT
BRANCH   1  13
HETATM   13  O   UNL     1      -9.676  10.484  68.251  1.00  0.00    -0.147 OA 
BRANCH  13  14
HETATM   14  C   UNL     1      -9.399  11.793  68.061  1.00  0.00    -0.184 C  
HETATM   15  O   UNL     1      -8.404  12.352  68.507  1.00  0.00    -0.153 OA 
BRANCH  14  16
HETATM   16  C   UNL     1     -10.484  12.489  67.360  1.00  0.00    -0.231 A  
HETATM   17  C   UNL     1     -11.932  13.174  65.724  1.00  0.00    -0.423 A  
HETATM   18  C   UNL     1     -10.855  12.322  65.986  1.00  0.00    -0.310 A  
HETATM   19  N   UNL     1     -12.187  13.876  66.882  1.00  0.00    -0.448 NA 
HETATM   20  C   UNL     1     -10.338  11.542  64.930  1.00  0.00    -0.340 A  
HETATM   21  C   UNL     1     -11.314  13.493  67.867  1.00  0.00    -0.289 A  
HETATM   22  C   UNL     1     -10.945  11.602  63.679  1.00  0.00    -0.507 A  
HETATM   23  C   UNL     1     -12.048  12.421  63.458  1.00  0.00    -0.651 A  
HETATM   24  H   UNL     1     -12.919  14.579  66.991  1.00  0.00     0.000 HD 
HETATM   25  C   UNL     1     -12.560  13.234  64.475  1.00  0.00    -0.316 A  
ENDBRANCH  14  16
ENDBRANCH  13  14
ENDBRANCH   1  13
TORSDOF 3
ENDMDL
MODEL      136
REMARK 921   NORMALIZED FREE ENERGY PREDICTED BY IDOCK:   -5.14 KCAL/MOL
REMARK 922        TOTAL FREE ENERGY PREDICTED BY IDOCK:   -6.67 KCAL/MOL
REMARK 923 INTER-LIGAND FREE ENERGY PREDICTED BY IDOCK:   -6.05 KCAL/MOL
REMARK 924 INTRA-LIGAND FREE ENERGY PREDICTED BY IDOCK:   -0.63 KCAL/MOL
REMARK 927      BINDING AFFINITY PREDICTED BY RF-SCORE:    0.00 PKD
ROOT
HETATM    1  C   UNL     1     -10.328  14.939  68.745  1.00  0.00    -0.245 C  
HETATM    2  C   UNL     1      -9.374  15.879  69.502  1.00  0.00    -0.196 C  
HETATM    3  C   UNL     1     -11.289  15.824  67.959  1.00  0.00    -0.310 C  
HETATM    4  C   UNL     1      -8.793  17.047  68.663  1.00  0.00    -0.267 C  
HETATM    5  N   UNL     1      -9.817  17.783  67.849  1.00  0.00    -0.294 NA 
HETATM    6  C   UNL     1     -10.538  16.796  67.019  1.00  0.00    -0.234 C  
HETATM    7  O   UNL     1      -7.164  18.731  65.561  1.00  0.00    -0.493 OA 
HETATM    8  C   UNL     1      -7.655  16.499  67.784  1.00  0.00    -0.162 C  
HETATM    9  C   UNL     1      -8.043  18.122  66.161  1.00  0.00    -0.163 C  
HETATM   10  C   UNL     1      -8.057  16.621  66.315  1.00  0.00    -0.361 C  
HETATM   11  C   UNL     1      -9.199  18.784  66.903  1.00  0.00    -0.307 C  
HETATM   12  C   UNL     1      -9.521  16.219  65.988  1.00  0.00    -0.369 C  
ENDROOT
BRANCH   1  13
HETATM   13  O   UNL     1      -9.816  14.058  67.725  1.00  0.00    -0.223 OA 
BRANCH  13  14
HETATM   14  C   UNL     1      -8.994  13.009  67.948  1.00  0.00    -0.200 C  
HETATM   15  O   UNL     1      -7.950  13.084  68.584  1.00  0.00    -0.116 OA 
BRANCH  14  16
HETATM   16  C   UNL     1      -9.438  11.802  67.243  1.00  0.00    -0.173 A  
HETATM   17  C   UNL     1     -10.071   9.645  66.803  1.00  0.00    -0.236 A  
HETATM   18  C   UNL     1      -9.660  10.510  67.822  1.00  0.00    -0.173 A  
HETATM   19  N   UNL     1     -10.059  10.366  65.628  1.00  0.00    -0.271 NA 
HETATM   20  C   UNL     1      -9.507   9.993  69.125  1.00  0.00    -0.214 A  
HETATM   21  C   UNL     1      -9.662  11.656  65.871  1.00  0.00    -0.235 A  
HETATM   22  C   UNL     1      -9.820   8.659  69.370  1.00  0.00    -0.184 A  
HETATM   23  C   UNL     1     -10.276   7.832  68.348  1.00  0.00    -0.230 A  
HETATM   24  H   UNL     1     -10.310   9.995  64.712  1.00  0.00     0.000 HD 
HETATM   25  C   UNL     1     -10.401   8.306  67.037  1.00  0.00    -0.393 A  
ENDBRANCH  14  16
ENDBRANCH  13  14
ENDBRANCH   1  13
TORSDOF 3
ENDMDL
MODEL      137
REMARK 921   NORMALIZED FREE ENERGY PREDICTED BY IDOCK:   -5.14 KCAL/MOL
REMARK 922        TOTAL FREE ENERGY PREDICTED BY IDOCK:   -6.67 KCAL/MOL
REMARK 923 INTER-LIGAND FREE ENERGY PREDICTED BY IDOCK:   -6.15 KCAL/MOL
REMARK 924 INTRA-LIGAND FREE ENERGY PREDICTED BY IDOCK:   -0.52 KCAL/MOL
REMARK 927      BINDING AFFINITY PREDICTED BY RF-SCORE:    0.00 PKD
ROOT
HETATM    1  C   UNL     1     -10.032   9.705  69.682  1.00  0.00    -0.221 C  
HETATM    2  C   UNL     1      -8.858   9.111  70.480  1.00  0.00    -0.263 C  
HETATM    3  C   UNL     1     -10.656   8.559  68.895  1.00  0.00    -0.166 C  
HETATM    4  C   UNL     1      -9.167   7.783  71.219  1.00  0.00    -0.141 C  
HETATM    5  N   UNL     1      -9.875   6.764  70.373  1.00  0.00    -0.175 NA 
HETATM    6  C   UNL     1     -11.090   7.396  69.817  1.00  0.00    -0.152 C  
HETATM    7  O   UNL     1     -11.233   5.333  73.420  1.00  0.00    -0.304 OA 
HETATM    8  C   UNL     1      -9.956   8.106  72.500  1.00  0.00    -0.372 C  
HETATM    9  C   UNL     1     -11.024   6.039  72.439  1.00  0.00    -0.260 C  
HETATM   10  C   UNL     1     -11.357   7.510  72.386  1.00  0.00    -0.360 C  
HETATM   11  C   UNL     1     -10.330   5.564  71.167  1.00  0.00    -0.234 C  
HETATM   12  C   UNL     1     -12.051   7.692  71.008  1.00  0.00    -0.282 C  
ENDROOT
BRANCH   1  13
HETATM   13  O   UNL     1     -11.169  10.260  70.373  1.00  0.00    -0.293 OA 
BRANCH  13  14
HETATM   14  C   UNL     1     -12.183  10.932  69.784  1.00  0.00    -0.311 C  
HETATM   15  O   UNL     1     -13.363  10.624  69.898  1.00  0.00     0.042 OA 
BRANCH  14  16
HETATM   16  C   UNL     1     -11.696  11.998  68.902  1.00  0.00    -0.383 A  
HETATM   17  C   UNL     1     -10.981  14.035  68.136  1.00  0.00    -0.252 A  
HETATM   18  C   UNL     1     -11.418  13.353  69.276  1.00  0.00    -0.345 A  
HETATM   19  N   UNL     1     -11.033  13.144  67.085  1.00  0.00    -0.264 NA 
HETATM   20  C   UNL     1     -11.538  14.068  70.486  1.00  0.00    -0.171 A  
HETATM   21  C   UNL     1     -11.480  11.924  67.523  1.00  0.00    -0.326 A  
HETATM   22  C   UNL     1     -11.169  15.410  70.524  1.00  0.00    -0.358 A  
HETATM   23  C   UNL     1     -10.689  16.052  69.386  1.00  0.00    -0.294 A  
HETATM   24  H   UNL     1     -10.776  13.361  66.122  1.00  0.00     0.000 HD 
HETATM   25  C   UNL     1     -10.595  15.379  68.162  1.00  0.00    -0.263 A  
ENDBRANCH  14  16
ENDBRANCH  13  14
ENDBRANCH   1  13
TORSDOF 3
ENDMDL
MODEL      138
REMARK 921   NORMALIZED FREE ENERGY PREDICTED BY IDOCK:   -5.12 KCAL/MOL
REMARK 922        TOTAL FREE ENERGY PREDICTED BY IDOCK:   -6.65 KCAL/MOL
REMARK 923 INTER-LIGAND FREE ENERGY PREDICTED BY IDOCK:   -6.49 KCAL/MOL
REMARK 924 INTRA-LIGAND FREE ENERGY PREDICTED BY IDOCK:   -0.15 KCAL/MOL
REMARK 927      BINDING AFFINITY PREDICTED BY RF-SCORE:    0.00 PKD
ROOT
HETATM    1  C   UNL     1      -9.707  15.937  68.139  1.00  0.00    -0.212 C  
HETATM    2  C   UNL     1     -11.234  15.833  68.297  1.00  0.00    -0.356 C  
HETATM    3  C   UNL     1      -9.149  14.528  68.303  1.00  0.00    -0.196 C  
HETATM    4  C   UNL     1     -11.901  14.672  67.513  1.00  0.00    -0.347 C  
HETATM    5  N   UNL     1     -11.206  13.351  67.668  1.00  0.00    -0.265 NA 
HETATM    6  C   UNL     1      -9.786  13.536  67.301  1.00  0.00    -0.236 C  
HETATM    7  O   UNL     1     -12.576  12.371  64.453  1.00  0.00    -0.542 OA 
HETATM    8  C   UNL     1     -12.019  15.083  66.035  1.00  0.00     0.060 C  
HETATM    9  C   UNL     1     -11.892  12.864  65.343  1.00  0.00    -0.403 C  
HETATM   10  C   UNL     1     -11.140  14.164  65.191  1.00  0.00    -0.349 C  
HETATM   11  C   UNL     1     -11.760  12.289  66.750  1.00  0.00    -0.342 C  
HETATM   12  C   UNL     1      -9.734  13.860  65.778  1.00  0.00    -0.190 C  
ENDROOT
BRANCH   1  13
HETATM   13  O   UNL     1      -9.137  16.350  66.881  1.00  0.00    -0.200 OA 
BRANCH  13  14
HETATM   14  C   UNL     1      -8.132  17.243  66.741  1.00  0.00    -0.246 C  
HETATM   15  O   UNL     1      -8.030  18.011  65.792  1.00  0.00    -0.532 OA 
BRANCH  14  16
HETATM   16  C   UNL     1      -7.122  17.104  67.796  1.00  0.00    -0.165 A  
HETATM   17  C   UNL     1      -5.735  17.570  69.558  1.00  0.00    -0.222 A  
HETATM   18  C   UNL     1      -6.726  18.113  68.733  1.00  0.00    -0.248 A  
HETATM   19  N   UNL     1      -5.496  16.286  69.115  1.00  0.00    -0.112 NA 
HETATM   20  C   UNL     1      -7.101  19.459  68.926  1.00  0.00    -0.393 A  
HETATM   21  C   UNL     1      -6.304  15.999  68.045  1.00  0.00    -0.131 A  
HETATM   22  C   UNL     1      -6.518  20.188  69.959  1.00  0.00    -0.322 A  
HETATM   23  C   UNL     1      -5.572  19.607  70.798  1.00  0.00    -0.285 A  
HETATM   24  H   UNL     1      -4.816  15.644  69.523  1.00  0.00     0.000 HD 
HETATM   25  C   UNL     1      -5.151  18.286  70.608  1.00  0.00    -0.260 A  
ENDBRANCH  14  16
ENDBRANCH  13  14
ENDBRANCH   1  13
TORSDOF 3
ENDMDL
MODEL      139
REMARK 921   NORMALIZED FREE ENERGY PREDICTED BY IDOCK:   -5.08 KCAL/MOL
REMARK 922        TOTAL FREE ENERGY PREDICTED BY IDOCK:   -6.60 KCAL/MOL
REMARK 923 INTER-LIGAND FREE ENERGY PREDICTED BY IDOCK:   -5.84 KCAL/MOL
REMARK 924 INTRA-LIGAND FREE ENERGY PREDICTED BY IDOCK:   -0.76 KCAL/MOL
REMARK 927      BINDING AFFINITY PREDICTED BY RF-SCORE:    0.00 PKD
ROOT
HETATM    1  C   UNL     1      -9.515  16.526  69.277  1.00  0.00    -0.152 C  
HETATM    2  C   UNL     1     -10.670  15.772  69.960  1.00  0.00    -0.347 C  
HETATM    3  C   UNL     1      -8.417  15.503  69.010  1.00  0.00    -0.229 C  
HETATM    4  C   UNL     1     -11.056  14.421  69.304  1.00  0.00    -0.271 C  
HETATM    5  N   UNL     1      -9.884  13.537  68.991  1.00  0.00     0.078 NA 
HETATM    6  C   UNL     1      -8.933  14.312  68.167  1.00  0.00    -0.189 C  
HETATM    7  O   UNL     1     -11.879  11.991  66.382  1.00  0.00    -0.578 OA 
HETATM    8  C   UNL     1     -11.901  14.709  68.051  1.00  0.00    -0.343 C  
HETATM    9  C   UNL     1     -11.165  12.751  67.028  1.00  0.00    -0.292 C  
HETATM   10  C   UNL     1     -11.134  14.245  66.815  1.00  0.00    -0.316 C  
HETATM   11  C   UNL     1     -10.270  12.321  68.185  1.00  0.00    -0.212 C  
HETATM   12  C   UNL     1      -9.620  14.594  66.798  1.00  0.00    -0.266 C  
ENDROOT
BRANCH   1  13
HETATM   13  O   UNL     1      -9.708  17.119  67.978  1.00  0.00    -0.259 OA 
BRANCH  13  14
HETATM   14  C   UNL     1      -9.733  18.447  67.728  1.00  0.00    -0.301 C  
HETATM   15  O   UNL     1     -10.733  19.054  67.365  1.00  0.00    -0.461 OA 
BRANCH  14  16
HETATM   16  C   UNL     1      -8.399  19.051  67.828  1.00  0.00    -0.318 A  
HETATM   17  C   UNL     1      -6.290  19.773  67.302  1.00  0.00    -0.189 A  
HETATM   18  C   UNL     1      -7.418  19.124  66.787  1.00  0.00    -0.237 A  
HETATM   19  N   UNL     1      -6.550  20.048  68.628  1.00  0.00    -0.296 NA 
HETATM   20  C   UNL     1      -7.379  18.658  65.456  1.00  0.00     0.037 A  
HETATM   21  C   UNL     1      -7.802  19.603  68.964  1.00  0.00    -0.231 A  
HETATM   22  C   UNL     1      -6.248  18.902  64.681  1.00  0.00    -0.122 A  
HETATM   23  C   UNL     1      -5.160  19.595  65.203  1.00  0.00    -0.181 A  
HETATM   24  H   UNL     1      -5.905  20.515  69.265  1.00  0.00     0.000 HD 
HETATM   25  C   UNL     1      -5.153  20.036  66.531  1.00  0.00    -0.170 A  
ENDBRANCH  14  16
ENDBRANCH  13  14
ENDBRANCH   1  13
TORSDOF 3
ENDMDL
MODEL      140
REMARK 921   NORMALIZED FREE ENERGY PREDICTED BY IDOCK:   -5.06 KCAL/MOL
REMARK 922        TOTAL FREE ENERGY PREDICTED BY IDOCK:   -6.58 KCAL/MOL
REMARK 923 INTER-LIGAND FREE ENERGY PREDICTED BY IDOCK:   -5.82 KCAL/MOL
REMARK 924 INTRA-LIGAND FREE ENERGY PREDICTED BY IDOCK:   -0.76 KCAL/MOL
REMARK 927      BINDING AFFINITY PREDICTED BY RF-SCORE:    0.00 PKD
ROOT
HETATM    1  C   UNL     1     -10.447   6.906  68.429  1.00  0.00    -0.204 C  
HETATM    2  C   UNL     1      -9.351   6.052  69.091  1.00  0.00    -0.136 C  
HETATM    3  C   UNL     1     -11.644   6.897  69.372  1.00  0.00    -0.042 C  
HETATM    4  C   UNL     1      -9.113   6.336  70.597  1.00  0.00    -0.151 C  
HETATM    5  N   UNL     1     -10.372   6.407  71.412  1.00  0.00    -0.203 NA 
HETATM    6  C   UNL     1     -11.267   7.403  70.785  1.00  0.00    -0.271 C  
HETATM    7  O   UNL     1      -8.604   8.528  73.767  1.00  0.00    -0.307 OA 
HETATM    8  C   UNL     1      -8.278   7.622  70.727  1.00  0.00    -0.109 C  
HETATM    9  C   UNL     1      -9.224   8.101  72.800  1.00  0.00    -0.271 C  
HETATM   10  C   UNL     1      -9.119   8.695  71.416  1.00  0.00    -0.295 C  
HETATM   11  C   UNL     1     -10.125   6.871  72.827  1.00  0.00    -0.177 C  
HETATM   12  C   UNL     1     -10.593   8.800  70.935  1.00  0.00    -0.276 C  
ENDROOT
BRANCH   1  13
HETATM   13  O   UNL     1     -10.234   8.315  68.213  1.00  0.00    -0.197 OA 
BRANCH  13  14
HETATM   14  C   UNL     1      -9.300   8.841  67.391  1.00  0.00    -0.137 C  
HETATM   15  O   UNL     1      -8.112   8.545  67.430  1.00  0.00    -0.104 OA 
BRANCH  14  16
HETATM   16  C   UNL     1      -9.854   9.890  66.528  1.00  0.00    -0.274 A  
HETATM   17  C   UNL     1     -10.946  11.773  65.815  1.00  0.00    -0.301 A  
HETATM   18  C   UNL     1     -10.606  11.033  66.953  1.00  0.00    -0.307 A  
HETATM   19  N   UNL     1     -10.460  11.086  64.723  1.00  0.00    -0.325 NA 
HETATM   20  C   UNL     1     -11.061  11.481  68.210  1.00  0.00    -0.295 A  
HETATM   21  C   UNL     1      -9.821   9.944  65.131  1.00  0.00    -0.278 A  
HETATM   22  C   UNL     1     -11.785  12.668  68.289  1.00  0.00    -0.389 A  
HETATM   23  C   UNL     1     -12.065  13.412  67.148  1.00  0.00    -0.367 A  
HETATM   24  H   UNL     1     -10.560  11.384  63.753  1.00  0.00     0.000 HD 
HETATM   25  C   UNL     1     -11.660  12.974  65.882  1.00  0.00    -0.405 A  
ENDBRANCH  14  16
ENDBRANCH  13  14
ENDBRANCH   1  13
TORSDOF 3
ENDMDL
MODEL      141
REMARK 921   NORMALIZED FREE ENERGY PREDICTED BY IDOCK:   -5.03 KCAL/MOL
REMARK 922        TOTAL FREE ENERGY PREDICTED BY IDOCK:   -6.54 KCAL/MOL
REMARK 923 INTER-LIGAND FREE ENERGY PREDICTED BY IDOCK:   -5.38 KCAL/MOL
REMARK 924 INTRA-LIGAND FREE ENERGY PREDICTED BY IDOCK:   -1.16 KCAL/MOL
REMARK 927      BINDING AFFINITY PREDICTED BY RF-SCORE:    0.00 PKD
ROOT
HETATM    1  C   UNL     1      -8.569   9.775  66.524  1.00  0.00    -0.127 C  
HETATM    2  C   UNL     1      -7.355   8.970  66.028  1.00  0.00    -0.094 C  
HETATM    3  C   UNL     1      -9.813   9.043  66.036  1.00  0.00    -0.312 C  
HETATM    4  C   UNL     1      -7.447   7.437  66.242  1.00  0.00    -0.083 C  
HETATM    5  N   UNL     1      -8.758   6.839  65.819  1.00  0.00    -0.141 NA 
HETATM    6  C   UNL     1      -9.839   7.571  66.512  1.00  0.00    -0.156 C  
HETATM    7  O   UNL     1      -8.179   4.154  68.192  1.00  0.00    -0.091 OA 
HETATM    8  C   UNL     1      -7.130   7.127  67.716  1.00  0.00    -0.085 C  
HETATM    9  C   UNL     1      -8.470   5.225  67.670  1.00  0.00    -0.105 C  
HETATM   10  C   UNL     1      -8.376   6.551  68.383  1.00  0.00    -0.117 C  
HETATM   11  C   UNL     1      -8.890   5.388  66.213  1.00  0.00    -0.131 C  
HETATM   12  C   UNL     1      -9.712   7.265  68.035  1.00  0.00    -0.157 C  
ENDROOT
BRANCH   1  13
HETATM   13  O   UNL     1      -8.821   9.905  67.937  1.00  0.00    -0.128 OA 
BRANCH  13  14
HETATM   14  C   UNL     1      -9.333  11.004  68.536  1.00  0.00    -0.188 C  
HETATM   15  O   UNL     1      -8.746  12.077  68.607  1.00  0.00    -0.121 OA 
BRANCH  14  16
HETATM   16  C   UNL     1     -10.617  10.728  69.188  1.00  0.00    -0.254 A  
HETATM   17  C   UNL     1     -12.198   9.894  70.620  1.00  0.00    -0.238 A  
HETATM   18  C   UNL     1     -10.830   9.885  70.326  1.00  0.00    -0.367 A  
HETATM   19  N   UNL     1     -12.813  10.679  69.668  1.00  0.00    -0.550 NA 
HETATM   20  C   UNL     1      -9.977   9.081  71.111  1.00  0.00    -0.365 A  
HETATM   21  C   UNL     1     -11.882  11.169  68.789  1.00  0.00    -0.320 A  
HETATM   22  C   UNL     1     -10.507   8.367  72.182  1.00  0.00    -0.396 A  
HETATM   23  C   UNL     1     -11.864   8.434  72.484  1.00  0.00    -0.427 A  
HETATM   24  H   UNL     1     -13.814  10.867  69.625  1.00  0.00     0.000 HD 
HETATM   25  C   UNL     1     -12.742   9.192  71.701  1.00  0.00    -0.429 A  
ENDBRANCH  14  16
ENDBRANCH  13  14
ENDBRANCH   1  13
TORSDOF 3
ENDMDL
MODEL      142
REMARK 921   NORMALIZED FREE ENERGY PREDICTED BY IDOCK:   -5.03 KCAL/MOL
REMARK 922        TOTAL FREE ENERGY PREDICTED BY IDOCK:   -6.54 KCAL/MOL
REMARK 923 INTER-LIGAND FREE ENERGY PREDICTED BY IDOCK:   -5.31 KCAL/MOL
REMARK 924 INTRA-LIGAND FREE ENERGY PREDICTED BY IDOCK:   -1.22 KCAL/MOL
REMARK 927      BINDING AFFINITY PREDICTED BY RF-SCORE:    0.00 PKD
ROOT
HETATM    1  C   UNL     1     -11.949  14.941  66.222  1.00  0.00    -0.055 C  
HETATM    2  C   UNL     1     -10.748  15.039  65.265  1.00  0.00    -0.406 C  
HETATM    3  C   UNL     1     -12.984  14.053  65.543  1.00  0.00    -0.353 C  
HETATM    4  C   UNL     1     -10.284  13.693  64.649  1.00  0.00    -0.311 C  
HETATM    5  N   UNL     1     -11.401  12.854  64.102  1.00  0.00    -0.370 NA 
HETATM    6  C   UNL     1     -12.401  12.668  65.175  1.00  0.00    -0.484 C  
HETATM    7  O   UNL     1      -9.327   9.925  64.644  1.00  0.00    -0.249 OA 
HETATM    8  C   UNL     1      -9.462  12.930  65.703  1.00  0.00     0.061 C  
HETATM    9  C   UNL     1     -10.082  10.879  64.792  1.00  0.00    -0.321 C  
HETATM   10  C   UNL     1     -10.205  11.651  66.083  1.00  0.00    -0.263 C  
HETATM   11  C   UNL     1     -10.945  11.477  63.685  1.00  0.00    -0.404 C  
HETATM   12  C   UNL     1     -11.737  11.804  66.289  1.00  0.00    -0.109 C  
ENDROOT
BRANCH   1  13
HETATM   13  O   UNL     1     -11.798  14.311  67.509  1.00  0.00    -0.370 OA 
BRANCH  13  14
HETATM   14  C   UNL     1     -11.651  14.967  68.682  1.00  0.00    -0.325 C  
HETATM   15  O   UNL     1     -12.536  15.070  69.522  1.00  0.00    -0.139 OA 
BRANCH  14  16
HETATM   16  C   UNL     1     -10.349  15.638  68.777  1.00  0.00    -0.218 A  
HETATM   17  C   UNL     1      -8.095  16.002  68.945  1.00  0.00    -0.218 A  
HETATM   18  C   UNL     1      -9.069  15.002  68.867  1.00  0.00    -0.202 A  
HETATM   19  N   UNL     1      -8.755  17.213  68.951  1.00  0.00    -0.231 NA 
HETATM   20  C   UNL     1      -8.658  13.654  68.926  1.00  0.00     0.175 A  
HETATM   21  C   UNL     1     -10.109  17.011  68.872  1.00  0.00    -0.307 A  
HETATM   22  C   UNL     1      -7.299  13.358  69.006  1.00  0.00     0.023 A  
HETATM   23  C   UNL     1      -6.347  14.373  69.031  1.00  0.00    -0.097 A  
HETATM   24  H   UNL     1      -8.302  18.125  69.006  1.00  0.00     0.000 HD 
HETATM   25  C   UNL     1      -6.726  15.720  69.012  1.00  0.00    -0.143 A  
ENDBRANCH  14  16
ENDBRANCH  13  14
ENDBRANCH   1  13
TORSDOF 3
ENDMDL
MODEL      143
REMARK 921   NORMALIZED FREE ENERGY PREDICTED BY IDOCK:   -5.02 KCAL/MOL
REMARK 922        TOTAL FREE ENERGY PREDICTED BY IDOCK:   -6.53 KCAL/MOL
REMARK 923 INTER-LIGAND FREE ENERGY PREDICTED BY IDOCK:   -5.71 KCAL/MOL
REMARK 924 INTRA-LIGAND FREE ENERGY PREDICTED BY IDOCK:   -0.83 KCAL/MOL
REMARK 927      BINDING AFFINITY PREDICTED BY RF-SCORE:    0.00 PKD
ROOT
HETATM    1  C   UNL     1     -10.770   9.152  70.590  1.00  0.00    -0.254 C  
HETATM    2  C   UNL     1     -11.999   8.232  70.480  1.00  0.00     0.070 C  
HETATM    3  C   UNL     1     -10.243   9.017  72.013  1.00  0.00    -0.270 C  
HETATM    4  C   UNL     1     -11.815   6.811  71.074  1.00  0.00    -0.376 C  
HETATM    5  N   UNL     1     -11.192   6.796  72.440  1.00  0.00    -0.255 NA 
HETATM    6  C   UNL     1      -9.921   7.547  72.371  1.00  0.00    -0.184 C  
HETATM    7  O   UNL     1      -9.993   3.442  71.740  1.00  0.00    -0.169 OA 
HETATM    8  C   UNL     1     -11.012   5.962  70.073  1.00  0.00    -0.430 C  
HETATM    9  C   UNL     1     -10.130   4.660  71.789  1.00  0.00    -0.191 C  
HETATM   10  C   UNL     1      -9.668   5.594  70.698  1.00  0.00    -0.232 C  
HETATM   11  C   UNL     1     -10.852   5.402  72.909  1.00  0.00    -0.270 C  
HETATM   12  C   UNL     1      -8.948   6.740  71.459  1.00  0.00    -0.137 C  
ENDROOT
BRANCH   1  13
HETATM   13  O   UNL     1      -9.595   8.885  69.799  1.00  0.00    -0.164 OA 
BRANCH  13  14
HETATM   14  C   UNL     1      -8.893   9.816  69.115  1.00  0.00    -0.160 C  
HETATM   15  O   UNL     1      -7.897  10.377  69.554  1.00  0.00    -0.151 OA 
BRANCH  14  16
HETATM   16  C   UNL     1      -9.529  10.157  67.838  1.00  0.00    -0.154 A  
HETATM   17  C   UNL     1     -10.719  11.266  66.225  1.00  0.00    -0.257 A  
HETATM   18  C   UNL     1     -10.289  11.339  67.554  1.00  0.00    -0.224 A  
HETATM   19  N   UNL     1     -10.279  10.061  65.721  1.00  0.00    -0.242 NA 
HETATM   20  C   UNL     1     -10.680  12.450  68.331  1.00  0.00    -0.254 A  
HETATM   21  C   UNL     1      -9.583   9.374  66.682  1.00  0.00    -0.192 A  
HETATM   22  C   UNL     1     -11.432  13.462  67.741  1.00  0.00    -0.351 A  
HETATM   23  C   UNL     1     -11.803  13.390  66.402  1.00  0.00    -0.441 A  
HETATM   24  H   UNL     1     -10.448   9.728  64.772  1.00  0.00     0.000 HD 
HETATM   25  C   UNL     1     -11.463  12.283  65.616  1.00  0.00    -0.416 A  
ENDBRANCH  14  16
ENDBRANCH  13  14
ENDBRANCH   1  13
TORSDOF 3
ENDMDL
MODEL      144
REMARK 921   NORMALIZED FREE ENERGY PREDICTED BY IDOCK:   -5.02 KCAL/MOL
REMARK 922        TOTAL FREE ENERGY PREDICTED BY IDOCK:   -6.53 KCAL/MOL
REMARK 923 INTER-LIGAND FREE ENERGY PREDICTED BY IDOCK:   -5.93 KCAL/MOL
REMARK 924 INTRA-LIGAND FREE ENERGY PREDICTED BY IDOCK:   -0.59 KCAL/MOL
REMARK 927      BINDING AFFINITY PREDICTED BY RF-SCORE:    0.00 PKD
ROOT
HETATM    1  C   UNL     1      -9.764   8.694  69.651  1.00  0.00    -0.179 C  
HETATM    2  C   UNL     1     -10.110   9.230  71.051  1.00  0.00    -0.373 C  
HETATM    3  C   UNL     1      -8.763   7.562  69.846  1.00  0.00    -0.140 C  
HETATM    4  C   UNL     1     -10.413   8.145  72.117  1.00  0.00    -0.284 C  
HETATM    5  N   UNL     1      -9.415   7.025  72.149  1.00  0.00    -0.138 NA 
HETATM    6  C   UNL     1      -9.313   6.463  70.786  1.00  0.00    -0.158 C  
HETATM    7  O   UNL     1     -12.008   4.893  73.530  1.00  0.00    -0.004 OA 
HETATM    8  C   UNL     1     -11.844   7.625  71.894  1.00  0.00    -0.332 C  
HETATM    9  C   UNL     1     -11.293   5.543  72.775  1.00  0.00    -0.303 C  
HETATM   10  C   UNL     1     -11.782   6.155  71.486  1.00  0.00    -0.264 C  
HETATM   11  C   UNL     1      -9.836   5.895  73.058  1.00  0.00    -0.167 C  
HETATM   12  C   UNL     1     -10.681   5.794  70.452  1.00  0.00    -0.372 C  
ENDROOT
BRANCH   1  13
HETATM   13  O   UNL     1     -10.783   8.071  68.844  1.00  0.00    -0.175 OA 
BRANCH  13  14
HETATM   14  C   UNL     1     -10.723   7.917  67.502  1.00  0.00    -0.181 C  
HETATM   15  O   UNL     1     -11.038   6.887  66.919  1.00  0.00    -0.379 OA 
BRANCH  14  16
HETATM   16  C   UNL     1     -10.129   9.084  66.841  1.00  0.00    -0.338 A  
HETATM   17  C   UNL     1      -9.715  11.238  66.183  1.00  0.00    -0.220 A  
HETATM   18  C   UNL     1     -10.540  10.448  66.991  1.00  0.00    -0.305 A  
HETATM   19  N   UNL     1      -8.856  10.386  65.522  1.00  0.00    -0.168 NA 
HETATM   20  C   UNL     1     -11.572  11.076  67.720  1.00  0.00    -0.277 A  
HETATM   21  C   UNL     1      -9.106   9.089  65.889  1.00  0.00    -0.212 A  
HETATM   22  C   UNL     1     -11.706  12.460  67.657  1.00  0.00    -0.412 A  
HETATM   23  C   UNL     1     -10.839  13.228  66.886  1.00  0.00    -0.286 A  
HETATM   24  H   UNL     1      -8.140  10.678  64.857  1.00  0.00     0.000 HD 
HETATM   25  C   UNL     1      -9.830  12.631  66.122  1.00  0.00    -0.265 A  
ENDBRANCH  14  16
ENDBRANCH  13  14
ENDBRANCH   1  13
TORSDOF 3
ENDMDL
MODEL      145
REMARK 921   NORMALIZED FREE ENERGY PREDICTED BY IDOCK:   -5.01 KCAL/MOL
REMARK 922        TOTAL FREE ENERGY PREDICTED BY IDOCK:   -6.52 KCAL/MOL
REMARK 923 INTER-LIGAND FREE ENERGY PREDICTED BY IDOCK:   -5.76 KCAL/MOL
REMARK 924 INTRA-LIGAND FREE ENERGY PREDICTED BY IDOCK:   -0.76 KCAL/MOL
REMARK 927      BINDING AFFINITY PREDICTED BY RF-SCORE:    0.00 PKD
ROOT
HETATM    1  C   UNL     1      -9.777  13.164  68.186  1.00  0.00    -0.228 C  
HETATM    2  C   UNL     1      -8.713  13.688  67.206  1.00  0.00    -0.223 C  
HETATM    3  C   UNL     1     -10.515  14.383  68.729  1.00  0.00    -0.244 C  
HETATM    4  C   UNL     1      -9.209  14.764  66.205  1.00  0.00    -0.243 C  
HETATM    5  N   UNL     1     -10.012  15.862  66.838  1.00  0.00    -0.243 NA 
HETATM    6  C   UNL     1     -11.121  15.242  67.594  1.00  0.00    -0.323 C  
HETATM    7  O   UNL     1     -11.634  16.381  63.633  1.00  0.00    -0.926 OA 
HETATM    8  C   UNL     1      -9.991  14.063  65.080  1.00  0.00    -0.257 C  
HETATM    9  C   UNL     1     -11.307  15.952  64.734  1.00  0.00    -0.309 C  
HETATM   10  C   UNL     1     -11.451  14.505  65.139  1.00  0.00    -0.368 C  
HETATM   11  C   UNL     1     -10.639  16.786  65.822  1.00  0.00    -0.250 C  
HETATM   12  C   UNL     1     -12.074  14.569  66.561  1.00  0.00    -0.330 C  
ENDROOT
BRANCH   1  13
HETATM   13  O   UNL     1     -10.857  12.338  67.708  1.00  0.00    -0.208 OA 
BRANCH  13  14
HETATM   14  C   UNL     1     -11.224  11.153  68.245  1.00  0.00    -0.279 C  
HETATM   15  O   UNL     1     -12.375  10.736  68.252  1.00  0.00    -0.296 OA 
BRANCH  14  16
HETATM   16  C   UNL     1     -10.106  10.484  68.919  1.00  0.00    -0.215 A  
HETATM   17  C   UNL     1      -8.116   9.414  69.295  1.00  0.00    -0.105 A  
HETATM   18  C   UNL     1      -8.918   9.978  68.297  1.00  0.00    -0.119 A  
HETATM   19  N   UNL     1      -8.806   9.527  70.484  1.00  0.00    -0.244 NA 
HETATM   20  C   UNL     1      -8.474   9.917  66.960  1.00  0.00    -0.121 A  
HETATM   21  C   UNL     1     -10.010  10.148  70.272  1.00  0.00    -0.021 A  
HETATM   22  C   UNL     1      -7.233   9.350  66.679  1.00  0.00    -0.086 A  
HETATM   23  C   UNL     1      -6.433   8.842  67.697  1.00  0.00    -0.061 A  
HETATM   24  H   UNL     1      -8.470   9.198  71.388  1.00  0.00     0.000 HD 
HETATM   25  C   UNL     1      -6.862   8.853  69.029  1.00  0.00    -0.059 A  
ENDBRANCH  14  16
ENDBRANCH  13  14
ENDBRANCH   1  13
TORSDOF 3
ENDMDL
MODEL      146
REMARK 921   NORMALIZED FREE ENERGY PREDICTED BY IDOCK:   -5.00 KCAL/MOL
REMARK 922        TOTAL FREE ENERGY PREDICTED BY IDOCK:   -6.50 KCAL/MOL
REMARK 923 INTER-LIGAND FREE ENERGY PREDICTED BY IDOCK:   -5.48 KCAL/MOL
REMARK 924 INTRA-LIGAND FREE ENERGY PREDICTED BY IDOCK:   -1.02 KCAL/MOL
REMARK 927      BINDING AFFINITY PREDICTED BY RF-SCORE:    0.00 PKD
ROOT
HETATM    1  C   UNL     1      -9.858   6.353  68.166  1.00  0.00    -0.127 C  
HETATM    2  C   UNL     1     -10.649   7.363  67.316  1.00  0.00    -0.393 C  
HETATM    3  C   UNL     1      -8.838   5.700  67.241  1.00  0.00    -0.106 C  
HETATM    4  C   UNL     1      -9.788   8.271  66.399  1.00  0.00    -0.213 C  
HETATM    5  N   UNL     1      -8.746   7.530  65.611  1.00  0.00    -0.120 NA 
HETATM    6  C   UNL     1      -7.926   6.747  66.559  1.00  0.00    -0.105 C  
HETATM    7  O   UNL     1      -6.815  10.601  65.478  1.00  0.00    -0.126 OA 
HETATM    8  C   UNL     1      -9.165   9.385  67.258  1.00  0.00    -0.151 C  
HETATM    9  C   UNL     1      -7.332   9.547  65.832  1.00  0.00    -0.097 C  
HETATM   10  C   UNL     1      -7.648   9.216  67.270  1.00  0.00    -0.088 C  
HETATM   11  C   UNL     1      -7.805   8.455  64.878  1.00  0.00    -0.121 C  
HETATM   12  C   UNL     1      -7.139   7.759  67.445  1.00  0.00    -0.086 C  
ENDROOT
BRANCH   1  13
HETATM   13  O   UNL     1      -9.036   6.813  69.257  1.00  0.00    -0.137 OA 
BRANCH  13  14
HETATM   14  C   UNL     1      -9.424   6.871  70.550  1.00  0.00    -0.169 C  
HETATM   15  O   UNL     1      -9.187   5.995  71.373  1.00  0.00    -0.143 OA 
BRANCH  14  16
HETATM   16  C   UNL     1     -10.259   8.046  70.822  1.00  0.00    -0.209 A  
HETATM   17  C   UNL     1     -12.063   9.370  71.311  1.00  0.00    -0.345 A  
HETATM   18  C   UNL     1     -11.659   8.043  71.126  1.00  0.00    -0.307 A  
HETATM   19  N   UNL     1     -10.960  10.166  71.084  1.00  0.00    -0.260 NA 
HETATM   20  C   UNL     1     -12.629   7.024  71.221  1.00  0.00    -0.418 A  
HETATM   21  C   UNL     1      -9.875   9.389  70.769  1.00  0.00    -0.279 A  
HETATM   22  C   UNL     1     -13.940   7.358  71.548  1.00  0.00    -0.517 A  
HETATM   23  C   UNL     1     -14.304   8.682  71.777  1.00  0.00    -0.476 A  
HETATM   24  H   UNL     1     -10.952  11.184  71.141  1.00  0.00     0.000 HD 
HETATM   25  C   UNL     1     -13.374   9.719  71.652  1.00  0.00    -0.487 A  
ENDBRANCH  14  16
ENDBRANCH  13  14
ENDBRANCH   1  13
TORSDOF 3
ENDMDL
MODEL      147
REMARK 921   NORMALIZED FREE ENERGY PREDICTED BY IDOCK:   -4.99 KCAL/MOL
REMARK 922        TOTAL FREE ENERGY PREDICTED BY IDOCK:   -6.50 KCAL/MOL
REMARK 923 INTER-LIGAND FREE ENERGY PREDICTED BY IDOCK:   -5.08 KCAL/MOL
REMARK 924 INTRA-LIGAND FREE ENERGY PREDICTED BY IDOCK:   -1.42 KCAL/MOL
REMARK 927      BINDING AFFINITY PREDICTED BY RF-SCORE:    0.00 PKD
ROOT
HETATM    1  C   UNL     1      -8.739   6.871  66.841  1.00  0.00    -0.118 C  
HETATM    2  C   UNL     1     -10.219   7.292  66.797  1.00  0.00    -0.305 C  
HETATM    3  C   UNL     1      -8.038   7.602  65.703  1.00  0.00    -0.127 C  
HETATM    4  C   UNL     1     -10.467   8.813  66.626  1.00  0.00    -0.170 C  
HETATM    5  N   UNL     1      -9.646   9.448  65.541  1.00  0.00    -0.275 NA 
HETATM    6  C   UNL     1      -8.225   9.135  65.802  1.00  0.00    -0.115 C  
HETATM    7  O   UNL     1      -9.941  12.604  67.310  1.00  0.00    -0.209 OA 
HETATM    8  C   UNL     1     -10.247   9.502  67.984  1.00  0.00    -0.244 C  
HETATM    9  C   UNL     1      -9.603  11.483  66.945  1.00  0.00    -0.187 C  
HETATM   10  C   UNL     1      -9.044  10.437  67.878  1.00  0.00    -0.132 C  
HETATM   11  C   UNL     1      -9.766  10.952  65.524  1.00  0.00    -0.233 C  
HETATM   12  C   UNL     1      -7.817   9.865  67.117  1.00  0.00    -0.099 C  
ENDROOT
BRANCH   1  13
HETATM   13  O   UNL     1      -7.923   7.215  67.979  1.00  0.00    -0.115 OA 
BRANCH  13  14
HETATM   14  C   UNL     1      -7.961   6.592  69.177  1.00  0.00    -0.111 C  
HETATM   15  O   UNL     1      -7.631   5.425  69.349  1.00  0.00    -0.074 OA 
BRANCH  14  16
HETATM   16  C   UNL     1      -8.550   7.438  70.220  1.00  0.00    -0.145 A  
HETATM   17  C   UNL     1     -10.055   8.389  71.661  1.00  0.00    -0.239 A  
HETATM   18  C   UNL     1      -9.914   7.426  70.657  1.00  0.00    -0.186 A  
HETATM   19  N   UNL     1      -8.830   9.007  71.806  1.00  0.00    -0.356 NA 
HETATM   20  C   UNL     1     -11.054   6.699  70.254  1.00  0.00    -0.379 A  
HETATM   21  C   UNL     1      -7.923   8.463  70.934  1.00  0.00    -0.108 A  
HETATM   22  C   UNL     1     -12.267   6.922  70.901  1.00  0.00    -0.404 A  
HETATM   23  C   UNL     1     -12.368   7.850  71.932  1.00  0.00    -0.350 A  
HETATM   24  H   UNL     1      -8.630   9.758  72.466  1.00  0.00     0.000 HD 
HETATM   25  C   UNL     1     -11.264   8.613  72.328  1.00  0.00    -0.399 A  
ENDBRANCH  14  16
ENDBRANCH  13  14
ENDBRANCH   1  13
TORSDOF 3
ENDMDL
MODEL      148
REMARK 921   NORMALIZED FREE ENERGY PREDICTED BY IDOCK:   -4.99 KCAL/MOL
REMARK 922        TOTAL FREE ENERGY PREDICTED BY IDOCK:   -6.49 KCAL/MOL
REMARK 923 INTER-LIGAND FREE ENERGY PREDICTED BY IDOCK:   -5.52 KCAL/MOL
REMARK 924 INTRA-LIGAND FREE ENERGY PREDICTED BY IDOCK:   -0.97 KCAL/MOL
REMARK 927      BINDING AFFINITY PREDICTED BY RF-SCORE:    0.00 PKD
ROOT
HETATM    1  C   UNL     1     -10.035  12.854  66.050  1.00  0.00    -0.272 C  
HETATM    2  C   UNL     1     -11.553  13.097  65.994  1.00  0.00    -0.393 C  
HETATM    3  C   UNL     1      -9.375  14.219  66.210  1.00  0.00    -0.236 C  
HETATM    4  C   UNL     1     -12.106  14.069  67.069  1.00  0.00    -0.420 C  
HETATM    5  N   UNL     1     -11.315  15.337  67.210  1.00  0.00    -0.310 NA 
HETATM    6  C   UNL     1      -9.904  14.972  67.454  1.00  0.00    -0.224 C  
HETATM    7  O   UNL     1     -12.513  15.580  70.628  1.00  0.00    -0.392 OA 
HETATM    8  C   UNL     1     -12.212  13.313  68.405  1.00  0.00    -0.100 C  
HETATM    9  C   UNL     1     -11.895  15.278  69.613  1.00  0.00    -0.339 C  
HETATM   10  C   UNL     1     -11.241  13.933  69.407  1.00  0.00    -0.273 C  
HETATM   11  C   UNL     1     -11.760  16.173  68.386  1.00  0.00    -0.126 C  
HETATM   12  C   UNL     1      -9.833  14.278  68.847  1.00  0.00    -0.140 C  
ENDROOT
BRANCH   1  13
HETATM   13  O   UNL     1      -9.462  12.105  67.140  1.00  0.00    -0.183 OA 
BRANCH  13  14
HETATM   14  C   UNL     1      -9.332  10.760  67.172  1.00  0.00    -0.155 C  
HETATM   15  O   UNL     1      -8.915  10.092  66.234  1.00  0.00    -0.145 OA 
BRANCH  14  16
HETATM   16  C   UNL     1      -9.855  10.186  68.416  1.00  0.00    -0.164 A  
HETATM   17  C   UNL     1      -9.972   9.194  70.478  1.00  0.00    -0.235 A  
HETATM   18  C   UNL     1      -9.084   9.633  69.490  1.00  0.00    -0.209 A  
HETATM   19  N   UNL     1     -11.248   9.426  70.009  1.00  0.00    -0.344 NA 
HETATM   20  C   UNL     1      -7.702   9.434  69.688  1.00  0.00    -0.098 A  
HETATM   21  C   UNL     1     -11.196  10.000  68.765  1.00  0.00    -0.122 A  
HETATM   22  C   UNL     1      -7.260   8.859  70.877  1.00  0.00    -0.093 A  
HETATM   23  C   UNL     1      -8.162   8.478  71.865  1.00  0.00    -0.201 A  
HETATM   24  H   UNL     1     -12.105   9.202  70.514  1.00  0.00     0.000 HD 
HETATM   25  C   UNL     1      -9.541   8.627  71.682  1.00  0.00    -0.344 A  
ENDBRANCH  14  16
ENDBRANCH  13  14
ENDBRANCH   1  13
TORSDOF 3
ENDMDL
MODEL      149
REMARK 921   NORMALIZED FREE ENERGY PREDICTED BY IDOCK:   -4.97 KCAL/MOL
REMARK 922        TOTAL FREE ENERGY PREDICTED BY IDOCK:   -6.47 KCAL/MOL
REMARK 923 INTER-LIGAND FREE ENERGY PREDICTED BY IDOCK:   -5.28 KCAL/MOL
REMARK 924 INTRA-LIGAND FREE ENERGY PREDICTED BY IDOCK:   -1.19 KCAL/MOL
REMARK 927      BINDING AFFINITY PREDICTED BY RF-SCORE:    0.00 PKD
ROOT
HETATM    1  C   UNL     1     -11.695  12.337  68.107  1.00  0.00    -0.349 C  
HETATM    2  C   UNL     1     -11.756  13.476  69.139  1.00  0.00    -0.374 C  
HETATM    3  C   UNL     1     -12.024  12.951  66.751  1.00  0.00    -0.418 C  
HETATM    4  C   UNL     1     -11.036  14.785  68.722  1.00  0.00    -0.259 C  
HETATM    5  N   UNL     1     -11.357  15.240  67.328  1.00  0.00    -0.310 NA 
HETATM    6  C   UNL     1     -11.074  14.122  66.404  1.00  0.00    -0.320 C  
HETATM    7  O   UNL     1      -8.157  16.952  67.263  1.00  0.00    -0.175 OA 
HETATM    8  C   UNL     1      -9.522  14.597  68.924  1.00  0.00    -0.173 C  
HETATM    9  C   UNL     1      -9.044  16.106  67.217  1.00  0.00    -0.203 C  
HETATM   10  C   UNL     1      -8.827  14.654  67.566  1.00  0.00    -0.191 C  
HETATM   11  C   UNL     1     -10.502  16.402  66.884  1.00  0.00    -0.289 C  
HETATM   12  C   UNL     1      -9.535  13.879  66.420  1.00  0.00    -0.268 C  
ENDROOT
BRANCH   1  13
HETATM   13  O   UNL     1     -10.448  11.663  67.846  1.00  0.00    -0.183 OA 
BRANCH  13  14
HETATM   14  C   UNL     1     -10.322  10.351  67.549  1.00  0.00    -0.224 C  
HETATM   15  O   UNL     1     -10.892   9.456  68.161  1.00  0.00    -0.203 OA 
BRANCH  14  16
HETATM   16  C   UNL     1      -9.337  10.118  66.487  1.00  0.00    -0.200 A  
HETATM   17  C   UNL     1      -7.381  10.107  65.296  1.00  0.00    -0.141 A  
HETATM   18  C   UNL     1      -7.961  10.518  66.500  1.00  0.00    -0.132 A  
HETATM   19  N   UNL     1      -8.376   9.515  64.546  1.00  0.00    -0.152 NA 
HETATM   20  C   UNL     1      -7.167  11.231  67.423  1.00  0.00    -0.110 A  
HETATM   21  C   UNL     1      -9.560   9.534  65.238  1.00  0.00    -0.243 A  
HETATM   22  C   UNL     1      -5.824  11.456  67.135  1.00  0.00    -0.094 A  
HETATM   23  C   UNL     1      -5.259  10.992  65.951  1.00  0.00    -0.139 A  
HETATM   24  H   UNL     1      -8.249   9.122  63.614  1.00  0.00     0.000 HD 
HETATM   25  C   UNL     1      -6.029  10.315  64.999  1.00  0.00    -0.133 A  
ENDBRANCH  14  16
ENDBRANCH  13  14
ENDBRANCH   1  13
TORSDOF 3
ENDMDL
MODEL      150
REMARK 921   NORMALIZED FREE ENERGY PREDICTED BY IDOCK:   -4.95 KCAL/MOL
REMARK 922        TOTAL FREE ENERGY PREDICTED BY IDOCK:   -6.45 KCAL/MOL
REMARK 923 INTER-LIGAND FREE ENERGY PREDICTED BY IDOCK:   -5.78 KCAL/MOL
REMARK 924 INTRA-LIGAND FREE ENERGY PREDICTED BY IDOCK:   -0.67 KCAL/MOL
REMARK 927      BINDING AFFINITY PREDICTED BY RF-SCORE:    0.00 PKD
ROOT
HETATM    1  C   UNL     1     -11.567   6.284  71.759  1.00  0.00    -0.304 C  
HETATM    2  C   UNL     1     -10.862   5.488  70.647  1.00  0.00    -0.257 C  
HETATM    3  C   UNL     1     -11.218   5.605  73.078  1.00  0.00    -0.319 C  
HETATM    4  C   UNL     1      -9.379   5.130  70.931  1.00  0.00    -0.150 C  
HETATM    5  N   UNL     1      -9.138   4.563  72.300  1.00  0.00    -0.124 NA 
HETATM    6  C   UNL     1      -9.689   5.511  73.291  1.00  0.00    -0.150 C  
HETATM    7  O   UNL     1      -5.722   5.771  72.084  1.00  0.00    -0.025 OA 
HETATM    8  C   UNL     1      -8.516   6.377  70.672  1.00  0.00    -0.135 C  
HETATM    9  C   UNL     1      -6.936   5.685  72.235  1.00  0.00    -0.082 C  
HETATM   10  C   UNL     1      -7.888   6.830  71.988  1.00  0.00    -0.096 C  
HETATM   11  C   UNL     1      -7.671   4.404  72.614  1.00  0.00    -0.085 C  
HETATM   12  C   UNL     1      -8.833   6.812  73.220  1.00  0.00    -0.140 C  
ENDROOT
BRANCH   1  13
HETATM   13  O   UNL     1     -11.200   7.655  72.011  1.00  0.00    -0.250 OA 
BRANCH  13  14
HETATM   14  C   UNL     1     -12.022   8.717  71.867  1.00  0.00    -0.365 C  
HETATM   15  O   UNL     1     -13.078   8.850  72.474  1.00  0.00    -0.422 OA 
BRANCH  14  16
HETATM   16  C   UNL     1     -11.561   9.631  70.816  1.00  0.00    -0.395 A  
HETATM   17  C   UNL     1     -11.232  11.519  69.562  1.00  0.00    -0.236 A  
HETATM   18  C   UNL     1     -11.864  11.027  70.709  1.00  0.00    -0.383 A  
HETATM   19  N   UNL     1     -10.599  10.454  68.958  1.00  0.00    -0.207 NA 
HETATM   20  C   UNL     1     -12.657  11.909  71.473  1.00  0.00    -0.298 A  
HETATM   21  C   UNL     1     -10.805   9.310  69.685  1.00  0.00    -0.212 A  
HETATM   22  C   UNL     1     -12.744  13.247  71.097  1.00  0.00    -0.404 A  
HETATM   23  C   UNL     1     -12.063  13.721  69.981  1.00  0.00    -0.416 A  
HETATM   24  H   UNL     1     -10.058  10.508  68.095  1.00  0.00     0.000 HD 
HETATM   25  C   UNL     1     -11.300  12.864  69.181  1.00  0.00    -0.329 A  
ENDBRANCH  14  16
ENDBRANCH  13  14
ENDBRANCH   1  13
TORSDOF 3
ENDMDL
MODEL      151
REMARK 921   NORMALIZED FREE ENERGY PREDICTED BY IDOCK:   -4.95 KCAL/MOL
REMARK 922        TOTAL FREE ENERGY PREDICTED BY IDOCK:   -6.45 KCAL/MOL
REMARK 923 INTER-LIGAND FREE ENERGY PREDICTED BY IDOCK:   -5.75 KCAL/MOL
REMARK 924 INTRA-LIGAND FREE ENERGY PREDICTED BY IDOCK:   -0.71 KCAL/MOL
REMARK 927      BINDING AFFINITY PREDICTED BY RF-SCORE:    0.00 PKD
ROOT
HETATM    1  C   UNL     1     -10.004   9.436  69.725  1.00  0.00    -0.200 C  
HETATM    2  C   UNL     1     -11.337   9.590  70.477  1.00  0.00    -0.343 C  
HETATM    3  C   UNL     1      -8.923   9.230  70.779  1.00  0.00    -0.292 C  
HETATM    4  C   UNL     1     -11.584   8.552  71.603  1.00  0.00    -0.299 C  
HETATM    5  N   UNL     1     -10.413   8.356  72.521  1.00  0.00    -0.329 NA 
HETATM    6  C   UNL     1      -9.234   8.022  71.694  1.00  0.00    -0.150 C  
HETATM    7  O   UNL     1     -11.662   5.023  73.234  1.00  0.00    -0.292 OA 
HETATM    8  C   UNL     1     -12.029   7.227  70.958  1.00  0.00    -0.362 C  
HETATM    9  C   UNL     1     -11.125   5.996  72.715  1.00  0.00    -0.269 C  
HETATM   10  C   UNL     1     -10.966   6.163  71.224  1.00  0.00    -0.340 C  
HETATM   11  C   UNL     1     -10.612   7.210  73.483  1.00  0.00    -0.374 C  
HETATM   12  C   UNL     1      -9.495   6.628  71.048  1.00  0.00    -0.168 C  
ENDROOT
BRANCH   1  13
HETATM   13  O   UNL     1      -9.796   8.313  68.846  1.00  0.00    -0.171 OA 
BRANCH  13  14
HETATM   14  C   UNL     1     -10.460   8.100  67.688  1.00  0.00    -0.231 C  
HETATM   15  O   UNL     1     -11.137   7.105  67.463  1.00  0.00    -0.208 OA 
BRANCH  14  16
HETATM   16  C   UNL     1     -10.181   9.143  66.694  1.00  0.00    -0.328 A  
HETATM   17  C   UNL     1      -9.257  10.285  64.938  1.00  0.00    -0.227 A  
HETATM   18  C   UNL     1      -9.196   9.086  65.655  1.00  0.00    -0.288 A  
HETATM   19  N   UNL     1     -10.214  11.073  65.542  1.00  0.00    -0.258 NA 
HETATM   20  C   UNL     1      -8.228   8.128  65.288  1.00  0.00    -0.150 A  
HETATM   21  C   UNL     1     -10.763  10.410  66.610  1.00  0.00    -0.128 A  
HETATM   22  C   UNL     1      -7.403   8.378  64.195  1.00  0.00    -0.101 A  
HETATM   23  C   UNL     1      -7.519   9.558  63.466  1.00  0.00    -0.114 A  
HETATM   24  H   UNL     1     -10.476  12.010  65.238  1.00  0.00     0.000 HD 
HETATM   25  C   UNL     1      -8.443  10.544  63.829  1.00  0.00    -0.127 A  
ENDBRANCH  14  16
ENDBRANCH  13  14
ENDBRANCH   1  13
TORSDOF 3
ENDMDL
MODEL      152
REMARK 921   NORMALIZED FREE ENERGY PREDICTED BY IDOCK:   -4.93 KCAL/MOL
REMARK 922        TOTAL FREE ENERGY PREDICTED BY IDOCK:   -6.43 KCAL/MOL
REMARK 923 INTER-LIGAND FREE ENERGY PREDICTED BY IDOCK:   -6.13 KCAL/MOL
REMARK 924 INTRA-LIGAND FREE ENERGY PREDICTED BY IDOCK:   -0.30 KCAL/MOL
REMARK 927      BINDING AFFINITY PREDICTED BY RF-SCORE:    0.00 PKD
ROOT
HETATM    1  C   UNL     1     -10.597  15.414  66.784  1.00  0.00    -0.309 C  
HETATM    2  C   UNL     1     -10.702  14.438  65.600  1.00  0.00    -0.326 C  
HETATM    3  C   UNL     1     -11.717  15.055  67.754  1.00  0.00    -0.294 C  
HETATM    4  C   UNL     1     -10.901  12.949  65.987  1.00  0.00    -0.279 C  
HETATM    5  N   UNL     1     -11.961  12.725  67.025  1.00  0.00    -0.446 NA 
HETATM    6  C   UNL     1     -11.644  13.573  68.193  1.00  0.00    -0.333 C  
HETATM    7  O   UNL     1     -10.243   9.669  67.967  1.00  0.00    -0.173 OA 
HETATM    8  C   UNL     1      -9.544  12.371  66.424  1.00  0.00    -0.249 C  
HETATM    9  C   UNL     1     -10.582  10.841  67.838  1.00  0.00    -0.221 C  
HETATM   10  C   UNL     1      -9.616  11.998  67.903  1.00  0.00    -0.196 C  
HETATM   11  C   UNL     1     -12.001  11.299  67.518  1.00  0.00     0.258 C  
HETATM   12  C   UNL     1     -10.324  13.033  68.820  1.00  0.00    -0.146 C  
ENDROOT
BRANCH   1  13
HETATM   13  O   UNL     1      -9.434  15.396  67.636  1.00  0.00    -0.203 OA 
BRANCH  13  14
HETATM   14  C   UNL     1      -8.176  15.688  67.237  1.00  0.00    -0.191 C  
HETATM   15  O   UNL     1      -7.238  14.904  67.311  1.00  0.00    -0.194 OA 
BRANCH  14  16
HETATM   16  C   UNL     1      -8.044  17.087  66.816  1.00  0.00    -0.277 A  
HETATM   17  C   UNL     1      -8.385  19.343  66.615  1.00  0.00    -0.310 A  
HETATM   18  C   UNL     1      -8.837  18.191  67.268  1.00  0.00    -0.251 A  
HETATM   19  N   UNL     1      -7.379  18.955  65.756  1.00  0.00    -0.458 NA 
HETATM   20  C   UNL     1      -9.931  18.301  68.151  1.00  0.00    -0.377 A  
HETATM   21  C   UNL     1      -7.176  17.602  65.849  1.00  0.00    -0.200 A  
HETATM   22  C   UNL     1     -10.492  19.553  68.389  1.00  0.00    -0.378 A  
HETATM   23  C   UNL     1      -9.990  20.691  67.765  1.00  0.00    -0.326 A  
HETATM   24  H   UNL     1      -6.861  19.583  65.142  1.00  0.00     0.000 HD 
HETATM   25  C   UNL     1      -8.931  20.609  66.855  1.00  0.00    -0.256 A  
ENDBRANCH  14  16
ENDBRANCH  13  14
ENDBRANCH   1  13
TORSDOF 3
ENDMDL
MODEL      153
REMARK 921   NORMALIZED FREE ENERGY PREDICTED BY IDOCK:   -4.91 KCAL/MOL
REMARK 922        TOTAL FREE ENERGY PREDICTED BY IDOCK:   -6.41 KCAL/MOL
REMARK 923 INTER-LIGAND FREE ENERGY PREDICTED BY IDOCK:   -4.97 KCAL/MOL
REMARK 924 INTRA-LIGAND FREE ENERGY PREDICTED BY IDOCK:   -1.43 KCAL/MOL
REMARK 927      BINDING AFFINITY PREDICTED BY RF-SCORE:    0.00 PKD
ROOT
HETATM    1  C   UNL     1      -8.377   7.866  71.376  1.00  0.00    -0.108 C  
HETATM    2  C   UNL     1      -9.194   8.579  70.285  1.00  0.00    -0.164 C  
HETATM    3  C   UNL     1      -8.929   8.334  72.718  1.00  0.00    -0.323 C  
HETATM    4  C   UNL     1     -10.730   8.571  70.500  1.00  0.00    -0.221 C  
HETATM    5  N   UNL     1     -11.154   8.950  71.889  1.00  0.00    -0.358 NA 
HETATM    6  C   UNL     1     -10.448   8.066  72.840  1.00  0.00    -0.332 C  
HETATM    7  O   UNL     1     -14.194   7.034  71.370  1.00  0.00    -0.325 OA 
HETATM    8  C   UNL     1     -11.275   7.190  70.095  1.00  0.00    -0.295 C  
HETATM    9  C   UNL     1     -13.039   7.375  71.603  1.00  0.00    -0.364 C  
HETATM   10  C   UNL     1     -11.842   6.496  71.332  1.00  0.00    -0.384 C  
HETATM   11  C   UNL     1     -12.632   8.750  72.122  1.00  0.00    -0.399 C  
HETATM   12  C   UNL     1     -10.982   6.618  72.620  1.00  0.00    -0.288 C  
ENDROOT
BRANCH   1  13
HETATM   13  O   UNL     1      -8.434   6.432  71.502  1.00  0.00    -0.128 OA 
BRANCH  13  14
HETATM   14  C   UNL     1      -7.659   5.562  70.817  1.00  0.00    -0.090 C  
HETATM   15  O   UNL     1      -6.445   5.476  70.954  1.00  0.00    -0.033 OA 
BRANCH  14  16
HETATM   16  C   UNL     1      -8.424   4.817  69.812  1.00  0.00    -0.086 A  
HETATM   17  C   UNL     1      -9.386   4.192  67.829  1.00  0.00    -0.168 A  
HETATM   18  C   UNL     1      -8.577   5.162  68.430  1.00  0.00    -0.098 A  
HETATM   19  N   UNL     1      -9.757   3.304  68.817  1.00  0.00    -0.019 NA 
HETATM   20  C   UNL     1      -8.125   6.244  67.645  1.00  0.00    -0.117 A  
HETATM   21  C   UNL     1      -9.206   3.676  70.016  1.00  0.00    -0.153 A  
HETATM   22  C   UNL     1      -8.449   6.286  66.292  1.00  0.00    -0.133 A  
HETATM   23  C   UNL     1      -9.212   5.280  65.708  1.00  0.00    -0.159 A  
HETATM   24  H   UNL     1     -10.354   2.489  68.675  1.00  0.00     0.000 HD 
HETATM   25  C   UNL     1      -9.708   4.215  66.468  1.00  0.00    -0.228 A  
ENDBRANCH  14  16
ENDBRANCH  13  14
ENDBRANCH   1  13
TORSDOF 3
ENDMDL
MODEL      154
REMARK 921   NORMALIZED FREE ENERGY PREDICTED BY IDOCK:   -4.90 KCAL/MOL
REMARK 922        TOTAL FREE ENERGY PREDICTED BY IDOCK:   -6.39 KCAL/MOL
REMARK 923 INTER-LIGAND FREE ENERGY PREDICTED BY IDOCK:   -5.76 KCAL/MOL
REMARK 924 INTRA-LIGAND FREE ENERGY PREDICTED BY IDOCK:   -0.64 KCAL/MOL
REMARK 927      BINDING AFFINITY PREDICTED BY RF-SCORE:    0.00 PKD
ROOT
HETATM    1  C   UNL     1     -10.718  13.216  65.379  1.00  0.00    -0.294 C  
HETATM    2  C   UNL     1     -12.112  13.458  65.984  1.00  0.00    -0.487 C  
HETATM    3  C   UNL     1      -9.975  14.545  65.433  1.00  0.00    -0.352 C  
HETATM    4  C   UNL     1     -12.125  14.264  67.309  1.00  0.00    -0.355 C  
HETATM    5  N   UNL     1     -11.276  15.502  67.280  1.00  0.00    -0.276 NA 
HETATM    6  C   UNL     1      -9.910  15.111  66.872  1.00  0.00    -0.237 C  
HETATM    7  O   UNL     1     -10.965  15.248  70.887  1.00  0.00    -0.312 OA 
HETATM    8  C   UNL     1     -11.720  13.325  68.459  1.00  0.00    -0.388 C  
HETATM    9  C   UNL     1     -10.830  15.097  69.678  1.00  0.00    -0.286 C  
HETATM   10  C   UNL     1     -10.393  13.798  69.045  1.00  0.00    -0.081 C  
HETATM   11  C   UNL     1     -11.157  16.159  68.633  1.00  0.00    -0.356 C  
HETATM   12  C   UNL     1      -9.317  14.224  68.008  1.00  0.00    -0.200 C  
ENDROOT
BRANCH   1  13
HETATM   13  O   UNL     1      -9.794  12.320  66.028  1.00  0.00    -0.241 OA 
BRANCH  13  14
HETATM   14  C   UNL     1     -10.009  11.002  66.238  1.00  0.00    -0.224 C  
HETATM   15  O   UNL     1     -10.534  10.549  67.248  1.00  0.00    -0.220 OA 
BRANCH  14  16
HETATM   16  C   UNL     1      -9.437  10.174  65.170  1.00  0.00    -0.319 A  
HETATM   17  C   UNL     1      -8.131   8.664  64.048  1.00  0.00    -0.163 A  
HETATM   18  C   UNL     1      -8.368   9.230  65.305  1.00  0.00    -0.151 A  
HETATM   19  N   UNL     1      -8.994   9.271  63.160  1.00  0.00    -0.418 NA 
HETATM   20  C   UNL     1      -7.553   8.837  66.387  1.00  0.00    -0.091 A  
HETATM   21  C   UNL     1      -9.769  10.194  63.813  1.00  0.00    -0.137 A  
HETATM   22  C   UNL     1      -6.578   7.863  66.187  1.00  0.00    -0.050 A  
HETATM   23  C   UNL     1      -6.398   7.278  64.937  1.00  0.00    -0.037 A  
HETATM   24  H   UNL     1      -9.047   9.063  62.163  1.00  0.00     0.000 HD 
HETATM   25  C   UNL     1      -7.165   7.675  63.836  1.00  0.00    -0.081 A  
ENDBRANCH  14  16
ENDBRANCH  13  14
ENDBRANCH   1  13
TORSDOF 3
ENDMDL
MODEL      155
REMARK 921   NORMALIZED FREE ENERGY PREDICTED BY IDOCK:   -4.88 KCAL/MOL
REMARK 922        TOTAL FREE ENERGY PREDICTED BY IDOCK:   -6.36 KCAL/MOL
REMARK 923 INTER-LIGAND FREE ENERGY PREDICTED BY IDOCK:   -5.69 KCAL/MOL
REMARK 924 INTRA-LIGAND FREE ENERGY PREDICTED BY IDOCK:   -0.67 KCAL/MOL
REMARK 927      BINDING AFFINITY PREDICTED BY RF-SCORE:    0.00 PKD
ROOT
HETATM    1  C   UNL     1     -10.569   9.081  69.260  1.00  0.00    -0.213 C  
HETATM    2  C   UNL     1      -9.870   8.210  68.201  1.00  0.00    -0.194 C  
HETATM    3  C   UNL     1      -9.539   9.365  70.347  1.00  0.00    -0.319 C  
HETATM    4  C   UNL     1      -8.457   8.690  67.780  1.00  0.00    -0.125 C  
HETATM    5  N   UNL     1      -7.562   9.040  68.932  1.00  0.00    -0.082 NA 
HETATM    6  C   UNL     1      -8.266  10.031  69.773  1.00  0.00    -0.178 C  
HETATM    7  O   UNL     1      -5.745  11.262  66.709  1.00  0.00    -0.088 OA 
HETATM    8  C   UNL     1      -8.611   9.867  66.801  1.00  0.00    -0.133 C  
HETATM    9  C   UNL     1      -6.574  10.772  67.469  1.00  0.00    -0.059 C  
HETATM   10  C   UNL     1      -8.040  11.128  67.444  1.00  0.00    -0.132 C  
HETATM   11  C   UNL     1      -6.268   9.681  68.491  1.00  0.00    -0.047 C  
HETATM   12  C   UNL     1      -8.405  11.340  68.939  1.00  0.00    -0.074 C  
ENDROOT
BRANCH   1  13
HETATM   13  O   UNL     1     -11.031  10.403  68.919  1.00  0.00    -0.219 OA 
BRANCH  13  14
HETATM   14  C   UNL     1     -12.127  10.999  69.438  1.00  0.00    -0.318 C  
HETATM   15  O   UNL     1     -13.195  10.426  69.617  1.00  0.00     0.118 OA 
BRANCH  14  16
HETATM   16  C   UNL     1     -11.923  12.436  69.651  1.00  0.00    -0.341 A  
HETATM   17  C   UNL     1     -12.028  14.542  70.545  1.00  0.00    -0.318 A  
HETATM   18  C   UNL     1     -12.463  13.224  70.719  1.00  0.00    -0.403 A  
HETATM   19  N   UNL     1     -11.284  14.575  69.385  1.00  0.00    -0.271 NA 
HETATM   20  C   UNL     1     -13.319  12.933  71.801  1.00  0.00    -0.451 A  
HETATM   21  C   UNL     1     -11.229  13.325  68.825  1.00  0.00    -0.276 A  
HETATM   22  C   UNL     1     -13.662  13.947  72.691  1.00  0.00    -0.582 A  
HETATM   23  C   UNL     1     -13.174  15.240  72.523  1.00  0.00    -0.527 A  
HETATM   24  H   UNL     1     -10.840  15.408  68.999  1.00  0.00     0.000 HD 
HETATM   25  C   UNL     1     -12.354  15.568  71.438  1.00  0.00    -0.461 A  
ENDBRANCH  14  16
ENDBRANCH  13  14
ENDBRANCH   1  13
TORSDOF 3
ENDMDL
MODEL      156
REMARK 921   NORMALIZED FREE ENERGY PREDICTED BY IDOCK:   -4.86 KCAL/MOL
REMARK 922        TOTAL FREE ENERGY PREDICTED BY IDOCK:   -6.35 KCAL/MOL
REMARK 923 INTER-LIGAND FREE ENERGY PREDICTED BY IDOCK:   -5.54 KCAL/MOL
REMARK 924 INTRA-LIGAND FREE ENERGY PREDICTED BY IDOCK:   -0.81 KCAL/MOL
REMARK 927      BINDING AFFINITY PREDICTED BY RF-SCORE:    0.00 PKD
ROOT
HETATM    1  C   UNL     1     -10.597   9.273  67.937  1.00  0.00    -0.231 C  
HETATM    2  C   UNL     1     -10.165   7.862  67.503  1.00  0.00    -0.308 C  
HETATM    3  C   UNL     1      -9.408   9.896  68.660  1.00  0.00    -0.149 C  
HETATM    4  C   UNL     1      -8.764   7.774  66.843  1.00  0.00    -0.132 C  
HETATM    5  N   UNL     1      -7.690   8.510  67.589  1.00  0.00    -0.101 NA 
HETATM    6  C   UNL     1      -8.138   9.906  67.776  1.00  0.00    -0.109 C  
HETATM    7  O   UNL     1      -5.881   8.831  64.459  1.00  0.00    -0.063 OA 
HETATM    8  C   UNL     1      -8.877   8.255  65.386  1.00  0.00    -0.116 C  
HETATM    9  C   UNL     1      -6.666   8.982  65.389  1.00  0.00    -0.072 C  
HETATM   10  C   UNL     1      -8.060   9.535  65.220  1.00  0.00    -0.124 C  
HETATM   11  C   UNL     1      -6.387   8.567  66.830  1.00  0.00    -0.056 C  
HETATM   12  C   UNL     1      -8.200  10.571  66.368  1.00  0.00    -0.140 C  
ENDROOT
BRANCH   1  13
HETATM   13  O   UNL     1     -10.912  10.270  66.945  1.00  0.00    -0.190 OA 
BRANCH  13  14
HETATM   14  C   UNL     1     -11.592  11.414  67.183  1.00  0.00    -0.098 C  
HETATM   15  O   UNL     1     -12.380  11.558  68.110  1.00  0.00    -0.473 OA 
BRANCH  14  16
HETATM   16  C   UNL     1     -11.364  12.417  66.138  1.00  0.00    -0.398 A  
HETATM   17  C   UNL     1     -10.961  14.409  65.083  1.00  0.00    -0.373 A  
HETATM   18  C   UNL     1     -11.117  13.814  66.339  1.00  0.00    -0.309 A  
HETATM   19  N   UNL     1     -11.150  13.423  64.138  1.00  0.00    -0.517 NA 
HETATM   20  C   UNL     1     -11.052  14.632  67.486  1.00  0.00    -0.319 A  
HETATM   21  C   UNL     1     -11.415  12.226  64.755  1.00  0.00    -0.329 A  
HETATM   22  C   UNL     1     -10.781  15.990  67.340  1.00  0.00    -0.306 A  
HETATM   23  C   UNL     1     -10.578  16.548  66.081  1.00  0.00    -0.239 A  
HETATM   24  H   UNL     1     -11.101  13.562  63.130  1.00  0.00     0.000 HD 
HETATM   25  C   UNL     1     -10.675  15.770  64.922  1.00  0.00    -0.385 A  
ENDBRANCH  14  16
ENDBRANCH  13  14
ENDBRANCH   1  13
TORSDOF 3
ENDMDL
MODEL      157
REMARK 921   NORMALIZED FREE ENERGY PREDICTED BY IDOCK:   -4.86 KCAL/MOL
REMARK 922        TOTAL FREE ENERGY PREDICTED BY IDOCK:   -6.34 KCAL/MOL
REMARK 923 INTER-LIGAND FREE ENERGY PREDICTED BY IDOCK:   -5.51 KCAL/MOL
REMARK 924 INTRA-LIGAND FREE ENERGY PREDICTED BY IDOCK:   -0.83 KCAL/MOL
REMARK 927      BINDING AFFINITY PREDICTED BY RF-SCORE:    0.00 PKD
ROOT
HETATM    1  C   UNL     1     -10.668   9.921  68.441  1.00  0.00    -0.232 C  
HETATM    2  C   UNL     1     -11.028   8.445  68.195  1.00  0.00     0.143 C  
HETATM    3  C   UNL     1     -11.019  10.225  69.893  1.00  0.00    -0.358 C  
HETATM    4  C   UNL     1     -10.558   7.459  69.296  1.00  0.00    -0.213 C  
HETATM    5  N   UNL     1     -10.867   7.911  70.693  1.00  0.00    -0.233 NA 
HETATM    6  C   UNL     1     -10.301   9.265  70.871  1.00  0.00    -0.296 C  
HETATM    7  O   UNL     1      -8.078   5.895  71.849  1.00  0.00    -0.110 OA 
HETATM    8  C   UNL     1      -9.056   7.190  69.104  1.00  0.00    -0.137 C  
HETATM    9  C   UNL     1      -8.772   6.790  71.379  1.00  0.00    -0.131 C  
HETATM   10  C   UNL     1      -8.293   7.739  70.307  1.00  0.00    -0.127 C  
HETATM   11  C   UNL     1     -10.233   7.031  71.743  1.00  0.00    -0.192 C  
HETATM   12  C   UNL     1      -8.749   9.137  70.806  1.00  0.00    -0.285 C  
ENDROOT
BRANCH   1  13
HETATM   13  O   UNL     1      -9.296  10.354  68.358  1.00  0.00    -0.141 OA 
BRANCH  13  14
HETATM   14  C   UNL     1      -8.848  11.367  67.583  1.00  0.00    -0.139 C  
HETATM   15  O   UNL     1      -8.293  12.367  68.021  1.00  0.00    -0.152 OA 
BRANCH  14  16
HETATM   16  C   UNL     1      -9.207  11.181  66.173  1.00  0.00    -0.216 A  
HETATM   17  C   UNL     1     -10.245  11.400  64.143  1.00  0.00    -0.324 A  
HETATM   18  C   UNL     1     -10.230  11.883  65.455  1.00  0.00    -0.290 A  
HETATM   19  N   UNL     1      -9.296  10.402  64.065  1.00  0.00    -0.253 NA 
HETATM   20  C   UNL     1     -11.173  12.865  65.824  1.00  0.00    -0.324 A  
HETATM   21  C   UNL     1      -8.680  10.244  65.280  1.00  0.00    -0.172 A  
HETATM   22  C   UNL     1     -12.050  13.362  64.863  1.00  0.00    -0.430 A  
HETATM   23  C   UNL     1     -12.010  12.900  63.551  1.00  0.00    -0.629 A  
HETATM   24  H   UNL     1      -9.084   9.861  63.228  1.00  0.00     0.000 HD 
HETATM   25  C   UNL     1     -11.112  11.899  63.164  1.00  0.00    -0.267 A  
ENDBRANCH  14  16
ENDBRANCH  13  14
ENDBRANCH   1  13
TORSDOF 3
ENDMDL
MODEL      158
REMARK 921   NORMALIZED FREE ENERGY PREDICTED BY IDOCK:   -4.85 KCAL/MOL
REMARK 922        TOTAL FREE ENERGY PREDICTED BY IDOCK:   -6.34 KCAL/MOL
REMARK 923 INTER-LIGAND FREE ENERGY PREDICTED BY IDOCK:   -5.34 KCAL/MOL
REMARK 924 INTRA-LIGAND FREE ENERGY PREDICTED BY IDOCK:   -0.99 KCAL/MOL
REMARK 927      BINDING AFFINITY PREDICTED BY RF-SCORE:    0.00 PKD
ROOT
HETATM    1  C   UNL     1      -9.628   8.617  67.633  1.00  0.00    -0.155 C  
HETATM    2  C   UNL     1      -9.902   9.897  66.825  1.00  0.00    -0.256 C  
HETATM    3  C   UNL     1      -9.275   7.527  66.627  1.00  0.00    -0.201 C  
HETATM    4  C   UNL     1      -8.863  10.215  65.719  1.00  0.00    -0.158 C  
HETATM    5  N   UNL     1      -8.515   9.040  64.852  1.00  0.00    -0.169 NA 
HETATM    6  C   UNL     1      -8.081   7.935  65.733  1.00  0.00    -0.123 C  
HETATM    7  O   UNL     1      -5.316  10.618  64.179  1.00  0.00    -0.156 OA 
HETATM    8  C   UNL     1      -7.614  10.824  66.380  1.00  0.00    -0.141 C  
HETATM    9  C   UNL     1      -6.240   9.997  64.693  1.00  0.00    -0.124 C  
HETATM   10  C   UNL     1      -6.434   9.875  66.184  1.00  0.00    -0.079 C  
HETATM   11  C   UNL     1      -7.368   9.328  63.914  1.00  0.00    -0.102 C  
HETATM   12  C   UNL     1      -6.743   8.369  66.405  1.00  0.00    -0.066 C  
ENDROOT
BRANCH   1  13
HETATM   13  O   UNL     1      -8.517   8.564  68.549  1.00  0.00    -0.129 OA 
BRANCH  13  14
HETATM   14  C   UNL     1      -8.447   9.229  69.724  1.00  0.00    -0.149 C  
HETATM   15  O   UNL     1      -7.595  10.070  69.981  1.00  0.00    -0.154 OA 
BRANCH  14  16
HETATM   16  C   UNL     1      -9.436   8.742  70.691  1.00  0.00    -0.237 A  
HETATM   17  C   UNL     1     -11.326   8.568  71.973  1.00  0.00    -0.355 A  
HETATM   18  C   UNL     1     -10.699   9.347  70.996  1.00  0.00    -0.407 A  
HETATM   19  N   UNL     1     -10.461   7.543  72.293  1.00  0.00    -0.218 NA 
HETATM   20  C   UNL     1     -11.345  10.518  70.548  1.00  0.00    -0.400 A  
HETATM   21  C   UNL     1      -9.314   7.645  71.549  1.00  0.00    -0.136 A  
HETATM   22  C   UNL     1     -12.605  10.834  71.049  1.00  0.00    -0.520 A  
HETATM   23  C   UNL     1     -13.230  10.014  71.983  1.00  0.00    -0.545 A  
HETATM   24  H   UNL     1     -10.647   6.815  72.983  1.00  0.00     0.000 HD 
HETATM   25  C   UNL     1     -12.598   8.866  72.475  1.00  0.00    -0.363 A  
ENDBRANCH  14  16
ENDBRANCH  13  14
ENDBRANCH   1  13
TORSDOF 3
ENDMDL
MODEL      159
REMARK 921   NORMALIZED FREE ENERGY PREDICTED BY IDOCK:   -4.83 KCAL/MOL
REMARK 922        TOTAL FREE ENERGY PREDICTED BY IDOCK:   -6.30 KCAL/MOL
REMARK 923 INTER-LIGAND FREE ENERGY PREDICTED BY IDOCK:   -5.60 KCAL/MOL
REMARK 924 INTRA-LIGAND FREE ENERGY PREDICTED BY IDOCK:   -0.70 KCAL/MOL
REMARK 927      BINDING AFFINITY PREDICTED BY RF-SCORE:    0.00 PKD
ROOT
HETATM    1  C   UNL     1     -10.786   6.790  68.348  1.00  0.00    -0.232 C  
HETATM    2  C   UNL     1     -10.335   5.506  67.631  1.00  0.00    -0.256 C  
HETATM    3  C   UNL     1     -11.334   6.369  69.706  1.00  0.00    -0.494 C  
HETATM    4  C   UNL     1      -9.504   4.523  68.497  1.00  0.00    -0.152 C  
HETATM    5  N   UNL     1     -10.087   4.262  69.855  1.00  0.00    -0.108 NA 
HETATM    6  C   UNL     1     -10.295   5.564  70.522  1.00  0.00    -0.272 C  
HETATM    7  O   UNL     1      -6.743   3.469  71.023  1.00  0.00    -0.030 OA 
HETATM    8  C   UNL     1      -8.062   5.052  68.590  1.00  0.00    -0.085 C  
HETATM    9  C   UNL     1      -7.762   4.053  70.670  1.00  0.00    -0.048 C  
HETATM   10  C   UNL     1      -7.760   5.424  70.040  1.00  0.00    -0.077 C  
HETATM   11  C   UNL     1      -9.165   3.459  70.740  1.00  0.00    -0.132 C  
HETATM   12  C   UNL     1      -8.890   6.186  70.784  1.00  0.00    -0.140 C  
ENDROOT
BRANCH   1  13
HETATM   13  O   UNL     1      -9.818   7.797  68.705  1.00  0.00    -0.161 OA 
BRANCH  13  14
HETATM   14  C   UNL     1      -9.315   8.724  67.859  1.00  0.00    -0.142 C  
HETATM   15  O   UNL     1      -8.201   8.655  67.356  1.00  0.00    -0.105 OA 
BRANCH  14  16
HETATM   16  C   UNL     1     -10.212   9.875  67.709  1.00  0.00    -0.241 A  
HETATM   17  C   UNL     1     -11.394  11.610  66.794  1.00  0.00    -0.286 A  
HETATM   18  C   UNL     1     -10.496  10.580  66.495  1.00  0.00    -0.276 A  
HETATM   19  N   UNL     1     -11.621  11.570  68.153  1.00  0.00    -0.418 NA 
HETATM   20  C   UNL     1     -10.032  10.453  65.169  1.00  0.00    -0.390 A  
HETATM   21  C   UNL     1     -10.903  10.549  68.720  1.00  0.00    -0.231 A  
HETATM   22  C   UNL     1     -10.520  11.315  64.190  1.00  0.00    -0.431 A  
HETATM   23  C   UNL     1     -11.453  12.299  64.505  1.00  0.00    -0.401 A  
HETATM   24  H   UNL     1     -12.233  12.207  68.662  1.00  0.00     0.000 HD 
HETATM   25  C   UNL     1     -11.902  12.475  65.818  1.00  0.00    -0.494 A  
ENDBRANCH  14  16
ENDBRANCH  13  14
ENDBRANCH   1  13
TORSDOF 3
ENDMDL
MODEL      160
REMARK 921   NORMALIZED FREE ENERGY PREDICTED BY IDOCK:   -4.81 KCAL/MOL
REMARK 922        TOTAL FREE ENERGY PREDICTED BY IDOCK:   -6.28 KCAL/MOL
REMARK 923 INTER-LIGAND FREE ENERGY PREDICTED BY IDOCK:   -5.60 KCAL/MOL
REMARK 924 INTRA-LIGAND FREE ENERGY PREDICTED BY IDOCK:   -0.69 KCAL/MOL
REMARK 927      BINDING AFFINITY PREDICTED BY RF-SCORE:    0.00 PKD
ROOT
HETATM    1  C   UNL     1      -9.477  12.363  67.852  1.00  0.00    -0.198 C  
HETATM    2  C   UNL     1     -10.833  13.048  68.095  1.00  0.00    -0.267 C  
HETATM    3  C   UNL     1      -9.752  11.131  66.997  1.00  0.00    -0.210 C  
HETATM    4  C   UNL     1     -11.732  13.198  66.840  1.00  0.00    -0.387 C  
HETATM    5  N   UNL     1     -11.847  11.948  66.018  1.00  0.00    -0.477 NA 
HETATM    6  C   UNL     1     -10.481  11.493  65.682  1.00  0.00    -0.266 C  
HETATM    7  O   UNL     1     -12.555  14.035  63.133  1.00  0.00    -0.733 OA 
HETATM    8  C   UNL     1     -11.212  14.382  66.005  1.00  0.00    -0.333 C  
HETATM    9  C   UNL     1     -11.998  13.420  64.037  1.00  0.00    -0.464 C  
HETATM   10  C   UNL     1     -10.699  13.859  64.665  1.00  0.00    -0.422 C  
HETATM   11  C   UNL     1     -12.566  12.175  64.710  1.00  0.00    -0.087 C  
HETATM   12  C   UNL     1      -9.852  12.559  64.735  1.00  0.00    -0.084 C  
ENDROOT
BRANCH   1  13
HETATM   13  O   UNL     1      -8.451  13.038  67.098  1.00  0.00    -0.191 OA 
BRANCH  13  14
HETATM   14  C   UNL     1      -7.134  13.032  67.403  1.00  0.00    -0.117 C  
HETATM   15  O   UNL     1      -6.421  12.039  67.328  1.00  0.00    -0.121 OA 
BRANCH  14  16
HETATM   16  C   UNL     1      -6.688  14.322  67.943  1.00  0.00    -0.177 A  
HETATM   17  C   UNL     1      -5.882  15.925  69.366  1.00  0.00    -0.127 A  
HETATM   18  C   UNL     1      -6.187  14.564  69.263  1.00  0.00    -0.112 A  
HETATM   19  N   UNL     1      -6.228  16.511  68.166  1.00  0.00    -0.124 NA 
HETATM   20  C   UNL     1      -6.001  13.744  70.396  1.00  0.00    -0.156 A  
HETATM   21  C   UNL     1      -6.733  15.566  67.310  1.00  0.00    -0.093 A  
HETATM   22  C   UNL     1      -5.473  14.298  71.559  1.00  0.00    -0.201 A  
HETATM   23  C   UNL     1      -5.131  15.645  71.618  1.00  0.00    -0.061 A  
HETATM   24  H   UNL     1      -6.123  17.501  67.948  1.00  0.00     0.000 HD 
HETATM   25  C   UNL     1      -5.339  16.492  70.524  1.00  0.00    -0.188 A  
ENDBRANCH  14  16
ENDBRANCH  13  14
ENDBRANCH   1  13
TORSDOF 3
ENDMDL
MODEL      161
REMARK 921   NORMALIZED FREE ENERGY PREDICTED BY IDOCK:   -4.78 KCAL/MOL
REMARK 922        TOTAL FREE ENERGY PREDICTED BY IDOCK:   -6.25 KCAL/MOL
REMARK 923 INTER-LIGAND FREE ENERGY PREDICTED BY IDOCK:   -5.14 KCAL/MOL
REMARK 924 INTRA-LIGAND FREE ENERGY PREDICTED BY IDOCK:   -1.11 KCAL/MOL
REMARK 927      BINDING AFFINITY PREDICTED BY RF-SCORE:    0.00 PKD
ROOT
HETATM    1  C   UNL     1     -11.096  10.114  68.270  1.00  0.00    -0.227 C  
HETATM    2  C   UNL     1     -10.910   8.654  67.821  1.00  0.00    -0.075 C  
HETATM    3  C   UNL     1     -10.959  10.131  69.788  1.00  0.00    -0.325 C  
HETATM    4  C   UNL     1      -9.711   7.913  68.468  1.00  0.00    -0.161 C  
HETATM    5  N   UNL     1      -9.617   8.084  69.956  1.00  0.00    -0.171 NA 
HETATM    6  C   UNL     1      -9.609   9.532  70.250  1.00  0.00    -0.265 C  
HETATM    7  O   UNL     1      -6.050   7.463  69.698  1.00  0.00    -0.029 OA 
HETATM    8  C   UNL     1      -8.419   8.360  67.761  1.00  0.00    -0.131 C  
HETATM    9  C   UNL     1      -7.162   7.980  69.683  1.00  0.00    -0.066 C  
HETATM   10  C   UNL     1      -7.540   9.112  68.759  1.00  0.00    -0.083 C  
HETATM   11  C   UNL     1      -8.342   7.514  70.529  1.00  0.00    -0.131 C  
HETATM   12  C   UNL     1      -8.284  10.120  69.678  1.00  0.00    -0.176 C  
ENDROOT
BRANCH   1  13
HETATM   13  O   UNL     1     -10.149  11.122  67.863  1.00  0.00    -0.170 OA 
BRANCH  13  14
HETATM   14  C   UNL     1     -10.426  12.160  67.043  1.00  0.00    -0.220 C  
HETATM   15  O   UNL     1     -10.667  13.294  67.436  1.00  0.00    -0.254 OA 
BRANCH  14  16
HETATM   16  C   UNL     1     -10.517  11.742  65.639  1.00  0.00    -0.308 A  
HETATM   17  C   UNL     1     -10.002  10.844  63.596  1.00  0.00    -0.359 A  
HETATM   18  C   UNL     1      -9.515  11.040  64.893  1.00  0.00    -0.270 A  
HETATM   19  N   UNL     1     -11.241  11.446  63.532  1.00  0.00    -0.712 NA 
HETATM   20  C   UNL     1      -8.216  10.587  65.202  1.00  0.00    -0.134 A  
HETATM   21  C   UNL     1     -11.555  12.007  64.743  1.00  0.00    -0.281 A  
HETATM   22  C   UNL     1      -7.480   9.914  64.230  1.00  0.00    -0.136 A  
HETATM   23  C   UNL     1      -8.008   9.687  62.963  1.00  0.00    -0.134 A  
HETATM   24  H   UNL     1     -11.837  11.469  62.704  1.00  0.00     0.000 HD 
HETATM   25  C   UNL     1      -9.279  10.158  62.615  1.00  0.00    -0.321 A  
ENDBRANCH  14  16
ENDBRANCH  13  14
ENDBRANCH   1  13
TORSDOF 3
ENDMDL
MODEL      162
REMARK 921   NORMALIZED FREE ENERGY PREDICTED BY IDOCK:   -4.76 KCAL/MOL
REMARK 922        TOTAL FREE ENERGY PREDICTED BY IDOCK:   -6.23 KCAL/MOL
REMARK 923 INTER-LIGAND FREE ENERGY PREDICTED BY IDOCK:   -5.63 KCAL/MOL
REMARK 924 INTRA-LIGAND FREE ENERGY PREDICTED BY IDOCK:   -0.60 KCAL/MOL
REMARK 927      BINDING AFFINITY PREDICTED BY RF-SCORE:    0.00 PKD
ROOT
HETATM    1  C   UNL     1      -8.298   9.694  69.404  1.00  0.00    -0.145 C  
HETATM    2  C   UNL     1      -7.246   9.497  68.298  1.00  0.00    -0.076 C  
HETATM    3  C   UNL     1      -8.893  11.083  69.205  1.00  0.00     0.090 C  
HETATM    4  C   UNL     1      -7.698   9.916  66.875  1.00  0.00    -0.098 C  
HETATM    5  N   UNL     1      -8.365  11.260  66.816  1.00  0.00    -0.151 NA 
HETATM    6  C   UNL     1      -9.481  11.259  67.785  1.00  0.00    -0.170 C  
HETATM    7  O   UNL     1     -10.107  10.149  63.831  1.00  0.00    -0.130 OA 
HETATM    8  C   UNL     1      -8.600   8.809  66.301  1.00  0.00    -0.144 C  
HETATM    9  C   UNL     1      -9.760  10.344  64.991  1.00  0.00    -0.300 C  
HETATM   10  C   UNL     1     -10.010   9.363  66.111  1.00  0.00    -0.351 C  
HETATM   11  C   UNL     1      -8.962  11.556  65.462  1.00  0.00    -0.031 C  
HETATM   12  C   UNL     1     -10.546  10.242  67.274  1.00  0.00    -0.324 C  
ENDROOT
BRANCH   1  13
HETATM   13  O   UNL     1      -9.471   8.858  69.442  1.00  0.00    -0.158 OA 
BRANCH  13  14
HETATM   14  C   UNL     1      -9.583   7.711  70.149  1.00  0.00    -0.168 C  
HETATM   15  O   UNL     1      -8.756   6.809  70.121  1.00  0.00    -0.139 OA 
BRANCH  14  16
HETATM   16  C   UNL     1     -10.864   7.626  70.860  1.00  0.00    -0.250 A  
HETATM   17  C   UNL     1     -12.829   8.205  71.885  1.00  0.00    -0.335 A  
HETATM   18  C   UNL     1     -11.715   8.722  71.216  1.00  0.00    -0.356 A  
HETATM   19  N   UNL     1     -12.649   6.841  71.979  1.00  0.00    -0.522 NA 
HETATM   20  C   UNL     1     -11.611  10.120  71.058  1.00  0.00    -0.462 A  
HETATM   21  C   UNL     1     -11.465   6.480  71.388  1.00  0.00    -0.309 A  
HETATM   22  C   UNL     1     -12.640  10.936  71.522  1.00  0.00    -0.480 A  
HETATM   23  C   UNL     1     -13.762  10.391  72.138  1.00  0.00    -0.077 A  
HETATM   24  H   UNL     1     -13.301   6.195  72.423  1.00  0.00     0.000 HD 
HETATM   25  C   UNL     1     -13.876   9.011  72.343  1.00  0.00    -0.540 A  
ENDBRANCH  14  16
ENDBRANCH  13  14
ENDBRANCH   1  13
TORSDOF 3
ENDMDL
MODEL      163
REMARK 921   NORMALIZED FREE ENERGY PREDICTED BY IDOCK:   -4.76 KCAL/MOL
REMARK 922        TOTAL FREE ENERGY PREDICTED BY IDOCK:   -6.23 KCAL/MOL
REMARK 923 INTER-LIGAND FREE ENERGY PREDICTED BY IDOCK:   -5.25 KCAL/MOL
REMARK 924 INTRA-LIGAND FREE ENERGY PREDICTED BY IDOCK:   -0.98 KCAL/MOL
REMARK 927      BINDING AFFINITY PREDICTED BY RF-SCORE:    0.00 PKD
ROOT
HETATM    1  C   UNL     1     -10.370   8.715  66.786  1.00  0.00    -0.266 C  
HETATM    2  C   UNL     1     -10.776  10.068  67.396  1.00  0.00    -0.336 C  
HETATM    3  C   UNL     1      -9.085   8.951  66.002  1.00  0.00    -0.265 C  
HETATM    4  C   UNL     1      -9.625  10.858  68.074  1.00  0.00    -0.162 C  
HETATM    5  N   UNL     1      -8.372  10.938  67.251  1.00  0.00    -0.121 NA 
HETATM    6  C   UNL     1      -7.974   9.562  66.888  1.00  0.00    -0.109 C  
HETATM    7  O   UNL     1      -6.501  11.356  70.333  1.00  0.00    -0.253 OA 
HETATM    8  C   UNL     1      -9.358  10.242  69.458  1.00  0.00    -0.200 C  
HETATM    9  C   UNL     1      -7.124  10.891  69.385  1.00  0.00    -0.131 C  
HETATM   10  C   UNL     1      -7.957   9.635  69.472  1.00  0.00    -0.125 C  
HETATM   11  C   UNL     1      -7.216  11.543  68.009  1.00  0.00    -0.085 C  
HETATM   12  C   UNL     1      -7.565   8.831  68.202  1.00  0.00    -0.097 C  
ENDROOT
BRANCH   1  13
HETATM   13  O   UNL     1     -10.011   7.614  67.643  1.00  0.00    -0.154 OA 
BRANCH  13  14
HETATM   14  C   UNL     1     -10.483   6.353  67.526  1.00  0.00    -0.233 C  
HETATM   15  O   UNL     1     -11.132   5.954  66.566  1.00  0.00    -0.205 OA 
BRANCH  14  16
HETATM   16  C   UNL     1     -10.228   5.555  68.730  1.00  0.00    -0.270 A  
HETATM   17  C   UNL     1     -10.247   4.818  70.899  1.00  0.00    -0.177 A  
HETATM   18  C   UNL     1     -10.734   5.814  70.045  1.00  0.00    -0.400 A  
HETATM   19  N   UNL     1      -9.431   4.000  70.145  1.00  0.00    -0.172 NA 
HETATM   20  C   UNL     1     -11.538   6.836  70.591  1.00  0.00    -0.422 A  
HETATM   21  C   UNL     1      -9.392   4.441  68.848  1.00  0.00    -0.153 A  
HETATM   22  C   UNL     1     -11.867   6.796  71.944  1.00  0.00    -0.366 A  
HETATM   23  C   UNL     1     -11.411   5.765  72.760  1.00  0.00    -0.328 A  
HETATM   24  H   UNL     1      -8.931   3.187  70.502  1.00  0.00     0.000 HD 
HETATM   25  C   UNL     1     -10.580   4.758  72.256  1.00  0.00    -0.225 A  
ENDBRANCH  14  16
ENDBRANCH  13  14
ENDBRANCH   1  13
TORSDOF 3
ENDMDL
MODEL      164
REMARK 921   NORMALIZED FREE ENERGY PREDICTED BY IDOCK:   -4.75 KCAL/MOL
REMARK 922        TOTAL FREE ENERGY PREDICTED BY IDOCK:   -6.21 KCAL/MOL
REMARK 923 INTER-LIGAND FREE ENERGY PREDICTED BY IDOCK:   -5.64 KCAL/MOL
REMARK 924 INTRA-LIGAND FREE ENERGY PREDICTED BY IDOCK:   -0.58 KCAL/MOL
REMARK 927      BINDING AFFINITY PREDICTED BY RF-SCORE:    0.00 PKD
ROOT
HETATM    1  C   UNL     1      -9.719  12.635  65.611  1.00  0.00    -0.139 C  
HETATM    2  C   UNL     1      -8.688  11.625  66.144  1.00  0.00    -0.094 C  
HETATM    3  C   UNL     1     -10.983  11.847  65.286  1.00  0.00    -0.354 C  
HETATM    4  C   UNL     1      -9.230  10.622  67.196  1.00  0.00    -0.147 C  
HETATM    5  N   UNL     1     -10.534   9.982  66.815  1.00  0.00    -0.221 NA 
HETATM    6  C   UNL     1     -11.500  11.058  66.512  1.00  0.00     0.309 C  
HETATM    7  O   UNL     1     -11.205   9.492  70.348  1.00  0.00    -0.244 OA 
HETATM    8  C   UNL     1      -9.324  11.339  68.554  1.00  0.00    -0.182 C  
HETATM    9  C   UNL     1     -11.083   9.971  69.226  1.00  0.00    -0.206 C  
HETATM   10  C   UNL     1     -10.791  11.429  68.970  1.00  0.00    -0.265 C  
HETATM   11  C   UNL     1     -11.128   9.162  67.933  1.00  0.00     0.185 C  
HETATM   12  C   UNL     1     -11.782  11.823  67.841  1.00  0.00    -0.347 C  
ENDROOT
BRANCH   1  13
HETATM   13  O   UNL     1     -10.219  13.680  66.469  1.00  0.00    -0.272 OA 
BRANCH  13  14
HETATM   14  C   UNL     1     -10.732  14.855  66.042  1.00  0.00    -0.323 C  
HETATM   15  O   UNL     1     -11.060  15.075  64.883  1.00  0.00    -0.387 OA 
BRANCH  14  16
HETATM   16  C   UNL     1     -10.740  15.869  67.102  1.00  0.00    -0.301 A  
HETATM   17  C   UNL     1     -10.394  17.818  68.255  1.00  0.00    -0.385 A  
HETATM   18  C   UNL     1     -10.170  17.182  67.029  1.00  0.00    -0.313 A  
HETATM   19  N   UNL     1     -11.039  16.913  69.071  1.00  0.00    -0.259 NA 
HETATM   20  C   UNL     1      -9.445  17.870  66.034  1.00  0.00    -0.070 A  
HETATM   21  C   UNL     1     -11.235  15.732  68.402  1.00  0.00    -0.362 A  
HETATM   22  C   UNL     1      -9.024  19.174  66.277  1.00  0.00    -0.320 A  
HETATM   23  C   UNL     1      -9.305  19.803  67.487  1.00  0.00    -0.443 A  
HETATM   24  H   UNL     1     -11.328  17.096  70.031  1.00  0.00     0.000 HD 
HETATM   25  C   UNL     1      -9.988  19.133  68.508  1.00  0.00    -0.496 A  
ENDBRANCH  14  16
ENDBRANCH  13  14
ENDBRANCH   1  13
TORSDOF 3
ENDMDL
MODEL      165
REMARK 921   NORMALIZED FREE ENERGY PREDICTED BY IDOCK:   -4.75 KCAL/MOL
REMARK 922        TOTAL FREE ENERGY PREDICTED BY IDOCK:   -6.21 KCAL/MOL
REMARK 923 INTER-LIGAND FREE ENERGY PREDICTED BY IDOCK:   -4.79 KCAL/MOL
REMARK 924 INTRA-LIGAND FREE ENERGY PREDICTED BY IDOCK:   -1.42 KCAL/MOL
REMARK 927      BINDING AFFINITY PREDICTED BY RF-SCORE:    0.00 PKD
ROOT
HETATM    1  C   UNL     1     -10.710   9.185  71.196  1.00  0.00    -0.310 C  
HETATM    2  C   UNL     1      -9.263   9.167  71.718  1.00  0.00    -0.004 C  
HETATM    3  C   UNL     1     -10.790  10.293  70.153  1.00  0.00    -0.362 C  
HETATM    4  C   UNL     1      -8.166   9.239  70.624  1.00  0.00    -0.190 C  
HETATM    5  N   UNL     1      -8.402  10.301  69.590  1.00  0.00    -0.156 NA 
HETATM    6  C   UNL     1      -9.751  10.096  69.023  1.00  0.00    -0.206 C  
HETATM    7  O   UNL     1      -6.424   8.335  67.268  1.00  0.00    -0.055 OA 
HETATM    8  C   UNL     1      -8.019   7.847  69.985  1.00  0.00    -0.111 C  
HETATM    9  C   UNL     1      -7.330   8.777  67.966  1.00  0.00    -0.088 C  
HETATM   10  C   UNL     1      -8.445   7.923  68.520  1.00  0.00    -0.128 C  
HETATM   11  C   UNL     1      -7.427  10.223  68.441  1.00  0.00    -0.090 C  
HETATM   12  C   UNL     1      -9.730   8.749  68.240  1.00  0.00    -0.175 C  
ENDROOT
BRANCH   1  13
HETATM   13  O   UNL     1     -11.235   8.050  70.481  1.00  0.00    -0.265 OA 
BRANCH  13  14
HETATM   14  C   UNL     1     -11.971   7.058  71.032  1.00  0.00    -0.361 C  
HETATM   15  O   UNL     1     -13.178   7.132  71.226  1.00  0.00    -0.377 OA 
BRANCH  14  16
HETATM   16  C   UNL     1     -11.137   5.935  71.474  1.00  0.00    -0.314 A  
HETATM   17  C   UNL     1      -9.732   4.127  71.456  1.00  0.00    -0.173 A  
HETATM   18  C   UNL     1     -10.374   5.060  70.635  1.00  0.00    -0.278 A  
HETATM   19  N   UNL     1     -10.123   4.389  72.752  1.00  0.00    -0.161 NA 
HETATM   20  C   UNL     1     -10.205   4.959  69.238  1.00  0.00    -0.205 A  
HETATM   21  C   UNL     1     -10.982   5.457  72.778  1.00  0.00    -0.277 A  
HETATM   22  C   UNL     1      -9.366   3.974  68.722  1.00  0.00    -0.227 A  
HETATM   23  C   UNL     1      -8.699   3.090  69.565  1.00  0.00    -0.131 A  
HETATM   24  H   UNL     1      -9.817   3.864  73.571  1.00  0.00     0.000 HD 
HETATM   25  C   UNL     1      -8.877   3.141  70.952  1.00  0.00    -0.142 A  
ENDBRANCH  14  16
ENDBRANCH  13  14
ENDBRANCH   1  13
TORSDOF 3
ENDMDL
MODEL      166
REMARK 921   NORMALIZED FREE ENERGY PREDICTED BY IDOCK:   -4.75 KCAL/MOL
REMARK 922        TOTAL FREE ENERGY PREDICTED BY IDOCK:   -6.21 KCAL/MOL
REMARK 923 INTER-LIGAND FREE ENERGY PREDICTED BY IDOCK:   -5.57 KCAL/MOL
REMARK 924 INTRA-LIGAND FREE ENERGY PREDICTED BY IDOCK:   -0.64 KCAL/MOL
REMARK 927      BINDING AFFINITY PREDICTED BY RF-SCORE:    0.00 PKD
ROOT
HETATM    1  C   UNL     1     -10.629  10.349  65.998  1.00  0.00    -0.065 C  
HETATM    2  C   UNL     1      -9.528  10.140  64.944  1.00  0.00    -0.349 C  
HETATM    3  C   UNL     1     -10.764   9.037  66.763  1.00  0.00    -0.103 C  
HETATM    4  C   UNL     1      -8.241   9.446  65.462  1.00  0.00    -0.126 C  
HETATM    5  N   UNL     1      -8.499   8.221  66.291  1.00  0.00    -0.122 NA 
HETATM    6  C   UNL     1      -9.419   8.594  67.386  1.00  0.00    -0.150 C  
HETATM    7  O   UNL     1      -5.303   8.776  67.919  1.00  0.00    -0.034 OA 
HETATM    8  C   UNL     1      -7.400  10.482  66.227  1.00  0.00    -0.133 C  
HETATM    9  C   UNL     1      -6.482   8.829  67.584  1.00  0.00    -0.061 C  
HETATM   10  C   UNL     1      -7.324  10.076  67.697  1.00  0.00    -0.089 C  
HETATM   11  C   UNL     1      -7.247   7.680  66.936  1.00  0.00    -0.088 C  
HETATM   12  C   UNL     1      -8.656   9.579  68.323  1.00  0.00    -0.120 C  
ENDROOT
BRANCH   1  13
HETATM   13  O   UNL     1     -10.443  11.307  67.059  1.00  0.00    -0.214 OA 
BRANCH  13  14
HETATM   14  C   UNL     1     -10.859  12.592  67.025  1.00  0.00    -0.253 C  
HETATM   15  O   UNL     1     -10.685  13.340  66.071  1.00  0.00    -0.273 OA 
BRANCH  14  16
HETATM   16  C   UNL     1     -11.436  13.017  68.305  1.00  0.00    -0.347 A  
HETATM   17  C   UNL     1     -12.384  12.970  70.389  1.00  0.00    -0.277 A  
HETATM   18  C   UNL     1     -11.910  12.161  69.351  1.00  0.00    -0.370 A  
HETATM   19  N   UNL     1     -12.250  14.279  69.978  1.00  0.00    -0.342 NA 
HETATM   20  C   UNL     1     -12.011  10.761  69.487  1.00  0.00    -0.364 A  
HETATM   21  C   UNL     1     -11.703  14.324  68.721  1.00  0.00    -0.343 A  
HETATM   22  C   UNL     1     -12.526  10.226  70.665  1.00  0.00    -0.407 A  
HETATM   23  C   UNL     1     -12.943  11.053  71.703  1.00  0.00    -0.561 A  
HETATM   24  H   UNL     1     -12.518  15.095  70.528  1.00  0.00     0.000 HD 
HETATM   25  C   UNL     1     -12.891  12.446  71.583  1.00  0.00    -0.375 A  
ENDBRANCH  14  16
ENDBRANCH  13  14
ENDBRANCH   1  13
TORSDOF 3
ENDMDL
MODEL      167
REMARK 921   NORMALIZED FREE ENERGY PREDICTED BY IDOCK:   -4.73 KCAL/MOL
REMARK 922        TOTAL FREE ENERGY PREDICTED BY IDOCK:   -6.19 KCAL/MOL
REMARK 923 INTER-LIGAND FREE ENERGY PREDICTED BY IDOCK:   -5.45 KCAL/MOL
REMARK 924 INTRA-LIGAND FREE ENERGY PREDICTED BY IDOCK:   -0.74 KCAL/MOL
REMARK 927      BINDING AFFINITY PREDICTED BY RF-SCORE:    0.00 PKD
ROOT
HETATM    1  C   UNL     1     -10.195   9.525  69.487  1.00  0.00    -0.213 C  
HETATM    2  C   UNL     1      -8.961  10.434  69.346  1.00  0.00    -0.168 C  
HETATM    3  C   UNL     1     -11.283  10.116  68.598  1.00  0.00    -0.223 C  
HETATM    4  C   UNL     1      -8.598  10.833  67.891  1.00  0.00    -0.125 C  
HETATM    5  N   UNL     1      -9.768  11.304  67.077  1.00  0.00    -0.185 NA 
HETATM    6  C   UNL     1     -10.813  10.259  67.131  1.00  0.00    -0.212 C  
HETATM    7  O   UNL     1      -7.977  10.265  64.096  1.00  0.00    -0.157 OA 
HETATM    8  C   UNL     1      -7.880   9.648  67.223  1.00  0.00    -0.095 C  
HETATM    9  C   UNL     1      -8.650  10.286  65.121  1.00  0.00    -0.171 C  
HETATM   10  C   UNL     1      -8.744   9.123  66.078  1.00  0.00    -0.176 C  
HETATM   11  C   UNL     1      -9.422  11.502  65.621  1.00  0.00    -0.222 C  
HETATM   12  C   UNL     1     -10.262   9.006  66.386  1.00  0.00    -0.297 C  
ENDROOT
BRANCH   1  13
HETATM   13  O   UNL     1     -10.139   8.157  69.039  1.00  0.00    -0.194 OA 
BRANCH  13  14
HETATM   14  C   UNL     1     -10.880   7.145  69.543  1.00  0.00    -0.225 C  
HETATM   15  O   UNL     1     -11.450   6.308  68.854  1.00  0.00    -0.331 OA 
BRANCH  14  16
HETATM   16  C   UNL     1     -11.016   7.236  71.001  1.00  0.00    -0.272 A  
HETATM   17  C   UNL     1     -10.599   7.033  73.244  1.00  0.00    -0.344 A  
HETATM   18  C   UNL     1     -10.085   6.746  71.975  1.00  0.00    -0.198 A  
HETATM   19  N   UNL     1     -11.825   7.636  73.060  1.00  0.00    -0.598 NA 
HETATM   20  C   UNL     1      -8.864   6.047  71.883  1.00  0.00    -0.138 A  
HETATM   21  C   UNL     1     -12.099   7.746  71.721  1.00  0.00    -0.298 A  
HETATM   22  C   UNL     1      -8.181   5.712  73.050  1.00  0.00    -0.118 A  
HETATM   23  C   UNL     1      -8.690   6.055  74.299  1.00  0.00    -0.127 A  
HETATM   24  H   UNL     1     -12.438   7.955  73.810  1.00  0.00     0.000 HD 
HETATM   25  C   UNL     1      -9.917   6.714  74.424  1.00  0.00    -0.359 A  
ENDBRANCH  14  16
ENDBRANCH  13  14
ENDBRANCH   1  13
TORSDOF 3
ENDMDL
MODEL      168
REMARK 921   NORMALIZED FREE ENERGY PREDICTED BY IDOCK:   -4.72 KCAL/MOL
REMARK 922        TOTAL FREE ENERGY PREDICTED BY IDOCK:   -6.17 KCAL/MOL
REMARK 923 INTER-LIGAND FREE ENERGY PREDICTED BY IDOCK:   -5.46 KCAL/MOL
REMARK 924 INTRA-LIGAND FREE ENERGY PREDICTED BY IDOCK:   -0.71 KCAL/MOL
REMARK 927      BINDING AFFINITY PREDICTED BY RF-SCORE:    0.00 PKD
ROOT
HETATM    1  C   UNL     1      -7.350  15.796  68.865  1.00  0.00    -0.162 C  
HETATM    2  C   UNL     1      -6.330  16.889  69.230  1.00  0.00    -0.223 C  
HETATM    3  C   UNL     1      -8.699  16.487  68.703  1.00  0.00    -0.244 C  
HETATM    4  C   UNL     1      -6.407  18.177  68.370  1.00  0.00    -0.197 C  
HETATM    5  N   UNL     1      -7.799  18.711  68.193  1.00  0.00    -0.278 NA 
HETATM    6  C   UNL     1      -8.641  17.623  67.654  1.00  0.00    -0.224 C  
HETATM    7  O   UNL     1      -6.698  20.260  65.100  1.00  0.00    -0.296 OA 
HETATM    8  C   UNL     1      -5.726  17.905  67.017  1.00  0.00    -0.163 C  
HETATM    9  C   UNL     1      -7.085  19.463  65.948  1.00  0.00    -0.286 C  
HETATM   10  C   UNL     1      -6.772  17.987  65.907  1.00  0.00    -0.323 C  
HETATM   11  C   UNL     1      -7.865  19.847  67.201  1.00  0.00    -0.290 C  
HETATM   12  C   UNL     1      -8.131  17.302  66.217  1.00  0.00    -0.315 C  
ENDROOT
BRANCH   1  13
HETATM   13  O   UNL     1      -7.223  15.073  67.625  1.00  0.00    -0.151 OA 
BRANCH  13  14
HETATM   14  C   UNL     1      -7.128  13.729  67.517  1.00  0.00    -0.157 C  
HETATM   15  O   UNL     1      -6.065  13.122  67.462  1.00  0.00    -0.194 OA 
BRANCH  14  16
HETATM   16  C   UNL     1      -8.442  13.096  67.357  1.00  0.00    -0.201 A  
HETATM   17  C   UNL     1     -10.194  11.635  67.556  1.00  0.00    -0.195 A  
HETATM   18  C   UNL     1      -8.885  11.885  67.981  1.00  0.00    -0.177 A  
HETATM   19  N   UNL     1     -10.529  12.631  66.664  1.00  0.00    -0.243 NA 
HETATM   20  C   UNL     1      -8.267  10.957  68.846  1.00  0.00    -0.141 A  
HETATM   21  C   UNL     1      -9.482  13.504  66.517  1.00  0.00    -0.256 A  
HETATM   22  C   UNL     1      -8.991   9.854  69.291  1.00  0.00    -0.184 A  
HETATM   23  C   UNL     1     -10.309   9.656  68.893  1.00  0.00    -0.220 A  
HETATM   24  H   UNL     1     -11.426  12.708  66.184  1.00  0.00     0.000 HD 
HETATM   25  C   UNL     1     -10.937  10.538  68.006  1.00  0.00    -0.345 A  
ENDBRANCH  14  16
ENDBRANCH  13  14
ENDBRANCH   1  13
TORSDOF 3
ENDMDL
MODEL      169
REMARK 921   NORMALIZED FREE ENERGY PREDICTED BY IDOCK:   -4.71 KCAL/MOL
REMARK 922        TOTAL FREE ENERGY PREDICTED BY IDOCK:   -6.17 KCAL/MOL
REMARK 923 INTER-LIGAND FREE ENERGY PREDICTED BY IDOCK:   -4.68 KCAL/MOL
REMARK 924 INTRA-LIGAND FREE ENERGY PREDICTED BY IDOCK:   -1.49 KCAL/MOL
REMARK 927      BINDING AFFINITY PREDICTED BY RF-SCORE:    0.00 PKD
ROOT
HETATM    1  C   UNL     1      -9.357   8.493  68.809  1.00  0.00    -0.143 C  
HETATM    2  C   UNL     1     -10.022   7.919  67.546  1.00  0.00    -0.250 C  
HETATM    3  C   UNL     1      -7.875   8.145  68.724  1.00  0.00    -0.113 C  
HETATM    4  C   UNL     1      -9.268   8.195  66.219  1.00  0.00    -0.191 C  
HETATM    5  N   UNL     1      -7.795   7.913  66.284  1.00  0.00    -0.091 NA 
HETATM    6  C   UNL     1      -7.233   8.674  67.420  1.00  0.00    -0.080 C  
HETATM    7  O   UNL     1      -7.324  10.319  63.606  1.00  0.00    -0.142 OA 
HETATM    8  C   UNL     1      -9.551   9.644  65.786  1.00  0.00    -0.329 C  
HETATM    9  C   UNL     1      -7.499   9.787  64.697  1.00  0.00    -0.134 C  
HETATM   10  C   UNL     1      -8.250  10.441  65.831  1.00  0.00    -0.150 C  
HETATM   11  C   UNL     1      -7.060   8.368  65.046  1.00  0.00    -0.079 C  
HETATM   12  C   UNL     1      -7.354  10.189  67.075  1.00  0.00    -0.091 C  
ENDROOT
BRANCH   1  13
HETATM   13  O   UNL     1      -9.327   9.918  69.027  1.00  0.00    -0.157 OA 
BRANCH  13  14
HETATM   14  C   UNL     1     -10.383  10.664  69.419  1.00  0.00    -0.208 C  
HETATM   15  O   UNL     1     -10.987  10.493  70.471  1.00  0.00    -0.271 OA 
BRANCH  14  16
HETATM   16  C   UNL     1     -10.792  11.623  68.386  1.00  0.00    -0.257 A  
HETATM   17  C   UNL     1     -10.784  13.390  66.929  1.00  0.00    -0.273 A  
HETATM   18  C   UNL     1     -10.026  12.733  67.904  1.00  0.00    -0.229 A  
HETATM   19  N   UNL     1     -11.995  12.736  66.846  1.00  0.00    -0.461 NA 
HETATM   20  C   UNL     1      -8.762  13.259  68.243  1.00  0.00    -0.168 A  
HETATM   21  C   UNL     1     -12.024  11.686  67.729  1.00  0.00    -0.047 A  
HETATM   22  C   UNL     1      -8.284  14.377  67.565  1.00  0.00    -0.201 A  
HETATM   23  C   UNL     1      -9.038  14.981  66.563  1.00  0.00    -0.319 A  
HETATM   24  H   UNL     1     -12.757  12.994  66.220  1.00  0.00     0.000 HD 
HETATM   25  C   UNL     1     -10.311  14.506  66.231  1.00  0.00    -0.300 A  
ENDBRANCH  14  16
ENDBRANCH  13  14
ENDBRANCH   1  13
TORSDOF 3
ENDMDL
MODEL      170
REMARK 921   NORMALIZED FREE ENERGY PREDICTED BY IDOCK:   -4.69 KCAL/MOL
REMARK 922        TOTAL FREE ENERGY PREDICTED BY IDOCK:   -6.14 KCAL/MOL
REMARK 923 INTER-LIGAND FREE ENERGY PREDICTED BY IDOCK:   -5.26 KCAL/MOL
REMARK 924 INTRA-LIGAND FREE ENERGY PREDICTED BY IDOCK:   -0.88 KCAL/MOL
REMARK 927      BINDING AFFINITY PREDICTED BY RF-SCORE:    0.00 PKD
ROOT
HETATM    1  C   UNL     1      -9.723  10.119  67.733  1.00  0.00    -0.153 C  
HETATM    2  C   UNL     1     -10.922  10.471  66.835  1.00  0.00    -0.199 C  
HETATM    3  C   UNL     1      -8.524  10.889  67.192  1.00  0.00    -0.128 C  
HETATM    4  C   UNL     1     -11.089  11.980  66.519  1.00  0.00    -0.314 C  
HETATM    5  N   UNL     1      -9.820  12.659  66.094  1.00  0.00    -0.258 NA 
HETATM    6  C   UNL     1      -8.798  12.411  67.132  1.00  0.00    -0.197 C  
HETATM    7  O   UNL     1     -11.213  15.786  67.301  1.00  0.00    -0.263 OA 
HETATM    8  C   UNL     1     -11.721  12.669  67.741  1.00  0.00    -0.412 C  
HETATM    9  C   UNL     1     -10.679  14.685  67.221  1.00  0.00    -0.290 C  
HETATM   10  C   UNL     1     -10.718  13.660  68.328  1.00  0.00    -0.266 C  
HETATM   11  C   UNL     1      -9.971  14.156  65.978  1.00  0.00    -0.322 C  
HETATM   12  C   UNL     1      -9.254  13.150  68.426  1.00  0.00    -0.141 C  
ENDROOT
BRANCH   1  13
HETATM   13  O   UNL     1      -9.728  10.493  69.125  1.00  0.00    -0.203 OA 
BRANCH  13  14
HETATM   14  C   UNL     1     -10.624  10.063  70.041  1.00  0.00    -0.293 C  
HETATM   15  O   UNL     1     -11.452  10.789  70.578  1.00  0.00    -0.313 OA 
BRANCH  14  16
HETATM   16  C   UNL     1     -10.413   8.657  70.400  1.00  0.00    -0.233 A  
HETATM   17  C   UNL     1      -9.467   6.733  71.205  1.00  0.00    -0.165 A  
HETATM   18  C   UNL     1      -9.265   8.109  71.059  1.00  0.00    -0.178 A  
HETATM   19  N   UNL     1     -10.677   6.434  70.615  1.00  0.00    -0.242 NA 
HETATM   20  C   UNL     1      -8.050   8.665  71.511  1.00  0.00    -0.188 A  
HETATM   21  C   UNL     1     -11.247   7.574  70.108  1.00  0.00    -0.196 A  
HETATM   22  C   UNL     1      -7.115   7.842  72.134  1.00  0.00    -0.080 A  
HETATM   23  C   UNL     1      -7.363   6.485  72.313  1.00  0.00    -0.090 A  
HETATM   24  H   UNL     1     -11.088   5.502  70.563  1.00  0.00     0.000 HD 
HETATM   25  C   UNL     1      -8.542   5.898  71.841  1.00  0.00    -0.137 A  
ENDBRANCH  14  16
ENDBRANCH  13  14
ENDBRANCH   1  13
TORSDOF 3
ENDMDL
MODEL      171
REMARK 921   NORMALIZED FREE ENERGY PREDICTED BY IDOCK:   -4.69 KCAL/MOL
REMARK 922        TOTAL FREE ENERGY PREDICTED BY IDOCK:   -6.14 KCAL/MOL
REMARK 923 INTER-LIGAND FREE ENERGY PREDICTED BY IDOCK:   -5.53 KCAL/MOL
REMARK 924 INTRA-LIGAND FREE ENERGY PREDICTED BY IDOCK:   -0.61 KCAL/MOL
REMARK 927      BINDING AFFINITY PREDICTED BY RF-SCORE:    0.00 PKD
ROOT
HETATM    1  C   UNL     1     -10.919   6.444  67.886  1.00  0.00    -0.325 C  
HETATM    2  C   UNL     1     -10.079   5.190  67.586  1.00  0.00    -0.204 C  
HETATM    3  C   UNL     1     -11.388   6.326  69.332  1.00  0.00    -0.448 C  
HETATM    4  C   UNL     1      -9.042   4.813  68.676  1.00  0.00    -0.113 C  
HETATM    5  N   UNL     1      -9.591   4.830  70.073  1.00  0.00    -0.170 NA 
HETATM    6  C   UNL     1     -10.201   6.155  70.309  1.00  0.00    -0.199 C  
HETATM    7  O   UNL     1      -6.223   5.451  71.276  1.00  0.00    -0.031 OA 
HETATM    8  C   UNL     1      -7.823   5.741  68.533  1.00  0.00    -0.097 C  
HETATM    9  C   UNL     1      -7.349   5.572  70.806  1.00  0.00    -0.083 C  
HETATM   10  C   UNL     1      -7.714   6.617  69.779  1.00  0.00    -0.113 C  
HETATM   11  C   UNL     1      -8.520   4.648  71.121  1.00  0.00    -0.107 C  
HETATM   12  C   UNL     1      -9.053   7.208  70.299  1.00  0.00    -0.156 C  
ENDROOT
BRANCH   1  13
HETATM   13  O   UNL     1     -10.304   7.747  67.866  1.00  0.00    -0.202 OA 
BRANCH  13  14
HETATM   14  C   UNL     1      -9.852   8.375  66.758  1.00  0.00    -0.259 C  
HETATM   15  O   UNL     1      -9.050   7.882  65.975  1.00  0.00    -0.174 OA 
BRANCH  14  16
HETATM   16  C   UNL     1     -10.344   9.754  66.667  1.00  0.00    -0.276 A  
HETATM   17  C   UNL     1     -11.212  11.798  67.227  1.00  0.00    -0.305 A  
HETATM   18  C   UNL     1     -10.846  10.551  67.746  1.00  0.00    -0.347 A  
HETATM   19  N   UNL     1     -10.987  11.754  65.868  1.00  0.00    -0.302 NA 
HETATM   20  C   UNL     1     -11.056  10.304  69.119  1.00  0.00    -0.283 A  
HETATM   21  C   UNL     1     -10.486  10.528  65.512  1.00  0.00    -0.150 A  
HETATM   22  C   UNL     1     -11.568  11.318  69.924  1.00  0.00    -0.413 A  
HETATM   23  C   UNL     1     -11.876  12.566  69.391  1.00  0.00    -0.368 A  
HETATM   24  H   UNL     1     -11.167  12.522  65.221  1.00  0.00     0.000 HD 
HETATM   25  C   UNL     1     -11.715  12.830  68.027  1.00  0.00    -0.405 A  
ENDBRANCH  14  16
ENDBRANCH  13  14
ENDBRANCH   1  13
TORSDOF 3
ENDMDL
MODEL      172
REMARK 921   NORMALIZED FREE ENERGY PREDICTED BY IDOCK:   -4.67 KCAL/MOL
REMARK 922        TOTAL FREE ENERGY PREDICTED BY IDOCK:   -6.12 KCAL/MOL
REMARK 923 INTER-LIGAND FREE ENERGY PREDICTED BY IDOCK:   -5.03 KCAL/MOL
REMARK 924 INTRA-LIGAND FREE ENERGY PREDICTED BY IDOCK:   -1.09 KCAL/MOL
REMARK 927      BINDING AFFINITY PREDICTED BY RF-SCORE:    0.00 PKD
ROOT
HETATM    1  C   UNL     1     -10.233   5.945  69.734  1.00  0.00    -0.218 C  
HETATM    2  C   UNL     1     -11.281   6.221  68.641  1.00  0.00    -0.328 C  
HETATM    3  C   UNL     1      -9.502   4.669  69.333  1.00  0.00    -0.239 C  
HETATM    4  C   UNL     1     -10.766   6.085  67.184  1.00  0.00    -0.330 C  
HETATM    5  N   UNL     1      -9.971   4.837  66.931  1.00  0.00    -0.207 NA 
HETATM    6  C   UNL     1      -8.876   4.783  67.922  1.00  0.00    -0.105 C  
HETATM    7  O   UNL     1      -8.298   6.579  64.222  1.00  0.00    -0.039 OA 
HETATM    8  C   UNL     1      -9.968   7.350  66.826  1.00  0.00    -0.300 C  
HETATM    9  C   UNL     1      -8.643   6.165  65.323  1.00  0.00    -0.077 C  
HETATM   10  C   UNL     1      -8.508   6.969  66.593  1.00  0.00    -0.121 C  
HETATM   11  C   UNL     1      -9.327   4.824  65.566  1.00  0.00    -0.159 C  
HETATM   12  C   UNL     1      -7.908   5.965  67.616  1.00  0.00    -0.098 C  
ENDROOT
BRANCH   1  13
HETATM   13  O   UNL     1      -9.147   6.870  69.944  1.00  0.00    -0.144 OA 
BRANCH  13  14
HETATM   14  C   UNL     1      -9.174   7.915  70.801  1.00  0.00    -0.157 C  
HETATM   15  O   UNL     1      -9.101   7.801  72.018  1.00  0.00    -0.126 OA 
BRANCH  14  16
HETATM   16  C   UNL     1      -9.417   9.186  70.110  1.00  0.00    -0.235 A  
HETATM   17  C   UNL     1     -10.390  11.147  69.436  1.00  0.00    -0.057 A  
HETATM   18  C   UNL     1     -10.549  10.048  70.286  1.00  0.00    -0.354 A  
HETATM   19  N   UNL     1      -9.225  10.948  68.727  1.00  0.00    -0.186 NA 
HETATM   20  C   UNL     1     -11.717   9.965  71.072  1.00  0.00    -0.466 A  
HETATM   21  C   UNL     1      -8.640   9.766  69.104  1.00  0.00    -0.153 A  
HETATM   22  C   UNL     1     -12.648  11.000  71.020  1.00  0.00    -0.512 A  
HETATM   23  C   UNL     1     -12.440  12.107  70.204  1.00  0.00    -0.108 A  
HETATM   24  H   UNL     1      -8.852  11.586  68.024  1.00  0.00     0.000 HD 
HETATM   25  C   UNL     1     -11.310  12.200  69.384  1.00  0.00    -0.311 A  
ENDBRANCH  14  16
ENDBRANCH  13  14
ENDBRANCH   1  13
TORSDOF 3
ENDMDL
MODEL      173
REMARK 921   NORMALIZED FREE ENERGY PREDICTED BY IDOCK:   -4.67 KCAL/MOL
REMARK 922        TOTAL FREE ENERGY PREDICTED BY IDOCK:   -6.11 KCAL/MOL
REMARK 923 INTER-LIGAND FREE ENERGY PREDICTED BY IDOCK:   -5.17 KCAL/MOL
REMARK 924 INTRA-LIGAND FREE ENERGY PREDICTED BY IDOCK:   -0.94 KCAL/MOL
REMARK 927      BINDING AFFINITY PREDICTED BY RF-SCORE:    0.00 PKD
ROOT
HETATM    1  C   UNL     1      -9.509   5.680  71.198  1.00  0.00    -0.158 C  
HETATM    2  C   UNL     1      -9.971   6.000  72.630  1.00  0.00    -0.192 C  
HETATM    3  C   UNL     1     -10.767   5.524  70.353  1.00  0.00    -0.321 C  
HETATM    4  C   UNL     1     -11.080   7.080  72.740  1.00  0.00    -0.284 C  
HETATM    5  N   UNL     1     -12.222   6.881  71.787  1.00  0.00    -0.342 NA 
HETATM    6  C   UNL     1     -11.666   6.781  70.421  1.00  0.00    -0.363 C  
HETATM    7  O   UNL     1     -12.853  10.451  71.963  1.00  0.00    -0.431 OA 
HETATM    8  C   UNL     1     -10.433   8.466  72.572  1.00  0.00    -0.372 C  
HETATM    9  C   UNL     1     -12.399   9.345  71.689  1.00  0.00    -0.385 C  
HETATM   10  C   UNL     1     -10.962   9.110  71.292  1.00  0.00    -0.400 C  
HETATM   11  C   UNL     1     -13.186   8.042  71.784  1.00  0.00    -0.341 C  
HETATM   12  C   UNL     1     -11.058   8.169  70.060  1.00  0.00    -0.146 C  
ENDROOT
BRANCH   1  13
HETATM   13  O   UNL     1      -8.751   6.651  70.449  1.00  0.00    -0.147 OA 
BRANCH  13  14
HETATM   14  C   UNL     1      -7.624   6.385  69.751  1.00  0.00    -0.093 C  
HETATM   15  O   UNL     1      -6.524   6.232  70.267  1.00  0.00    -0.037 OA 
BRANCH  14  16
HETATM   16  C   UNL     1      -7.853   6.417  68.303  1.00  0.00    -0.105 A  
HETATM   17  C   UNL     1      -8.431   5.798  66.175  1.00  0.00    -0.130 A  
HETATM   18  C   UNL     1      -8.381   5.354  67.500  1.00  0.00    -0.103 A  
HETATM   19  N   UNL     1      -7.909   7.074  66.153  1.00  0.00    -0.098 NA 
HETATM   20  C   UNL     1      -8.785   4.033  67.785  1.00  0.00    -0.119 A  
HETATM   21  C   UNL     1      -7.538   7.452  67.418  1.00  0.00    -0.112 A  
HETATM   22  C   UNL     1      -9.271   3.232  66.755  1.00  0.00    -0.187 A  
HETATM   23  C   UNL     1      -9.358   3.716  65.454  1.00  0.00    -0.159 A  
HETATM   24  H   UNL     1      -7.813   7.652  65.319  1.00  0.00     0.000 HD 
HETATM   25  C   UNL     1      -8.928   5.008  65.133  1.00  0.00    -0.143 A  
ENDBRANCH  14  16
ENDBRANCH  13  14
ENDBRANCH   1  13
TORSDOF 3
ENDMDL
MODEL      174
REMARK 921   NORMALIZED FREE ENERGY PREDICTED BY IDOCK:   -4.66 KCAL/MOL
REMARK 922        TOTAL FREE ENERGY PREDICTED BY IDOCK:   -6.11 KCAL/MOL
REMARK 923 INTER-LIGAND FREE ENERGY PREDICTED BY IDOCK:   -5.77 KCAL/MOL
REMARK 924 INTRA-LIGAND FREE ENERGY PREDICTED BY IDOCK:   -0.34 KCAL/MOL
REMARK 927      BINDING AFFINITY PREDICTED BY RF-SCORE:    0.00 PKD
ROOT
HETATM    1  C   UNL     1     -11.690   7.291  70.271  1.00  0.00    -0.126 C  
HETATM    2  C   UNL     1     -10.858   6.003  70.138  1.00  0.00    -0.409 C  
HETATM    3  C   UNL     1     -12.301   7.279  71.667  1.00  0.00    -0.387 C  
HETATM    4  C   UNL     1      -9.943   5.680  71.348  1.00  0.00    -0.186 C  
HETATM    5  N   UNL     1     -10.626   5.801  72.679  1.00  0.00    -0.210 NA 
HETATM    6  C   UNL     1     -11.221   7.151  72.767  1.00  0.00    -0.275 C  
HETATM    7  O   UNL     1      -7.378   6.435  74.170  1.00  0.00    -0.086 OA 
HETATM    8  C   UNL     1      -8.691   6.572  71.268  1.00  0.00    -0.130 C  
HETATM    9  C   UNL     1      -8.448   6.547  73.583  1.00  0.00    -0.122 C  
HETATM   10  C   UNL     1      -8.683   7.527  72.460  1.00  0.00    -0.163 C  
HETATM   11  C   UNL     1      -9.669   5.669  73.839  1.00  0.00    -0.162 C  
HETATM   12  C   UNL     1     -10.050   8.179  72.804  1.00  0.00    -0.367 C  
ENDROOT
BRANCH   1  13
HETATM   13  O   UNL     1     -11.042   8.578  70.228  1.00  0.00    -0.248 OA 
BRANCH  13  14
HETATM   14  C   UNL     1     -11.662   9.750  69.965  1.00  0.00    -0.074 C  
HETATM   15  O   UNL     1     -12.578  10.203  70.640  1.00  0.00    -0.305 OA 
BRANCH  14  16
HETATM   16  C   UNL     1     -11.188  10.355  68.716  1.00  0.00    -0.295 A  
HETATM   17  C   UNL     1     -10.618  11.898  67.122  1.00  0.00    -0.231 A  
HETATM   18  C   UNL     1     -11.122  11.755  68.419  1.00  0.00    -0.286 A  
HETATM   19  N   UNL     1     -10.423  10.629  66.619  1.00  0.00    -0.244 NA 
HETATM   20  C   UNL     1     -11.486  12.915  69.133  1.00  0.00    -0.360 A  
HETATM   21  C   UNL     1     -10.780   9.692  67.555  1.00  0.00    -0.256 A  
HETATM   22  C   UNL     1     -11.285  14.164  68.552  1.00  0.00    -0.285 A  
HETATM   23  C   UNL     1     -10.733  14.280  67.280  1.00  0.00    -0.277 A  
HETATM   24  H   UNL     1     -10.065  10.418  65.688  1.00  0.00     0.000 HD 
HETATM   25  C   UNL     1     -10.398  13.147  66.532  1.00  0.00    -0.284 A  
ENDBRANCH  14  16
ENDBRANCH  13  14
ENDBRANCH   1  13
TORSDOF 3
ENDMDL
MODEL      175
REMARK 921   NORMALIZED FREE ENERGY PREDICTED BY IDOCK:   -4.63 KCAL/MOL
REMARK 922        TOTAL FREE ENERGY PREDICTED BY IDOCK:   -6.07 KCAL/MOL
REMARK 923 INTER-LIGAND FREE ENERGY PREDICTED BY IDOCK:   -5.82 KCAL/MOL
REMARK 924 INTRA-LIGAND FREE ENERGY PREDICTED BY IDOCK:   -0.25 KCAL/MOL
REMARK 927      BINDING AFFINITY PREDICTED BY RF-SCORE:    0.00 PKD
ROOT
HETATM    1  C   UNL     1     -11.274  12.183  65.394  1.00  0.00    -0.333 C  
HETATM    2  C   UNL     1     -10.797  10.982  64.558  1.00  0.00    -0.257 C  
HETATM    3  C   UNL     1     -11.642  11.644  66.771  1.00  0.00    -0.220 C  
HETATM    4  C   UNL     1      -9.803  10.032  65.275  1.00  0.00    -0.318 C  
HETATM    5  N   UNL     1     -10.219   9.649  66.665  1.00  0.00    -0.239 NA 
HETATM    6  C   UNL     1     -10.461  10.891  67.429  1.00  0.00    -0.224 C  
HETATM    7  O   UNL     1      -6.718   9.090  67.445  1.00  0.00    -0.068 OA 
HETATM    8  C   UNL     1      -8.407  10.678  65.256  1.00  0.00    -0.127 C  
HETATM    9  C   UNL     1      -7.813   9.600  67.232  1.00  0.00    -0.095 C  
HETATM   10  C   UNL     1      -7.987  10.998  66.689  1.00  0.00    -0.156 C  
HETATM   11  C   UNL     1      -9.148   8.883  67.403  1.00  0.00    -0.132 C  
HETATM   12  C   UNL     1      -9.092  11.618  67.587  1.00  0.00    -0.174 C  
ENDROOT
BRANCH   1  13
HETATM   13  O   UNL     1     -10.359  13.250  65.714  1.00  0.00    -0.278 OA 
BRANCH  13  14
HETATM   14  C   UNL     1     -10.693  14.392  66.354  1.00  0.00    -0.306 C  
HETATM   15  O   UNL     1     -11.830  14.662  66.718  1.00  0.00    -0.377 OA 
BRANCH  14  16
HETATM   16  C   UNL     1      -9.559  15.318  66.455  1.00  0.00    -0.294 A  
HETATM   17  C   UNL     1      -8.311  17.238  66.488  1.00  0.00    -0.277 A  
HETATM   18  C   UNL     1      -9.610  16.744  66.330  1.00  0.00    -0.313 A  
HETATM   19  N   UNL     1      -7.480  16.150  66.659  1.00  0.00    -0.211 NA 
HETATM   20  C   UNL     1     -10.650  17.656  66.056  1.00  0.00    -0.220 A  
HETATM   21  C   UNL     1      -8.210  14.990  66.620  1.00  0.00     0.015 A  
HETATM   22  C   UNL     1     -10.366  19.018  66.004  1.00  0.00    -0.512 A  
HETATM   23  C   UNL     1      -9.073  19.487  66.216  1.00  0.00    -0.403 A  
HETATM   24  H   UNL     1      -6.471  16.202  66.794  1.00  0.00     0.000 HD 
HETATM   25  C   UNL     1      -8.013  18.604  66.452  1.00  0.00    -0.298 A  
ENDBRANCH  14  16
ENDBRANCH  13  14
ENDBRANCH   1  13
TORSDOF 3
ENDMDL
MODEL      176
REMARK 921   NORMALIZED FREE ENERGY PREDICTED BY IDOCK:   -4.62 KCAL/MOL
REMARK 922        TOTAL FREE ENERGY PREDICTED BY IDOCK:   -6.06 KCAL/MOL
REMARK 923 INTER-LIGAND FREE ENERGY PREDICTED BY IDOCK:   -5.17 KCAL/MOL
REMARK 924 INTRA-LIGAND FREE ENERGY PREDICTED BY IDOCK:   -0.89 KCAL/MOL
REMARK 927      BINDING AFFINITY PREDICTED BY RF-SCORE:    0.00 PKD
ROOT
HETATM    1  C   UNL     1      -9.880   9.384  70.366  1.00  0.00    -0.259 C  
HETATM    2  C   UNL     1     -11.071   8.670  71.029  1.00  0.00    -0.316 C  
HETATM    3  C   UNL     1      -8.622   8.887  71.069  1.00  0.00    -0.255 C  
HETATM    4  C   UNL     1     -10.891   7.144  71.241  1.00  0.00    -0.233 C  
HETATM    5  N   UNL     1      -9.571   6.763  71.846  1.00  0.00    -0.150 NA 
HETATM    6  C   UNL     1      -8.500   7.346  71.010  1.00  0.00    -0.119 C  
HETATM    7  O   UNL     1      -9.910   3.508  70.274  1.00  0.00    -0.152 OA 
HETATM    8  C   UNL     1     -11.129   6.431  69.898  1.00  0.00    -0.444 C  
HETATM    9  C   UNL     1      -9.697   4.696  70.495  1.00  0.00    -0.214 C  
HETATM   10  C   UNL     1      -9.827   5.773  69.446  1.00  0.00    -0.219 C  
HETATM   11  C   UNL     1      -9.348   5.270  71.864  1.00  0.00    -0.141 C  
HETATM   12  C   UNL     1      -8.547   6.634  69.625  1.00  0.00    -0.133 C  
ENDROOT
BRANCH   1  13
HETATM   13  O   UNL     1      -9.574   9.144  68.979  1.00  0.00    -0.153 OA 
BRANCH  13  14
HETATM   14  C   UNL     1     -10.331   9.553  67.936  1.00  0.00    -0.227 C  
HETATM   15  O   UNL     1     -10.620   8.840  66.983  1.00  0.00    -0.282 OA 
BRANCH  14  16
HETATM   16  C   UNL     1     -10.667  10.978  68.024  1.00  0.00    -0.260 A  
HETATM   17  C   UNL     1     -10.476  13.257  68.146  1.00  0.00    -0.245 A  
HETATM   18  C   UNL     1      -9.741  12.071  68.051  1.00  0.00    -0.198 A  
HETATM   19  N   UNL     1     -11.807  12.906  68.221  1.00  0.00    -0.342 NA 
HETATM   20  C   UNL     1      -8.332  12.148  68.041  1.00  0.00    -0.167 A  
HETATM   21  C   UNL     1     -11.937  11.541  68.171  1.00  0.00    -0.135 A  
HETATM   22  C   UNL     1      -7.719  13.398  68.071  1.00  0.00    -0.147 A  
HETATM   23  C   UNL     1      -8.475  14.565  68.114  1.00  0.00    -0.157 A  
HETATM   24  H   UNL     1     -12.581  13.564  68.302  1.00  0.00     0.000 HD 
HETATM   25  C   UNL     1      -9.872  14.519  68.163  1.00  0.00    -0.223 A  
ENDBRANCH  14  16
ENDBRANCH  13  14
ENDBRANCH   1  13
TORSDOF 3
ENDMDL
MODEL      177
REMARK 921   NORMALIZED FREE ENERGY PREDICTED BY IDOCK:   -4.62 KCAL/MOL
REMARK 922        TOTAL FREE ENERGY PREDICTED BY IDOCK:   -6.06 KCAL/MOL
REMARK 923 INTER-LIGAND FREE ENERGY PREDICTED BY IDOCK:   -5.48 KCAL/MOL
REMARK 924 INTRA-LIGAND FREE ENERGY PREDICTED BY IDOCK:   -0.58 KCAL/MOL
REMARK 927      BINDING AFFINITY PREDICTED BY RF-SCORE:    0.00 PKD
ROOT
HETATM    1  C   UNL     1     -10.641  10.654  68.677  1.00  0.00    -0.203 C  
HETATM    2  C   UNL     1     -11.286  11.894  69.320  1.00  0.00    -0.338 C  
HETATM    3  C   UNL     1     -11.377  10.403  67.366  1.00  0.00    -0.045 C  
HETATM    4  C   UNL     1     -11.522  13.089  68.359  1.00  0.00    -0.310 C  
HETATM    5  N   UNL     1     -12.159  12.707  67.055  1.00  0.00    -0.486 NA 
HETATM    6  C   UNL     1     -11.340  11.642  66.440  1.00  0.00    -0.245 C  
HETATM    7  O   UNL     1     -10.622  15.639  65.566  1.00  0.00    -0.353 OA 
HETATM    8  C   UNL     1     -10.183  13.818  68.146  1.00  0.00    -0.253 C  
HETATM    9  C   UNL     1     -10.832  14.521  66.024  1.00  0.00    -0.310 C  
HETATM   10  C   UNL     1      -9.768  13.679  66.683  1.00  0.00    -0.287 C  
HETATM   11  C   UNL     1     -12.201  13.851  66.070  1.00  0.00    -0.462 C  
HETATM   12  C   UNL     1      -9.963  12.267  66.064  1.00  0.00    -0.270 C  
ENDROOT
BRANCH   1  13
HETATM   13  O   UNL     1      -9.264  10.692  68.256  1.00  0.00    -0.143 OA 
BRANCH  13  14
HETATM   14  C   UNL     1      -8.412   9.643  68.294  1.00  0.00    -0.118 C  
HETATM   15  O   UNL     1      -7.437   9.583  69.033  1.00  0.00    -0.071 OA 
BRANCH  14  16
HETATM   16  C   UNL     1      -8.725   8.643  67.267  1.00  0.00    -0.133 A  
HETATM   17  C   UNL     1      -9.312   6.677  66.250  1.00  0.00    -0.105 A  
HETATM   18  C   UNL     1      -9.115   7.283  67.495  1.00  0.00    -0.125 A  
HETATM   19  N   UNL     1      -9.010   7.617  65.287  1.00  0.00    -0.366 NA 
HETATM   20  C   UNL     1      -9.279   6.503  68.658  1.00  0.00    -0.127 A  
HETATM   21  C   UNL     1      -8.635   8.795  65.881  1.00  0.00    -0.154 A  
HETATM   22  C   UNL     1      -9.684   5.177  68.538  1.00  0.00    -0.205 A  
HETATM   23  C   UNL     1      -9.924   4.613  67.289  1.00  0.00    -0.203 A  
HETATM   24  H   UNL     1      -9.058   7.460  64.281  1.00  0.00     0.000 HD 
HETATM   25  C   UNL     1      -9.732   5.349  66.115  1.00  0.00    -0.165 A  
ENDBRANCH  14  16
ENDBRANCH  13  14
ENDBRANCH   1  13
TORSDOF 3
ENDMDL
MODEL      178
REMARK 921   NORMALIZED FREE ENERGY PREDICTED BY IDOCK:   -4.61 KCAL/MOL
REMARK 922        TOTAL FREE ENERGY PREDICTED BY IDOCK:   -6.05 KCAL/MOL
REMARK 923 INTER-LIGAND FREE ENERGY PREDICTED BY IDOCK:   -5.46 KCAL/MOL
REMARK 924 INTRA-LIGAND FREE ENERGY PREDICTED BY IDOCK:   -0.58 KCAL/MOL
REMARK 927      BINDING AFFINITY PREDICTED BY RF-SCORE:    0.00 PKD
ROOT
HETATM    1  C   UNL     1      -9.165   8.019  72.822  1.00  0.00    -0.252 C  
HETATM    2  C   UNL     1      -9.660   7.181  74.014  1.00  0.00    -0.311 C  
HETATM    3  C   UNL     1      -7.886   7.360  72.320  1.00  0.00    -0.104 C  
HETATM    4  C   UNL     1      -9.653   5.646  73.790  1.00  0.00    -0.143 C  
HETATM    5  N   UNL     1      -8.379   5.122  73.195  1.00  0.00    -0.108 NA 
HETATM    6  C   UNL     1      -8.111   5.874  71.951  1.00  0.00    -0.112 C  
HETATM    7  O   UNL     1     -10.275   2.330  71.860  1.00  0.00    -0.157 OA 
HETATM    8  C   UNL     1     -10.876   5.270  72.936  1.00  0.00    -0.322 C  
HETATM    9  C   UNL     1      -9.765   3.430  72.043  1.00  0.00    -0.164 C  
HETATM   10  C   UNL     1     -10.398   4.724  71.593  1.00  0.00    -0.215 C  
HETATM   11  C   UNL     1      -8.471   3.664  72.814  1.00  0.00    -0.090 C  
HETATM   12  C   UNL     1      -9.230   5.507  70.931  1.00  0.00    -0.179 C  
ENDROOT
BRANCH   1  13
HETATM   13  O   UNL     1      -9.958   8.109  71.622  1.00  0.00    -0.172 OA 
BRANCH  13  14
HETATM   14  C   UNL     1     -11.134   8.766  71.517  1.00  0.00    -0.307 C  
HETATM   15  O   UNL     1     -12.008   8.741  72.375  1.00  0.00    -0.359 OA 
BRANCH  14  16
HETATM   16  C   UNL     1     -11.288   9.415  70.210  1.00  0.00    -0.261 A  
HETATM   17  C   UNL     1     -10.962  10.010  68.023  1.00  0.00    -0.240 A  
HETATM   18  C   UNL     1     -10.482   9.187  69.047  1.00  0.00    -0.238 A  
HETATM   19  N   UNL     1     -11.997  10.753  68.549  1.00  0.00    -0.793 NA 
HETATM   20  C   UNL     1      -9.357   8.376  68.791  1.00  0.00    -0.143 A  
HETATM   21  C   UNL     1     -12.192  10.423  69.866  1.00  0.00    -0.146 A  
HETATM   22  C   UNL     1      -8.793   8.376  67.518  1.00  0.00    -0.139 A  
HETATM   23  C   UNL     1      -9.322   9.166  66.502  1.00  0.00    -0.244 A  
HETATM   24  H   UNL     1     -12.540  11.446  68.034  1.00  0.00     0.000 HD 
HETATM   25  C   UNL     1     -10.413  10.010  66.736  1.00  0.00    -0.267 A  
ENDBRANCH  14  16
ENDBRANCH  13  14
ENDBRANCH   1  13
TORSDOF 3
ENDMDL
MODEL      179
REMARK 921   NORMALIZED FREE ENERGY PREDICTED BY IDOCK:   -4.57 KCAL/MOL
REMARK 922        TOTAL FREE ENERGY PREDICTED BY IDOCK:   -6.00 KCAL/MOL
REMARK 923 INTER-LIGAND FREE ENERGY PREDICTED BY IDOCK:   -5.24 KCAL/MOL
REMARK 924 INTRA-LIGAND FREE ENERGY PREDICTED BY IDOCK:   -0.76 KCAL/MOL
REMARK 927      BINDING AFFINITY PREDICTED BY RF-SCORE:    0.00 PKD
ROOT
HETATM    1  C   UNL     1     -10.014  12.543  68.924  1.00  0.00     0.098 C  
HETATM    2  C   UNL     1      -8.813  12.858  68.015  1.00  0.00    -0.195 C  
HETATM    3  C   UNL     1     -11.136  13.491  68.519  1.00  0.00    -0.300 C  
HETATM    4  C   UNL     1      -9.149  13.012  66.508  1.00  0.00    -0.127 C  
HETATM    5  N   UNL     1     -10.337  13.888  66.234  1.00  0.00    -0.287 NA 
HETATM    6  C   UNL     1     -11.478  13.368  67.015  1.00  0.00    -0.337 C  
HETATM    7  O   UNL     1     -10.815  12.083  63.121  1.00  0.00    -0.356 OA 
HETATM    8  C   UNL     1      -9.323  11.610  65.899  1.00  0.00    -0.232 C  
HETATM    9  C   UNL     1     -10.807  12.421  64.300  1.00  0.00    -0.355 C  
HETATM   10  C   UNL     1     -10.771  11.440  65.446  1.00  0.00    -0.313 C  
HETATM   11  C   UNL     1     -10.753  13.866  64.783  1.00  0.00    -0.423 C  
HETATM   12  C   UNL     1     -11.847  11.970  66.434  1.00  0.00    -0.232 C  
ENDROOT
BRANCH   1  13
HETATM   13  O   UNL     1     -10.657  11.255  68.852  1.00  0.00    -0.194 OA 
BRANCH  13  14
HETATM   14  C   UNL     1     -11.192  10.595  69.903  1.00  0.00    -0.308 C  
HETATM   15  O   UNL     1     -12.002  11.090  70.678  1.00  0.00    -0.331 OA 
BRANCH  14  16
HETATM   16  C   UNL     1     -10.603   9.263  70.075  1.00  0.00    -0.256 A  
HETATM   17  C   UNL     1      -9.082   7.571  70.334  1.00  0.00    -0.153 A  
HETATM   18  C   UNL     1      -9.209   8.957  70.191  1.00  0.00    -0.195 A  
HETATM   19  N   UNL     1     -10.351   7.037  70.262  1.00  0.00    -0.200 NA 
HETATM   20  C   UNL     1      -8.037   9.741  70.147  1.00  0.00    -0.202 A  
HETATM   21  C   UNL     1     -11.273   8.036  70.086  1.00  0.00    -0.144 A  
HETATM   22  C   UNL     1      -6.798   9.124  70.301  1.00  0.00    -0.055 A  
HETATM   23  C   UNL     1      -6.703   7.749  70.494  1.00  0.00    -0.038 A  
HETATM   24  H   UNL     1     -10.571   6.043  70.331  1.00  0.00     0.000 HD 
HETATM   25  C   UNL     1      -7.844   6.940  70.503  1.00  0.00    -0.105 A  
ENDBRANCH  14  16
ENDBRANCH  13  14
ENDBRANCH   1  13
TORSDOF 3
ENDMDL
MODEL      180
REMARK 921   NORMALIZED FREE ENERGY PREDICTED BY IDOCK:   -4.54 KCAL/MOL
REMARK 922        TOTAL FREE ENERGY PREDICTED BY IDOCK:   -5.97 KCAL/MOL
REMARK 923 INTER-LIGAND FREE ENERGY PREDICTED BY IDOCK:   -5.23 KCAL/MOL
REMARK 924 INTRA-LIGAND FREE ENERGY PREDICTED BY IDOCK:   -0.74 KCAL/MOL
REMARK 927      BINDING AFFINITY PREDICTED BY RF-SCORE:    0.00 PKD
ROOT
HETATM    1  C   UNL     1     -11.251   6.815  70.544  1.00  0.00    -0.320 C  
HETATM    2  C   UNL     1     -10.598   5.578  69.903  1.00  0.00    -0.387 C  
HETATM    3  C   UNL     1     -11.956   6.337  71.808  1.00  0.00    -0.313 C  
HETATM    4  C   UNL     1      -9.825   4.657  70.883  1.00  0.00    -0.202 C  
HETATM    5  N   UNL     1     -10.577   4.336  72.141  1.00  0.00    -0.062 NA 
HETATM    6  C   UNL     1     -10.985   5.610  72.768  1.00  0.00    -0.276 C  
HETATM    7  O   UNL     1      -7.387   3.803  73.788  1.00  0.00    -0.064 OA 
HETATM    8  C   UNL     1      -8.459   5.300  71.185  1.00  0.00    -0.123 C  
HETATM    9  C   UNL     1      -8.387   4.306  73.289  1.00  0.00    -0.090 C  
HETATM   10  C   UNL     1      -8.404   5.679  72.663  1.00  0.00    -0.117 C  
HETATM   11  C   UNL     1      -9.733   3.601  73.153  1.00  0.00    -0.117 C  
HETATM   12  C   UNL     1      -9.689   6.341  73.232  1.00  0.00    -0.168 C  
ENDROOT
BRANCH   1  13
HETATM   13  O   UNL     1     -10.430   7.892  71.037  1.00  0.00    -0.202 OA 
BRANCH  13  14
HETATM   14  C   UNL     1      -9.727   8.749  70.262  1.00  0.00    -0.176 C  
HETATM   15  O   UNL     1      -8.552   8.586  69.959  1.00  0.00    -0.128 OA 
BRANCH  14  16
HETATM   16  C   UNL     1     -10.501   9.949  69.927  1.00  0.00    -0.309 A  
HETATM   17  C   UNL     1     -11.387  11.717  68.772  1.00  0.00    -0.267 A  
HETATM   18  C   UNL     1     -10.529  10.618  68.660  1.00  0.00    -0.211 A  
HETATM   19  N   UNL     1     -11.835  11.753  70.075  1.00  0.00    -0.376 NA 
HETATM   20  C   UNL     1      -9.866  10.401  67.435  1.00  0.00    -0.210 A  
HETATM   21  C   UNL     1     -11.296  10.712  70.787  1.00  0.00    -0.106 A  
HETATM   22  C   UNL     1     -10.122  11.250  66.361  1.00  0.00    -0.260 A  
HETATM   23  C   UNL     1     -11.019  12.306  66.484  1.00  0.00    -0.320 A  
HETATM   24  H   UNL     1     -12.474  12.451  70.454  1.00  0.00     0.000 HD 
HETATM   25  C   UNL     1     -11.664  12.570  67.698  1.00  0.00    -0.423 A  
ENDBRANCH  14  16
ENDBRANCH  13  14
ENDBRANCH   1  13
TORSDOF 3
ENDMDL
MODEL      181
REMARK 921   NORMALIZED FREE ENERGY PREDICTED BY IDOCK:   -4.54 KCAL/MOL
REMARK 922        TOTAL FREE ENERGY PREDICTED BY IDOCK:   -5.97 KCAL/MOL
REMARK 923 INTER-LIGAND FREE ENERGY PREDICTED BY IDOCK:   -4.79 KCAL/MOL
REMARK 924 INTRA-LIGAND FREE ENERGY PREDICTED BY IDOCK:   -1.17 KCAL/MOL
REMARK 927      BINDING AFFINITY PREDICTED BY RF-SCORE:    0.00 PKD
ROOT
HETATM    1  C   UNL     1     -11.833   6.587  71.904  1.00  0.00    -0.334 C  
HETATM    2  C   UNL     1     -11.878   8.055  72.364  1.00  0.00    -0.429 C  
HETATM    3  C   UNL     1     -11.903   6.599  70.381  1.00  0.00    -0.407 C  
HETATM    4  C   UNL     1     -10.947   9.019  71.584  1.00  0.00    -0.365 C  
HETATM    5  N   UNL     1     -11.024   8.871  70.092  1.00  0.00    -0.238 NA 
HETATM    6  C   UNL     1     -10.772   7.453  69.760  1.00  0.00    -0.241 C  
HETATM    7  O   UNL     1      -7.647  10.186  69.892  1.00  0.00    -0.152 OA 
HETATM    8  C   UNL     1      -9.509   8.836  72.100  1.00  0.00    -0.309 C  
HETATM    9  C   UNL     1      -8.623   9.459  70.040  1.00  0.00    -0.203 C  
HETATM   10  C   UNL     1      -8.643   8.274  70.975  1.00  0.00    -0.165 C  
HETATM   11  C   UNL     1      -9.975   9.682  69.371  1.00  0.00    -0.197 C  
HETATM   12  C   UNL     1      -9.292   7.139  70.135  1.00  0.00    -0.158 C  
ENDROOT
BRANCH   1  13
HETATM   13  O   UNL     1     -10.661   5.787  72.153  1.00  0.00    -0.205 OA 
BRANCH  13  14
HETATM   14  C   UNL     1     -10.672   4.522  72.630  1.00  0.00    -0.157 C  
HETATM   15  O   UNL     1     -11.529   4.087  73.389  1.00  0.00    -0.238 OA 
BRANCH  14  16
HETATM   16  C   UNL     1      -9.479   3.771  72.224  1.00  0.00    -0.187 A  
HETATM   17  C   UNL     1      -7.912   2.697  70.945  1.00  0.00    -0.049 A  
HETATM   18  C   UNL     1      -9.114   3.410  70.887  1.00  0.00    -0.184 A  
HETATM   19  N   UNL     1      -7.571   2.582  72.276  1.00  0.00    -0.050 NA 
HETATM   20  C   UNL     1      -9.727   3.597  69.630  1.00  0.00    -0.140 A  
HETATM   21  C   UNL     1      -8.512   3.202  73.058  1.00  0.00    -0.080 A  
HETATM   22  C   UNL     1      -9.096   3.117  68.486  1.00  0.00    -0.210 A  
HETATM   23  C   UNL     1      -7.875   2.456  68.567  1.00  0.00    -0.058 A  
HETATM   24  H   UNL     1      -6.741   2.106  72.628  1.00  0.00     0.000 HD 
HETATM   25  C   UNL     1      -7.260   2.222  69.802  1.00  0.00    -0.036 A  
ENDBRANCH  14  16
ENDBRANCH  13  14
ENDBRANCH   1  13
TORSDOF 3
ENDMDL
MODEL      182
REMARK 921   NORMALIZED FREE ENERGY PREDICTED BY IDOCK:   -4.51 KCAL/MOL
REMARK 922        TOTAL FREE ENERGY PREDICTED BY IDOCK:   -5.93 KCAL/MOL
REMARK 923 INTER-LIGAND FREE ENERGY PREDICTED BY IDOCK:   -5.20 KCAL/MOL
REMARK 924 INTRA-LIGAND FREE ENERGY PREDICTED BY IDOCK:   -0.73 KCAL/MOL
REMARK 927      BINDING AFFINITY PREDICTED BY RF-SCORE:    0.00 PKD
ROOT
HETATM    1  C   UNL     1      -8.600  10.397  67.963  1.00  0.00    -0.123 C  
HETATM    2  C   UNL     1      -8.192  11.230  66.736  1.00  0.00    -0.158 C  
HETATM    3  C   UNL     1      -9.202  11.366  68.974  1.00  0.00     0.055 C  
HETATM    4  C   UNL     1      -9.254  12.250  66.248  1.00  0.00    -0.171 C  
HETATM    5  N   UNL     1      -9.853  13.080  67.345  1.00  0.00    -0.212 NA 
HETATM    6  C   UNL     1     -10.385  12.162  68.375  1.00  0.00    -0.229 C  
HETATM    7  O   UNL     1     -12.805  13.498  65.275  1.00  0.00    -0.660 OA 
HETATM    8  C   UNL     1     -10.333  11.492  65.454  1.00  0.00    -0.322 C  
HETATM    9  C   UNL     1     -11.952  13.059  66.038  1.00  0.00    -0.440 C  
HETATM   10  C   UNL     1     -11.661  11.587  66.202  1.00  0.00     0.014 C  
HETATM   11  C   UNL     1     -11.012  13.923  66.871  1.00  0.00    -0.295 C  
HETATM   12  C   UNL     1     -11.577  11.385  67.740  1.00  0.00    -0.325 C  
ENDROOT
BRANCH   1  13
HETATM   13  O   UNL     1      -9.628   9.394  67.847  1.00  0.00    -0.132 OA 
BRANCH  13  14
HETATM   14  C   UNL     1      -9.468   8.181  67.272  1.00  0.00    -0.155 C  
HETATM   15  O   UNL     1      -9.460   7.996  66.062  1.00  0.00    -0.155 OA 
BRANCH  14  16
HETATM   16  C   UNL     1      -9.421   7.103  68.266  1.00  0.00    -0.133 A  
HETATM   17  C   UNL     1      -9.825   5.848  70.139  1.00  0.00    -0.176 A  
HETATM   18  C   UNL     1     -10.171   7.035  69.485  1.00  0.00    -0.208 A  
HETATM   19  N   UNL     1      -8.862   5.227  69.372  1.00  0.00    -0.099 NA 
HETATM   20  C   UNL     1     -11.089   7.906  70.108  1.00  0.00    -0.204 A  
HETATM   21  C   UNL     1      -8.592   5.977  68.256  1.00  0.00    -0.115 A  
HETATM   22  C   UNL     1     -11.662   7.536  71.322  1.00  0.00    -0.312 A  
HETATM   23  C   UNL     1     -11.340   6.325  71.926  1.00  0.00    -0.348 A  
HETATM   24  H   UNL     1      -8.415   4.340  69.602  1.00  0.00     0.000 HD 
HETATM   25  C   UNL     1     -10.404   5.458  71.351  1.00  0.00    -0.294 A  
ENDBRANCH  14  16
ENDBRANCH  13  14
ENDBRANCH   1  13
TORSDOF 3
ENDMDL
MODEL      183
REMARK 921   NORMALIZED FREE ENERGY PREDICTED BY IDOCK:   -4.50 KCAL/MOL
REMARK 922        TOTAL FREE ENERGY PREDICTED BY IDOCK:   -5.92 KCAL/MOL
REMARK 923 INTER-LIGAND FREE ENERGY PREDICTED BY IDOCK:   -4.90 KCAL/MOL
REMARK 924 INTRA-LIGAND FREE ENERGY PREDICTED BY IDOCK:   -1.02 KCAL/MOL
REMARK 927      BINDING AFFINITY PREDICTED BY RF-SCORE:    0.00 PKD
ROOT
HETATM    1  C   UNL     1      -7.936   7.711  71.060  1.00  0.00    -0.094 C  
HETATM    2  C   UNL     1      -8.497   8.087  72.443  1.00  0.00    -0.211 C  
HETATM    3  C   UNL     1      -8.539   6.362  70.690  1.00  0.00    -0.139 C  
HETATM    4  C   UNL     1     -10.025   7.884  72.612  1.00  0.00    -0.266 C  
HETATM    5  N   UNL     1     -10.524   6.556  72.119  1.00  0.00    -0.203 NA 
HETATM    6  C   UNL     1     -10.086   6.396  70.716  1.00  0.00    -0.187 C  
HETATM    7  O   UNL     1     -13.775   8.087  71.605  1.00  0.00    -0.351 OA 
HETATM    8  C   UNL     1     -10.754   9.054  71.929  1.00  0.00    -0.401 C  
HETATM    9  C   UNL     1     -12.610   7.722  71.485  1.00  0.00    -0.333 C  
HETATM   10  C   UNL     1     -11.561   8.518  70.749  1.00  0.00    -0.257 C  
HETATM   11  C   UNL     1     -12.030   6.463  72.121  1.00  0.00    -0.298 C  
HETATM   12  C   UNL     1     -10.835   7.466  69.866  1.00  0.00    -0.259 C  
ENDROOT
BRANCH   1  13
HETATM   13  O   UNL     1      -8.253   8.518  69.908  1.00  0.00    -0.115 OA 
BRANCH  13  14
HETATM   14  C   UNL     1      -7.698   9.717  69.624  1.00  0.00    -0.136 C  
HETATM   15  O   UNL     1      -7.372  10.536  70.475  1.00  0.00    -0.168 OA 
BRANCH  14  16
HETATM   16  C   UNL     1      -7.640   9.969  68.180  1.00  0.00    -0.084 A  
HETATM   17  C   UNL     1      -8.252  10.465  66.030  1.00  0.00    -0.144 A  
HETATM   18  C   UNL     1      -8.740  10.323  67.333  1.00  0.00    -0.128 A  
HETATM   19  N   UNL     1      -6.907  10.164  66.064  1.00  0.00    -0.104 NA 
HETATM   20  C   UNL     1     -10.121  10.498  67.560  1.00  0.00    -0.225 A  
HETATM   21  C   UNL     1      -6.529   9.843  67.342  1.00  0.00    -0.068 A  
HETATM   22  C   UNL     1     -10.946  10.858  66.497  1.00  0.00    -0.187 A  
HETATM   23  C   UNL     1     -10.426  11.043  65.220  1.00  0.00    -0.316 A  
HETATM   24  H   UNL     1      -6.285  10.178  65.256  1.00  0.00     0.000 HD 
HETATM   25  C   UNL     1      -9.067  10.840  64.956  1.00  0.00    -0.226 A  
ENDBRANCH  14  16
ENDBRANCH  13  14
ENDBRANCH   1  13
TORSDOF 3
ENDMDL
MODEL      184
REMARK 921   NORMALIZED FREE ENERGY PREDICTED BY IDOCK:   -4.49 KCAL/MOL
REMARK 922        TOTAL FREE ENERGY PREDICTED BY IDOCK:   -5.91 KCAL/MOL
REMARK 923 INTER-LIGAND FREE ENERGY PREDICTED BY IDOCK:   -4.71 KCAL/MOL
REMARK 924 INTRA-LIGAND FREE ENERGY PREDICTED BY IDOCK:   -1.20 KCAL/MOL
REMARK 927      BINDING AFFINITY PREDICTED BY RF-SCORE:    0.00 PKD
ROOT
HETATM    1  C   UNL     1      -8.490   3.716  68.049  1.00  0.00    -0.093 C  
HETATM    2  C   UNL     1      -9.657   3.832  67.053  1.00  0.00    -0.213 C  
HETATM    3  C   UNL     1      -7.293   4.410  67.410  1.00  0.00    -0.069 C  
HETATM    4  C   UNL     1      -9.857   5.239  66.432  1.00  0.00    -0.186 C  
HETATM    5  N   UNL     1      -8.592   5.870  65.927  1.00  0.00    -0.141 NA 
HETATM    6  C   UNL     1      -7.612   5.877  67.033  1.00  0.00    -0.099 C  
HETATM    7  O   UNL     1     -10.139   9.117  66.422  1.00  0.00    -0.283 OA 
HETATM    8  C   UNL     1     -10.567   6.133  67.463  1.00  0.00    -0.344 C  
HETATM    9  C   UNL     1      -9.567   8.044  66.588  1.00  0.00    -0.230 C  
HETATM   10  C   UNL     1      -9.624   7.261  67.877  1.00  0.00    -0.153 C  
HETATM   11  C   UNL     1      -8.786   7.306  65.505  1.00  0.00    -0.024 C  
HETATM   12  C   UNL     1      -8.151   6.842  68.132  1.00  0.00    -0.115 C  
ENDROOT
BRANCH   1  13
HETATM   13  O   UNL     1      -8.571   4.362  69.335  1.00  0.00    -0.078 OA 
BRANCH  13  14
HETATM   14  C   UNL     1      -9.192   3.851  70.422  1.00  0.00    -0.139 C  
HETATM   15  O   UNL     1      -9.632   2.710  70.482  1.00  0.00    -0.144 OA 
BRANCH  14  16
HETATM   16  C   UNL     1      -9.379   4.858  71.472  1.00  0.00    -0.196 A  
HETATM   17  C   UNL     1     -10.232   6.596  72.696  1.00  0.00    -0.186 A  
HETATM   18  C   UNL     1     -10.427   5.832  71.540  1.00  0.00    -0.291 A  
HETATM   19  N   UNL     1      -9.077   6.138  73.296  1.00  0.00    -0.130 NA 
HETATM   20  C   UNL     1     -11.507   6.155  70.693  1.00  0.00    -0.331 A  
HETATM   21  C   UNL     1      -8.542   5.110  72.563  1.00  0.00    -0.121 A  
HETATM   22  C   UNL     1     -12.375   7.182  71.056  1.00  0.00    -0.376 A  
HETATM   23  C   UNL     1     -12.187   7.892  72.237  1.00  0.00    -0.333 A  
HETATM   24  H   UNL     1      -8.680   6.510  74.158  1.00  0.00     0.000 HD 
HETATM   25  C   UNL     1     -11.103   7.621  73.079  1.00  0.00    -0.437 A  
ENDBRANCH  14  16
ENDBRANCH  13  14
ENDBRANCH   1  13
TORSDOF 3
ENDMDL
MODEL      185
REMARK 921   NORMALIZED FREE ENERGY PREDICTED BY IDOCK:   -4.49 KCAL/MOL
REMARK 922        TOTAL FREE ENERGY PREDICTED BY IDOCK:   -5.91 KCAL/MOL
REMARK 923 INTER-LIGAND FREE ENERGY PREDICTED BY IDOCK:   -5.55 KCAL/MOL
REMARK 924 INTRA-LIGAND FREE ENERGY PREDICTED BY IDOCK:   -0.36 KCAL/MOL
REMARK 927      BINDING AFFINITY PREDICTED BY RF-SCORE:    0.00 PKD
ROOT
HETATM    1  C   UNL     1     -10.280  16.084  68.104  1.00  0.00    -0.243 C  
HETATM    2  C   UNL     1     -10.867  16.138  66.683  1.00  0.00    -0.149 C  
HETATM    3  C   UNL     1     -11.023  14.981  68.848  1.00  0.00    -0.256 C  
HETATM    4  C   UNL     1     -11.044  14.762  65.990  1.00  0.00    -0.330 C  
HETATM    5  N   UNL     1     -11.695  13.721  66.853  1.00  0.00    -0.372 NA 
HETATM    6  C   UNL     1     -10.926  13.624  68.111  1.00  0.00    -0.253 C  
HETATM    7  O   UNL     1     -10.017  11.180  64.877  1.00  0.00    -0.241 OA 
HETATM    8  C   UNL     1      -9.672  14.294  65.473  1.00  0.00    -0.189 C  
HETATM    9  C   UNL     1     -10.281  12.058  65.692  1.00  0.00    -0.252 C  
HETATM   10  C   UNL     1      -9.259  13.032  66.227  1.00  0.00    -0.077 C  
HETATM   11  C   UNL     1     -11.681  12.349  66.224  1.00  0.00    -0.395 C  
HETATM   12  C   UNL     1      -9.520  13.052  67.758  1.00  0.00    -0.209 C  
ENDROOT
BRANCH   1  13
HETATM   13  O   UNL     1      -8.901  15.716  68.303  1.00  0.00    -0.174 OA 
BRANCH  13  14
HETATM   14  C   UNL     1      -7.861  16.184  67.578  1.00  0.00    -0.147 C  
HETATM   15  O   UNL     1      -7.099  15.470  66.938  1.00  0.00    -0.203 OA 
BRANCH  14  16
HETATM   16  C   UNL     1      -7.683  17.631  67.743  1.00  0.00    -0.210 A  
HETATM   17  C   UNL     1      -7.023  19.665  68.564  1.00  0.00    -0.310 A  
HETATM   18  C   UNL     1      -6.930  18.285  68.772  1.00  0.00    -0.280 A  
HETATM   19  N   UNL     1      -7.842  19.857  67.472  1.00  0.00    -0.281 NA 
HETATM   20  C   UNL     1      -6.207  17.818  69.889  1.00  0.00    -0.113 A  
HETATM   21  C   UNL     1      -8.264  18.648  66.981  1.00  0.00    -0.253 A  
HETATM   22  C   UNL     1      -5.565  18.735  70.717  1.00  0.00    -0.171 A  
HETATM   23  C   UNL     1      -5.631  20.101  70.458  1.00  0.00    -0.333 A  
HETATM   24  H   UNL     1      -8.098  20.766  67.086  1.00  0.00     0.000 HD 
HETATM   25  C   UNL     1      -6.373  20.597  69.380  1.00  0.00    -0.108 A  
ENDBRANCH  14  16
ENDBRANCH  13  14
ENDBRANCH   1  13
TORSDOF 3
ENDMDL
MODEL      186
REMARK 921   NORMALIZED FREE ENERGY PREDICTED BY IDOCK:   -4.48 KCAL/MOL
REMARK 922        TOTAL FREE ENERGY PREDICTED BY IDOCK:   -5.90 KCAL/MOL
REMARK 923 INTER-LIGAND FREE ENERGY PREDICTED BY IDOCK:   -5.14 KCAL/MOL
REMARK 924 INTRA-LIGAND FREE ENERGY PREDICTED BY IDOCK:   -0.76 KCAL/MOL
REMARK 927      BINDING AFFINITY PREDICTED BY RF-SCORE:    0.00 PKD
ROOT
HETATM    1  C   UNL     1      -9.162  17.523  67.759  1.00  0.00    -0.253 C  
HETATM    2  C   UNL     1      -7.832  18.093  68.281  1.00  0.00    -0.301 C  
HETATM    3  C   UNL     1      -8.817  16.568  66.623  1.00  0.00    -0.288 C  
HETATM    4  C   UNL     1      -6.707  17.048  68.503  1.00  0.00    -0.172 C  
HETATM    5  N   UNL     1      -6.526  16.094  67.359  1.00  0.00    -0.169 NA 
HETATM    6  C   UNL     1      -7.833  15.464  67.077  1.00  0.00    -0.209 C  
HETATM    7  O   UNL     1      -5.154  13.696  69.714  1.00  0.00    -0.084 OA 
HETATM    8  C   UNL     1      -6.981  16.307  69.824  1.00  0.00     0.034 C  
HETATM    9  C   UNL     1      -5.909  14.393  69.045  1.00  0.00    -0.088 C  
HETATM   10  C   UNL     1      -7.270  14.839  69.521  1.00  0.00    -0.160 C  
HETATM   11  C   UNL     1      -5.562  14.977  67.680  1.00  0.00     0.005 C  
HETATM   12  C   UNL     1      -8.202  14.579  68.306  1.00  0.00    -0.149 C  
ENDROOT
BRANCH   1  13
HETATM   13  O   UNL     1      -9.982  16.702  68.614  1.00  0.00    -0.237 OA 
BRANCH  13  14
HETATM   14  C   UNL     1     -11.240  16.300  68.328  1.00  0.00    -0.324 C  
HETATM   15  O   UNL     1     -11.961  16.847  67.503  1.00  0.00     0.894 OA 
BRANCH  14  16
HETATM   16  C   UNL     1     -11.680  15.207  69.202  1.00  0.00    -0.349 A  
HETATM   17  C   UNL     1     -12.332  14.027  71.054  1.00  0.00    -0.369 A  
HETATM   18  C   UNL     1     -11.942  15.294  70.608  1.00  0.00    -0.386 A  
HETATM   19  N   UNL     1     -12.268  13.177  69.970  1.00  0.00    -0.288 NA 
HETATM   20  C   UNL     1     -11.843  16.339  71.550  1.00  0.00    -0.441 A  
HETATM   21  C   UNL     1     -11.858  13.864  68.856  1.00  0.00    -0.358 A  
HETATM   22  C   UNL     1     -12.186  16.096  72.877  1.00  0.00    -0.640 A  
HETATM   23  C   UNL     1     -12.621  14.838  73.284  1.00  0.00    -0.554 A  
HETATM   24  H   UNL     1     -12.493  12.182  69.993  1.00  0.00     0.000 HD 
HETATM   25  C   UNL     1     -12.692  13.771  72.381  1.00  0.00    -0.254 A  
ENDBRANCH  14  16
ENDBRANCH  13  14
ENDBRANCH   1  13
TORSDOF 3
ENDMDL
MODEL      187
REMARK 921   NORMALIZED FREE ENERGY PREDICTED BY IDOCK:   -4.48 KCAL/MOL
REMARK 922        TOTAL FREE ENERGY PREDICTED BY IDOCK:   -5.90 KCAL/MOL
REMARK 923 INTER-LIGAND FREE ENERGY PREDICTED BY IDOCK:   -5.16 KCAL/MOL
REMARK 924 INTRA-LIGAND FREE ENERGY PREDICTED BY IDOCK:   -0.73 KCAL/MOL
REMARK 927      BINDING AFFINITY PREDICTED BY RF-SCORE:    0.00 PKD
ROOT
HETATM    1  C   UNL     1      -7.922   8.069  68.813  1.00  0.00    -0.119 C  
HETATM    2  C   UNL     1      -6.992   7.570  69.933  1.00  0.00    -0.059 C  
HETATM    3  C   UNL     1      -9.060   7.061  68.702  1.00  0.00    -0.132 C  
HETATM    4  C   UNL     1      -7.708   7.110  71.230  1.00  0.00    -0.093 C  
HETATM    5  N   UNL     1      -8.878   6.200  70.991  1.00  0.00    -0.139 NA 
HETATM    6  C   UNL     1      -9.796   6.873  70.049  1.00  0.00    -0.173 C  
HETATM    7  O   UNL     1     -10.263   7.326  74.152  1.00  0.00    -0.255 OA 
HETATM    8  C   UNL     1      -8.112   8.357  72.035  1.00  0.00    -0.194 C  
HETATM    9  C   UNL     1      -9.923   7.239  72.977  1.00  0.00    -0.227 C  
HETATM   10  C   UNL     1      -9.635   8.435  72.102  1.00  0.00    -0.367 C  
HETATM   11  C   UNL     1      -9.666   5.924  72.249  1.00  0.00    -0.160 C  
HETATM   12  C   UNL     1     -10.379   8.123  70.775  1.00  0.00    -0.217 C  
ENDROOT
BRANCH   1  13
HETATM   13  O   UNL     1      -8.628   9.317  68.963  1.00  0.00    -0.128 OA 
BRANCH  13  14
HETATM   14  C   UNL     1      -8.563  10.354  68.099  1.00  0.00    -0.125 C  
HETATM   15  O   UNL     1      -7.546  10.677  67.498  1.00  0.00    -0.092 OA 
BRANCH  14  16
HETATM   16  C   UNL     1      -9.817  11.114  68.055  1.00  0.00    -0.185 A  
HETATM   17  C   UNL     1     -11.313  12.848  68.025  1.00  0.00    -0.292 A  
HETATM   18  C   UNL     1      -9.949  12.540  68.078  1.00  0.00    -0.219 A  
HETATM   19  N   UNL     1     -11.999  11.652  68.015  1.00  0.00    -0.609 NA 
HETATM   20  C   UNL     1      -9.022  13.598  68.180  1.00  0.00    -0.191 A  
HETATM   21  C   UNL     1     -11.118  10.602  68.055  1.00  0.00    -0.301 A  
HETATM   22  C   UNL     1      -9.484  14.912  68.169  1.00  0.00    -0.202 A  
HETATM   23  C   UNL     1     -10.843  15.191  68.063  1.00  0.00    -0.284 A  
HETATM   24  H   UNL     1     -13.015  11.561  67.984  1.00  0.00     0.000 HD 
HETATM   25  C   UNL     1     -11.790  14.163  68.000  1.00  0.00    -0.400 A  
ENDBRANCH  14  16
ENDBRANCH  13  14
ENDBRANCH   1  13
TORSDOF 3
ENDMDL
MODEL      188
REMARK 921   NORMALIZED FREE ENERGY PREDICTED BY IDOCK:   -4.45 KCAL/MOL
REMARK 922        TOTAL FREE ENERGY PREDICTED BY IDOCK:   -5.86 KCAL/MOL
REMARK 923 INTER-LIGAND FREE ENERGY PREDICTED BY IDOCK:   -5.23 KCAL/MOL
REMARK 924 INTRA-LIGAND FREE ENERGY PREDICTED BY IDOCK:   -0.64 KCAL/MOL
REMARK 927      BINDING AFFINITY PREDICTED BY RF-SCORE:    0.00 PKD
ROOT
HETATM    1  C   UNL     1     -10.130   7.221  68.613  1.00  0.00    -0.176 C  
HETATM    2  C   UNL     1     -11.067   6.041  68.305  1.00  0.00    -0.259 C  
HETATM    3  C   UNL     1      -8.832   6.627  69.147  1.00  0.00    -0.129 C  
HETATM    4  C   UNL     1     -10.415   4.864  67.533  1.00  0.00     0.031 C  
HETATM    5  N   UNL     1      -9.090   4.429  68.088  1.00  0.00    -0.120 NA 
HETATM    6  C   UNL     1      -8.211   5.616  68.155  1.00  0.00    -0.096 C  
HETATM    7  O   UNL     1      -8.236   3.183  64.788  1.00  0.00    -0.089 OA 
HETATM    8  C   UNL     1     -10.311   5.250  66.048  1.00  0.00    -0.176 C  
HETATM    9  C   UNL     1      -8.437   3.899  65.763  1.00  0.00    -0.110 C  
HETATM   10  C   UNL     1      -8.837   5.350  65.661  1.00  0.00    -0.153 C  
HETATM   11  C   UNL     1      -8.394   3.418  67.210  1.00  0.00    -0.092 C  
HETATM   12  C   UNL     1      -7.923   6.069  66.692  1.00  0.00    -0.102 C  
ENDROOT
BRANCH   1  13
HETATM   13  O   UNL     1      -9.664   8.072  67.547  1.00  0.00    -0.147 OA 
BRANCH  13  14
HETATM   14  C   UNL     1      -9.854   9.409  67.482  1.00  0.00    -0.173 C  
HETATM   15  O   UNL     1     -10.064  10.116  68.460  1.00  0.00    -0.158 OA 
BRANCH  14  16
HETATM   16  C   UNL     1      -9.895   9.892  66.097  1.00  0.00    -0.324 A  
HETATM   17  C   UNL     1     -10.421  11.109  64.230  1.00  0.00    -0.362 A  
HETATM   18  C   UNL     1     -10.670  10.990  65.602  1.00  0.00    -0.217 A  
HETATM   19  N   UNL     1      -9.559  10.091  63.883  1.00  0.00    -0.383 NA 
HETATM   20  C   UNL     1     -11.594  11.872  66.199  1.00  0.00    -0.299 A  
HETATM   21  C   UNL     1      -9.251   9.338  64.988  1.00  0.00    -0.178 A  
HETATM   22  C   UNL     1     -12.188  12.864  65.423  1.00  0.00    -0.528 A  
HETATM   23  C   UNL     1     -11.884  12.993  64.072  1.00  0.00    -0.510 A  
HETATM   24  H   UNL     1      -9.203   9.921  62.943  1.00  0.00     0.000 HD 
HETATM   25  C   UNL     1     -11.001  12.109  63.442  1.00  0.00    -0.480 A  
ENDBRANCH  14  16
ENDBRANCH  13  14
ENDBRANCH   1  13
TORSDOF 3
ENDMDL
MODEL      189
REMARK 921   NORMALIZED FREE ENERGY PREDICTED BY IDOCK:   -4.43 KCAL/MOL
REMARK 922        TOTAL FREE ENERGY PREDICTED BY IDOCK:   -5.84 KCAL/MOL
REMARK 923 INTER-LIGAND FREE ENERGY PREDICTED BY IDOCK:   -4.46 KCAL/MOL
REMARK 924 INTRA-LIGAND FREE ENERGY PREDICTED BY IDOCK:   -1.39 KCAL/MOL
REMARK 927      BINDING AFFINITY PREDICTED BY RF-SCORE:    0.00 PKD
ROOT
HETATM    1  C   UNL     1      -8.564   5.668  72.466  1.00  0.00    -0.124 C  
HETATM    2  C   UNL     1      -9.797   4.866  72.017  1.00  0.00    -0.232 C  
HETATM    3  C   UNL     1      -7.343   4.808  72.163  1.00  0.00    -0.081 C  
HETATM    4  C   UNL     1      -9.682   4.205  70.619  1.00  0.00    -0.203 C  
HETATM    5  N   UNL     1      -8.393   3.470  70.395  1.00  0.00    -0.056 NA 
HETATM    6  C   UNL     1      -7.280   4.403  70.671  1.00  0.00    -0.045 C  
HETATM    7  O   UNL     1      -8.820   4.018  66.832  1.00  0.00    -0.113 OA 
HETATM    8  C   UNL     1      -9.915   5.284  69.546  1.00  0.00    -0.297 C  
HETATM    9  C   UNL     1      -8.566   4.152  68.024  1.00  0.00    -0.096 C  
HETATM   10  C   UNL     1      -8.630   5.476  68.745  1.00  0.00    -0.100 C  
HETATM   11  C   UNL     1      -8.229   3.003  68.969  1.00  0.00    -0.059 C  
HETATM   12  C   UNL     1      -7.321   5.516  69.581  1.00  0.00    -0.066 C  
ENDROOT
BRANCH   1  13
HETATM   13  O   UNL     1      -8.234   6.911  71.816  1.00  0.00    -0.105 OA 
BRANCH  13  14
HETATM   14  C   UNL     1      -8.560   8.139  72.279  1.00  0.00    -0.175 C  
HETATM   15  O   UNL     1      -8.078   8.637  73.289  1.00  0.00    -0.408 OA 
BRANCH  14  16
HETATM   16  C   UNL     1      -9.639   8.753  71.499  1.00  0.00    -0.354 A  
HETATM   17  C   UNL     1     -10.805   9.726  69.784  1.00  0.00    -0.257 A  
HETATM   18  C   UNL     1      -9.559   9.200  70.140  1.00  0.00    -0.235 A  
HETATM   19  N   UNL     1     -11.613   9.647  70.899  1.00  0.00    -0.317 NA 
HETATM   20  C   UNL     1      -8.515   9.238  69.192  1.00  0.00    -0.133 A  
HETATM   21  C   UNL     1     -10.922   9.086  71.942  1.00  0.00    -0.353 A  
HETATM   22  C   UNL     1      -8.768   9.743  67.919  1.00  0.00    -0.125 A  
HETATM   23  C   UNL     1     -10.032  10.212  67.575  1.00  0.00    -0.231 A  
HETATM   24  H   UNL     1     -12.582   9.961  70.941  1.00  0.00     0.000 HD 
HETATM   25  C   UNL     1     -11.077  10.224  68.505  1.00  0.00    -0.294 A  
ENDBRANCH  14  16
ENDBRANCH  13  14
ENDBRANCH   1  13
TORSDOF 3
ENDMDL
MODEL      190
REMARK 921   NORMALIZED FREE ENERGY PREDICTED BY IDOCK:   -4.41 KCAL/MOL
REMARK 922        TOTAL FREE ENERGY PREDICTED BY IDOCK:   -5.82 KCAL/MOL
REMARK 923 INTER-LIGAND FREE ENERGY PREDICTED BY IDOCK:   -5.06 KCAL/MOL
REMARK 924 INTRA-LIGAND FREE ENERGY PREDICTED BY IDOCK:   -0.76 KCAL/MOL
REMARK 927      BINDING AFFINITY PREDICTED BY RF-SCORE:    0.00 PKD
ROOT
HETATM    1  C   UNL     1      -9.762   8.166  70.666  1.00  0.00    -0.170 C  
HETATM    2  C   UNL     1     -11.000   7.273  70.860  1.00  0.00    -0.275 C  
HETATM    3  C   UNL     1      -8.573   7.403  71.236  1.00  0.00    -0.118 C  
HETATM    4  C   UNL     1     -10.811   5.786  70.462  1.00  0.00    -0.278 C  
HETATM    5  N   UNL     1      -9.552   5.166  70.996  1.00  0.00    -0.162 NA 
HETATM    6  C   UNL     1      -8.413   6.011  70.578  1.00  0.00    -0.132 C  
HETATM    7  O   UNL     1      -9.658   2.820  68.228  1.00  0.00    -0.187 OA 
HETATM    8  C   UNL     1     -10.894   5.675  68.930  1.00  0.00    -0.229 C  
HETATM    9  C   UNL     1      -9.494   3.815  68.926  1.00  0.00    -0.153 C  
HETATM   10  C   UNL     1      -9.539   5.225  68.389  1.00  0.00    -0.176 C  
HETATM   11  C   UNL     1      -9.300   3.786  70.438  1.00  0.00    -0.165 C  
HETATM   12  C   UNL     1      -8.302   5.914  69.027  1.00  0.00    -0.106 C  
ENDROOT
BRANCH   1  13
HETATM   13  O   UNL     1      -9.310   8.495  69.337  1.00  0.00    -0.153 OA 
BRANCH  13  14
HETATM   14  C   UNL     1      -8.927   9.726  68.931  1.00  0.00    -0.144 C  
HETATM   15  O   UNL     1      -7.920  10.295  69.336  1.00  0.00    -0.133 OA 
BRANCH  14  16
HETATM   16  C   UNL     1      -9.915  10.345  68.041  1.00  0.00    -0.178 A  
HETATM   17  C   UNL     1     -10.972  11.114  66.160  1.00  0.00    -0.138 A  
HETATM   18  C   UNL     1      -9.826  10.454  66.615  1.00  0.00    -0.251 A  
HETATM   19  N   UNL     1     -11.720  11.442  67.271  1.00  0.00    -0.583 NA 
HETATM   20  C   UNL     1      -8.845  10.079  65.673  1.00  0.00    -0.184 A  
HETATM   21  C   UNL     1     -11.090  11.006  68.408  1.00  0.00    -0.251 A  
HETATM   22  C   UNL     1      -9.068  10.326  64.321  1.00  0.00    -0.278 A  
HETATM   23  C   UNL     1     -10.241  10.939  63.891  1.00  0.00    -0.418 A  
HETATM   24  H   UNL     1     -12.612  11.936  67.250  1.00  0.00     0.000 HD 
HETATM   25  C   UNL     1     -11.215  11.357  64.804  1.00  0.00    -0.197 A  
ENDBRANCH  14  16
ENDBRANCH  13  14
ENDBRANCH   1  13
TORSDOF 3
ENDMDL
MODEL      191
REMARK 921   NORMALIZED FREE ENERGY PREDICTED BY IDOCK:   -4.40 KCAL/MOL
REMARK 922        TOTAL FREE ENERGY PREDICTED BY IDOCK:   -5.80 KCAL/MOL
REMARK 923 INTER-LIGAND FREE ENERGY PREDICTED BY IDOCK:   -5.20 KCAL/MOL
REMARK 924 INTRA-LIGAND FREE ENERGY PREDICTED BY IDOCK:   -0.60 KCAL/MOL
REMARK 927      BINDING AFFINITY PREDICTED BY RF-SCORE:    0.00 PKD
ROOT
HETATM    1  C   UNL     1      -8.742   7.775  68.385  1.00  0.00    -0.127 C  
HETATM    2  C   UNL     1      -9.134   7.089  67.065  1.00  0.00    -0.150 C  
HETATM    3  C   UNL     1      -7.246   8.057  68.309  1.00  0.00    -0.093 C  
HETATM    4  C   UNL     1      -8.565   7.750  65.783  1.00  0.00    -0.143 C  
HETATM    5  N   UNL     1      -7.102   8.077  65.861  1.00  0.00    -0.057 NA 
HETATM    6  C   UNL     1      -6.881   8.903  67.066  1.00  0.00    -0.073 C  
HETATM    7  O   UNL     1      -7.658  10.680  63.393  1.00  0.00    -0.040 OA 
HETATM    8  C   UNL     1      -9.409   8.996  65.458  1.00  0.00    -0.255 C  
HETATM    9  C   UNL     1      -7.596  10.035  64.434  1.00  0.00    -0.145 C  
HETATM   10  C   UNL     1      -8.535  10.240  65.598  1.00  0.00    -0.165 C  
HETATM   11  C   UNL     1      -6.622   8.887  64.681  1.00  0.00    -0.066 C  
HETATM   12  C   UNL     1      -7.602  10.266  66.839  1.00  0.00    -0.105 C  
ENDROOT
BRANCH   1  13
HETATM   13  O   UNL     1      -9.283   9.070  68.715  1.00  0.00    -0.133 OA 
BRANCH  13  14
HETATM   14  C   UNL     1     -10.402   9.280  69.443  1.00  0.00    -0.215 C  
HETATM   15  O   UNL     1     -11.081   8.381  69.925  1.00  0.00    -0.216 OA 
BRANCH  14  16
HETATM   16  C   UNL     1     -10.771  10.699  69.489  1.00  0.00    -0.290 A  
HETATM   17  C   UNL     1     -11.775  12.670  70.081  1.00  0.00    -0.168 A  
HETATM   18  C   UNL     1     -11.723  11.303  70.373  1.00  0.00    -0.398 A  
HETATM   19  N   UNL     1     -10.920  12.893  69.023  1.00  0.00    -0.371 NA 
HETATM   20  C   UNL     1     -12.575  10.794  71.375  1.00  0.00    -0.516 A  
HETATM   21  C   UNL     1     -10.326  11.718  68.642  1.00  0.00    -0.214 A  
HETATM   22  C   UNL     1     -13.400  11.668  72.077  1.00  0.00    -0.405 A  
HETATM   23  C   UNL     1     -13.395  13.032  71.802  1.00  0.00    -0.468 A  
HETATM   24  H   UNL     1     -10.754  13.800  68.587  1.00  0.00     0.000 HD 
HETATM   25  C   UNL     1     -12.589  13.562  70.788  1.00  0.00    -0.382 A  
ENDBRANCH  14  16
ENDBRANCH  13  14
ENDBRANCH   1  13
TORSDOF 3
ENDMDL
MODEL      192
REMARK 921   NORMALIZED FREE ENERGY PREDICTED BY IDOCK:   -4.39 KCAL/MOL
REMARK 922        TOTAL FREE ENERGY PREDICTED BY IDOCK:   -5.79 KCAL/MOL
REMARK 923 INTER-LIGAND FREE ENERGY PREDICTED BY IDOCK:   -5.15 KCAL/MOL
REMARK 924 INTRA-LIGAND FREE ENERGY PREDICTED BY IDOCK:   -0.64 KCAL/MOL
REMARK 927      BINDING AFFINITY PREDICTED BY RF-SCORE:    0.00 PKD
ROOT
HETATM    1  C   UNL     1      -9.747  14.208  68.264  1.00  0.00    -0.227 C  
HETATM    2  C   UNL     1     -11.005  13.335  68.412  1.00  0.00    -0.289 C  
HETATM    3  C   UNL     1      -8.579  13.397  68.811  1.00  0.00     0.116 C  
HETATM    4  C   UNL     1     -10.844  11.862  67.955  1.00  0.00    -0.213 C  
HETATM    5  N   UNL     1      -9.603  11.194  68.473  1.00  0.00    -0.188 NA 
HETATM    6  C   UNL     1      -8.443  12.030  68.099  1.00  0.00    -0.171 C  
HETATM    7  O   UNL     1      -9.735   8.965  65.610  1.00  0.00    -0.210 OA 
HETATM    8  C   UNL     1     -10.916  11.815  66.418  1.00  0.00    -0.341 C  
HETATM    9  C   UNL     1      -9.556   9.927  66.350  1.00  0.00    -0.200 C  
HETATM   10  C   UNL     1      -9.566  11.358  65.870  1.00  0.00    -0.254 C  
HETATM   11  C   UNL     1      -9.376   9.833  67.861  1.00  0.00    -0.127 C  
HETATM   12  C   UNL     1      -8.320  11.994  66.546  1.00  0.00    -0.024 C  
ENDROOT
BRANCH   1  13
HETATM   13  O   UNL     1      -9.276  14.581  66.954  1.00  0.00    -0.227 OA 
BRANCH  13  14
HETATM   14  C   UNL     1      -8.511  15.663  66.683  1.00  0.00    -0.288 C  
HETATM   15  O   UNL     1      -7.287  15.660  66.725  1.00  0.00    -0.153 OA 
BRANCH  14  16
HETATM   16  C   UNL     1      -9.320  16.864  66.448  1.00  0.00    -0.303 A  
HETATM   17  C   UNL     1     -10.167  18.985  66.612  1.00  0.00    -0.407 A  
HETATM   18  C   UNL     1      -9.208  18.114  67.139  1.00  0.00    -0.256 A  
HETATM   19  N   UNL     1     -10.877  18.282  65.662  1.00  0.00    -0.340 NA 
HETATM   20  C   UNL     1      -8.394  18.567  68.197  1.00  0.00    -0.316 A  
HETATM   21  C   UNL     1     -10.396  17.002  65.566  1.00  0.00    -0.143 A  
HETATM   22  C   UNL     1      -8.530  19.877  68.649  1.00  0.00    -0.127 A  
HETATM   23  C   UNL     1      -9.457  20.740  68.073  1.00  0.00    -0.039 A  
HETATM   24  H   UNL     1     -11.647  18.660  65.110  1.00  0.00     0.000 HD 
HETATM   25  C   UNL     1     -10.305  20.308  67.047  1.00  0.00    -0.421 A  
ENDBRANCH  14  16
ENDBRANCH  13  14
ENDBRANCH   1  13
TORSDOF 3
ENDMDL
MODEL      193
REMARK 921   NORMALIZED FREE ENERGY PREDICTED BY IDOCK:   -4.38 KCAL/MOL
REMARK 922        TOTAL FREE ENERGY PREDICTED BY IDOCK:   -5.77 KCAL/MOL
REMARK 923 INTER-LIGAND FREE ENERGY PREDICTED BY IDOCK:   -5.29 KCAL/MOL
REMARK 924 INTRA-LIGAND FREE ENERGY PREDICTED BY IDOCK:   -0.48 KCAL/MOL
REMARK 927      BINDING AFFINITY PREDICTED BY RF-SCORE:    0.00 PKD
ROOT
HETATM    1  C   UNL     1      -8.886  11.341  67.352  1.00  0.00    -0.145 C  
HETATM    2  C   UNL     1      -8.791  11.801  65.886  1.00  0.00    -0.003 C  
HETATM    3  C   UNL     1      -9.080  12.595  68.196  1.00  0.00    -0.204 C  
HETATM    4  C   UNL     1      -9.862  12.834  65.448  1.00  0.00    -0.128 C  
HETATM    5  N   UNL     1     -10.041  13.974  66.408  1.00  0.00    -0.286 NA 
HETATM    6  C   UNL     1     -10.318  13.407  67.745  1.00  0.00    -0.241 C  
HETATM    7  O   UNL     1     -13.427  14.358  65.160  1.00  0.00    -0.392 OA 
HETATM    8  C   UNL     1     -11.186  12.090  65.196  1.00  0.00    -0.368 C  
HETATM    9  C   UNL     1     -12.426  13.978  65.757  1.00  0.00    -0.494 C  
HETATM   10  C   UNL     1     -12.221  12.556  66.217  1.00  0.00    -0.159 C  
HETATM   11  C   UNL     1     -11.214  14.855  66.055  1.00  0.00    -0.327 C  
HETATM   12  C   UNL     1     -11.704  12.698  67.675  1.00  0.00    -0.420 C  
ENDROOT
BRANCH   1  13
HETATM   13  O   UNL     1      -9.981  10.508  67.779  1.00  0.00    -0.165 OA 
BRANCH  13  14
HETATM   14  C   UNL     1     -10.207   9.245  67.354  1.00  0.00    -0.243 C  
HETATM   15  O   UNL     1     -10.375   8.941  66.180  1.00  0.00    -0.187 OA 
BRANCH  14  16
HETATM   16  C   UNL     1     -10.343   8.305  68.472  1.00  0.00    -0.230 A  
HETATM   17  C   UNL     1     -10.436   6.366  69.687  1.00  0.00    -0.227 A  
HETATM   18  C   UNL     1     -10.238   6.877  68.400  1.00  0.00    -0.191 A  
HETATM   19  N   UNL     1     -10.700   7.437  70.514  1.00  0.00    -0.229 NA 
HETATM   20  C   UNL     1     -10.028   5.973  67.339  1.00  0.00    -0.165 A  
HETATM   21  C   UNL     1     -10.669   8.605  69.797  1.00  0.00    -0.215 A  
HETATM   22  C   UNL     1      -9.971   4.608  67.608  1.00  0.00    -0.161 A  
HETATM   23  C   UNL     1     -10.121   4.128  68.906  1.00  0.00     0.189 A  
HETATM   24  H   UNL     1     -10.891   7.370  71.514  1.00  0.00     0.000 HD 
HETATM   25  C   UNL     1     -10.368   4.998  69.974  1.00  0.00    -0.303 A  
ENDBRANCH  14  16
ENDBRANCH  13  14
ENDBRANCH   1  13
TORSDOF 3
ENDMDL
MODEL      194
REMARK 921   NORMALIZED FREE ENERGY PREDICTED BY IDOCK:   -4.38 KCAL/MOL
REMARK 922        TOTAL FREE ENERGY PREDICTED BY IDOCK:   -5.77 KCAL/MOL
REMARK 923 INTER-LIGAND FREE ENERGY PREDICTED BY IDOCK:   -4.54 KCAL/MOL
REMARK 924 INTRA-LIGAND FREE ENERGY PREDICTED BY IDOCK:   -1.23 KCAL/MOL
REMARK 927      BINDING AFFINITY PREDICTED BY RF-SCORE:    0.00 PKD
ROOT
HETATM    1  C   UNL     1     -11.836   6.381  71.554  1.00  0.00    -0.298 C  
HETATM    2  C   UNL     1     -11.908   7.762  72.230  1.00  0.00    -0.378 C  
HETATM    3  C   UNL     1     -11.725   6.628  70.055  1.00  0.00    -0.378 C  
HETATM    4  C   UNL     1     -10.874   8.800  71.721  1.00  0.00    -0.345 C  
HETATM    5  N   UNL     1     -10.777   8.884  70.225  1.00  0.00    -0.215 NA 
HETATM    6  C   UNL     1     -10.514   7.525  69.707  1.00  0.00    -0.230 C  
HETATM    7  O   UNL     1      -7.376  10.090  70.617  1.00  0.00    -0.308 OA 
HETATM    8  C   UNL     1      -9.510   8.487  72.362  1.00  0.00    -0.350 C  
HETATM    9  C   UNL     1      -8.376   9.385  70.538  1.00  0.00    -0.197 C  
HETATM   10  C   UNL     1      -8.529   8.073  71.268  1.00  0.00    -0.138 C  
HETATM   11  C   UNL     1      -9.636   9.757  69.764  1.00  0.00    -0.230 C  
HETATM   12  C   UNL     1      -9.095   7.104  70.194  1.00  0.00    -0.152 C  
ENDROOT
BRANCH   1  13
HETATM   13  O   UNL     1     -10.716   5.510  71.808  1.00  0.00    -0.231 OA 
BRANCH  13  14
HETATM   14  C   UNL     1     -10.655   4.594  72.800  1.00  0.00    -0.208 C  
HETATM   15  O   UNL     1     -11.477   4.512  73.704  1.00  0.00    -0.268 OA 
BRANCH  14  16
HETATM   16  C   UNL     1      -9.431   3.789  72.730  1.00  0.00    -0.160 A  
HETATM   17  C   UNL     1      -7.243   3.133  72.898  1.00  0.00    -0.045 A  
HETATM   18  C   UNL     1      -8.119   4.197  73.138  1.00  0.00    -0.090 A  
HETATM   19  N   UNL     1      -7.979   2.122  72.319  1.00  0.00    -0.052 NA 
HETATM   20  C   UNL     1      -7.596   5.399  73.657  1.00  0.00    -0.095 A  
HETATM   21  C   UNL     1      -9.289   2.507  72.192  1.00  0.00    -0.098 A  
HETATM   22  C   UNL     1      -6.240   5.475  73.965  1.00  0.00    -0.063 A  
HETATM   23  C   UNL     1      -5.399   4.385  73.764  1.00  0.00    -0.008 A  
HETATM   24  H   UNL     1      -7.604   1.219  72.028  1.00  0.00     0.000 HD 
HETATM   25  C   UNL     1      -5.881   3.192  73.215  1.00  0.00    -0.004 A  
ENDBRANCH  14  16
ENDBRANCH  13  14
ENDBRANCH   1  13
TORSDOF 3
ENDMDL
MODEL      195
REMARK 921   NORMALIZED FREE ENERGY PREDICTED BY IDOCK:   -4.37 KCAL/MOL
REMARK 922        TOTAL FREE ENERGY PREDICTED BY IDOCK:   -5.77 KCAL/MOL
REMARK 923 INTER-LIGAND FREE ENERGY PREDICTED BY IDOCK:   -4.49 KCAL/MOL
REMARK 924 INTRA-LIGAND FREE ENERGY PREDICTED BY IDOCK:   -1.28 KCAL/MOL
REMARK 927      BINDING AFFINITY PREDICTED BY RF-SCORE:    0.00 PKD
ROOT
HETATM    1  C   UNL     1      -8.172   9.815  65.562  1.00  0.00    -0.129 C  
HETATM    2  C   UNL     1      -9.560  10.214  65.031  1.00  0.00    -0.362 C  
HETATM    3  C   UNL     1      -7.569  11.060  66.202  1.00  0.00    -0.084 C  
HETATM    4  C   UNL     1     -10.430  11.040  66.015  1.00  0.00    -0.245 C  
HETATM    5  N   UNL     1      -9.702  12.180  66.665  1.00  0.00    -0.213 NA 
HETATM    6  C   UNL     1      -8.485  11.640  67.306  1.00  0.00    -0.156 C  
HETATM    7  O   UNL     1     -12.038  11.957  69.434  1.00  0.00    -0.280 OA 
HETATM    8  C   UNL     1     -11.034  10.083  67.057  1.00  0.00    -0.119 C  
HETATM    9  C   UNL     1     -11.107  11.771  68.658  1.00  0.00    -0.238 C  
HETATM   10  C   UNL     1     -10.467  10.423  68.434  1.00  0.00    -0.216 C  
HETATM   11  C   UNL     1     -10.511  12.844  67.752  1.00  0.00    -0.220 C  
HETATM   12  C   UNL     1      -8.942  10.716  68.475  1.00  0.00    -0.156 C  
ENDROOT
BRANCH   1  13
HETATM   13  O   UNL     1      -8.053   8.838  66.614  1.00  0.00    -0.102 OA 
BRANCH  13  14
HETATM   14  C   UNL     1      -8.101   7.499  66.439  1.00  0.00    -0.114 C  
HETATM   15  O   UNL     1      -8.298   6.960  65.357  1.00  0.00    -0.136 OA 
BRANCH  14  16
HETATM   16  C   UNL     1      -8.008   6.774  67.710  1.00  0.00    -0.113 A  
HETATM   17  C   UNL     1      -8.570   5.754  69.683  1.00  0.00    -0.116 A  
HETATM   18  C   UNL     1      -9.095   6.440  68.582  1.00  0.00    -0.127 A  
HETATM   19  N   UNL     1      -7.202   5.708  69.519  1.00  0.00    -0.064 NA 
HETATM   20  C   UNL     1     -10.481   6.697  68.545  1.00  0.00    -0.246 A  
HETATM   21  C   UNL     1      -6.846   6.334  68.351  1.00  0.00    -0.071 A  
HETATM   22  C   UNL     1     -11.290   6.218  69.572  1.00  0.00    -0.475 A  
HETATM   23  C   UNL     1     -10.750   5.495  70.630  1.00  0.00    -0.303 A  
HETATM   24  H   UNL     1      -6.550   5.272  70.170  1.00  0.00     0.000 HD 
HETATM   25  C   UNL     1      -9.373   5.256  70.714  1.00  0.00    -0.205 A  
ENDBRANCH  14  16
ENDBRANCH  13  14
ENDBRANCH   1  13
TORSDOF 3
ENDMDL
MODEL      196
REMARK 921   NORMALIZED FREE ENERGY PREDICTED BY IDOCK:   -4.37 KCAL/MOL
REMARK 922        TOTAL FREE ENERGY PREDICTED BY IDOCK:   -5.76 KCAL/MOL
REMARK 923 INTER-LIGAND FREE ENERGY PREDICTED BY IDOCK:   -5.47 KCAL/MOL
REMARK 924 INTRA-LIGAND FREE ENERGY PREDICTED BY IDOCK:   -0.30 KCAL/MOL
REMARK 927      BINDING AFFINITY PREDICTED BY RF-SCORE:    0.00 PKD
ROOT
HETATM    1  C   UNL     1     -10.193  10.168  70.223  1.00  0.00    -0.120 C  
HETATM    2  C   UNL     1     -10.594   9.289  71.420  1.00  0.00    -0.417 C  
HETATM    3  C   UNL     1      -8.780   9.755  69.826  1.00  0.00    -0.228 C  
HETATM    4  C   UNL     1     -10.276   7.779  71.267  1.00  0.00    -0.193 C  
HETATM    5  N   UNL     1      -8.888   7.494  70.771  1.00  0.00    -0.147 NA 
HETATM    6  C   UNL     1      -8.689   8.243  69.512  1.00  0.00    -0.138 C  
HETATM    7  O   UNL     1     -10.116   4.342  69.456  1.00  0.00    -0.183 OA 
HETATM    8  C   UNL     1     -11.345   7.142  70.361  1.00  0.00    -0.325 C  
HETATM    9  C   UNL     1      -9.843   5.526  69.618  1.00  0.00    -0.193 C  
HETATM   10  C   UNL     1     -10.682   6.657  69.074  1.00  0.00    -0.299 C  
HETATM   11  C   UNL     1      -8.671   6.035  70.452  1.00  0.00    -0.144 C  
HETATM   12  C   UNL     1      -9.647   7.630  68.447  1.00  0.00    -0.155 C  
ENDROOT
BRANCH   1  13
HETATM   13  O   UNL     1     -10.908  10.061  68.976  1.00  0.00    -0.212 OA 
BRANCH  13  14
HETATM   14  C   UNL     1     -10.731  10.871  67.908  1.00  0.00    -0.231 C  
HETATM   15  O   UNL     1     -10.884  10.512  66.747  1.00  0.00    -0.224 OA 
BRANCH  14  16
HETATM   16  C   UNL     1     -10.225  12.191  68.298  1.00  0.00    -0.209 A  
HETATM   17  C   UNL     1     -10.090  14.295  69.193  1.00  0.00    -0.055 A  
HETATM   18  C   UNL     1     -10.931  13.187  69.047  1.00  0.00    -0.241 A  
HETATM   19  N   UNL     1      -8.922  14.011  68.518  1.00  0.00    -0.256 NA 
HETATM   20  C   UNL     1     -12.234  13.254  69.583  1.00  0.00    -0.258 A  
HETATM   21  C   UNL     1      -8.995  12.761  67.957  1.00  0.00    -0.196 A  
HETATM   22  C   UNL     1     -12.626  14.392  70.284  1.00  0.00    -0.380 A  
HETATM   23  C   UNL     1     -11.751  15.460  70.459  1.00  0.00    -0.356 A  
HETATM   24  H   UNL     1      -8.121  14.638  68.446  1.00  0.00     0.000 HD 
HETATM   25  C   UNL     1     -10.465  15.439  69.906  1.00  0.00    -0.310 A  
ENDBRANCH  14  16
ENDBRANCH  13  14
ENDBRANCH   1  13
TORSDOF 3
ENDMDL
MODEL      197
REMARK 921   NORMALIZED FREE ENERGY PREDICTED BY IDOCK:   -4.34 KCAL/MOL
REMARK 922        TOTAL FREE ENERGY PREDICTED BY IDOCK:   -5.73 KCAL/MOL
REMARK 923 INTER-LIGAND FREE ENERGY PREDICTED BY IDOCK:   -4.78 KCAL/MOL
REMARK 924 INTRA-LIGAND FREE ENERGY PREDICTED BY IDOCK:   -0.95 KCAL/MOL
REMARK 927      BINDING AFFINITY PREDICTED BY RF-SCORE:    0.00 PKD
ROOT
HETATM    1  C   UNL     1     -11.068   6.740  72.962  1.00  0.00    -0.217 C  
HETATM    2  C   UNL     1     -10.369   6.156  74.202  1.00  0.00    -0.308 C  
HETATM    3  C   UNL     1     -10.578   8.175  72.814  1.00  0.00    -0.386 C  
HETATM    4  C   UNL     1      -8.846   6.435  74.294  1.00  0.00    -0.146 C  
HETATM    5  N   UNL     1      -8.470   7.863  74.029  1.00  0.00    -0.249 NA 
HETATM    6  C   UNL     1      -9.035   8.250  72.719  1.00  0.00    -0.253 C  
HETATM    7  O   UNL     1      -5.192   6.697  72.993  1.00  0.00    -0.035 OA 
HETATM    8  C   UNL     1      -8.113   5.468  73.348  1.00  0.00    -0.114 C  
HETATM    9  C   UNL     1      -6.382   6.992  73.031  1.00  0.00    -0.057 C  
HETATM   10  C   UNL     1      -7.443   6.272  72.236  1.00  0.00    -0.094 C  
HETATM   11  C   UNL     1      -6.976   8.065  73.937  1.00  0.00    -0.125 C  
HETATM   12  C   UNL     1      -8.302   7.415  71.627  1.00  0.00    -0.107 C  
ENDROOT
BRANCH   1  13
HETATM   13  O   UNL     1     -10.806   6.188  71.657  1.00  0.00    -0.239 OA 
BRANCH  13  14
HETATM   14  C   UNL     1     -11.576   6.381  70.563  1.00  0.00    -0.358 C  
HETATM   15  O   UNL     1     -12.709   6.847  70.601  1.00  0.00    -0.226 OA 
BRANCH  14  16
HETATM   16  C   UNL     1     -10.944   5.863  69.346  1.00  0.00    -0.421 A  
HETATM   17  C   UNL     1      -9.670   4.600  67.922  1.00  0.00    -0.143 A  
HETATM   18  C   UNL     1     -10.038   4.755  69.262  1.00  0.00    -0.217 A  
HETATM   19  N   UNL     1     -10.290   5.605  67.210  1.00  0.00    -0.215 NA 
HETATM   20  C   UNL     1      -9.470   3.893  70.223  1.00  0.00    -0.255 A  
HETATM   21  C   UNL     1     -11.041   6.384  68.053  1.00  0.00    -0.267 A  
HETATM   22  C   UNL     1      -8.605   2.884  69.806  1.00  0.00    -0.115 A  
HETATM   23  C   UNL     1      -8.295   2.719  68.460  1.00  0.00    -0.086 A  
HETATM   24  H   UNL     1     -10.203   5.748  66.204  1.00  0.00     0.000 HD 
HETATM   25  C   UNL     1      -8.813   3.582  67.488  1.00  0.00    -0.147 A  
ENDBRANCH  14  16
ENDBRANCH  13  14
ENDBRANCH   1  13
TORSDOF 3
ENDMDL
MODEL      198
REMARK 921   NORMALIZED FREE ENERGY PREDICTED BY IDOCK:   -4.34 KCAL/MOL
REMARK 922        TOTAL FREE ENERGY PREDICTED BY IDOCK:   -5.73 KCAL/MOL
REMARK 923 INTER-LIGAND FREE ENERGY PREDICTED BY IDOCK:   -4.60 KCAL/MOL
REMARK 924 INTRA-LIGAND FREE ENERGY PREDICTED BY IDOCK:   -1.13 KCAL/MOL
REMARK 927      BINDING AFFINITY PREDICTED BY RF-SCORE:    0.00 PKD
ROOT
HETATM    1  C   UNL     1      -8.466   8.624  68.258  1.00  0.00    -0.131 C  
HETATM    2  C   UNL     1      -8.166   7.438  67.325  1.00  0.00    -0.115 C  
HETATM    3  C   UNL     1      -7.132   9.296  68.562  1.00  0.00    -0.071 C  
HETATM    4  C   UNL     1      -7.205   7.751  66.148  1.00  0.00    -0.074 C  
HETATM    5  N   UNL     1      -5.971   8.506  66.551  1.00  0.00    -0.051 NA 
HETATM    6  C   UNL     1      -6.396   9.724  67.271  1.00  0.00    -0.068 C  
HETATM    7  O   UNL     1      -5.782   9.795  63.163  1.00  0.00    -0.089 OA 
HETATM    8  C   UNL     1      -7.994   8.492  65.055  1.00  0.00    -0.131 C  
HETATM    9  C   UNL     1      -6.078   9.603  64.338  1.00  0.00    -0.089 C  
HETATM   10  C   UNL     1      -7.439   9.908  64.914  1.00  0.00    -0.135 C  
HETATM   11  C   UNL     1      -5.154   8.959  65.366  1.00  0.00    -0.037 C  
HETATM   12  C   UNL     1      -7.131  10.641  66.248  1.00  0.00    -0.137 C  
ENDROOT
BRANCH   1  13
HETATM   13  O   UNL     1      -9.267   9.727  67.790  1.00  0.00    -0.131 OA 
BRANCH  13  14
HETATM   14  C   UNL     1     -10.602   9.682  67.578  1.00  0.00    -0.277 C  
HETATM   15  O   UNL     1     -11.268   8.656  67.641  1.00  0.00     0.208 OA 
BRANCH  14  16
HETATM   16  C   UNL     1     -11.135  10.980  67.151  1.00  0.00    -0.333 A  
HETATM   17  C   UNL     1     -11.718  12.775  65.853  1.00  0.00    -0.414 A  
HETATM   18  C   UNL     1     -11.111  11.515  65.822  1.00  0.00    -0.272 A  
HETATM   19  N   UNL     1     -12.063  13.028  67.164  1.00  0.00    -0.352 NA 
HETATM   20  C   UNL     1     -10.588  11.048  64.599  1.00  0.00    -0.369 A  
HETATM   21  C   UNL     1     -11.701  11.970  67.959  1.00  0.00    -0.331 A  
HETATM   22  C   UNL     1     -10.736  11.825  63.453  1.00  0.00    -0.468 A  
HETATM   23  C   UNL     1     -11.390  13.052  63.502  1.00  0.00    -0.319 A  
HETATM   24  H   UNL     1     -12.520  13.878  67.494  1.00  0.00     0.000 HD 
HETATM   25  C   UNL     1     -11.886  13.560  64.708  1.00  0.00    -0.412 A  
ENDBRANCH  14  16
ENDBRANCH  13  14
ENDBRANCH   1  13
TORSDOF 3
ENDMDL
MODEL      199
REMARK 921   NORMALIZED FREE ENERGY PREDICTED BY IDOCK:   -4.33 KCAL/MOL
REMARK 922        TOTAL FREE ENERGY PREDICTED BY IDOCK:   -5.72 KCAL/MOL
REMARK 923 INTER-LIGAND FREE ENERGY PREDICTED BY IDOCK:   -4.97 KCAL/MOL
REMARK 924 INTRA-LIGAND FREE ENERGY PREDICTED BY IDOCK:   -0.76 KCAL/MOL
REMARK 927      BINDING AFFINITY PREDICTED BY RF-SCORE:    0.00 PKD
ROOT
HETATM    1  C   UNL     1      -8.848   8.104  67.750  1.00  0.00    -0.130 C  
HETATM    2  C   UNL     1      -8.918   6.815  66.911  1.00  0.00    -0.133 C  
HETATM    3  C   UNL     1      -7.423   8.210  68.279  1.00  0.00    -0.097 C  
HETATM    4  C   UNL     1      -7.740   6.605  65.924  1.00  0.00    -0.091 C  
HETATM    5  N   UNL     1      -6.386   6.837  66.530  1.00  0.00    -0.044 NA 
HETATM    6  C   UNL     1      -6.381   8.185  67.136  1.00  0.00    -0.056 C  
HETATM    7  O   UNL     1      -5.149   7.621  63.209  1.00  0.00    -0.036 OA 
HETATM    8  C   UNL     1      -7.970   7.495  64.690  1.00  0.00    -0.133 C  
HETATM    9  C   UNL     1      -5.680   7.674  64.313  1.00  0.00    -0.041 C  
HETATM   10  C   UNL     1      -6.869   8.551  64.624  1.00  0.00    -0.069 C  
HETATM   11  C   UNL     1      -5.278   6.813  65.506  1.00  0.00    -0.022 C  
HETATM   12  C   UNL     1      -6.503   9.220  65.977  1.00  0.00    -0.068 C  
ENDROOT
BRANCH   1  13
HETATM   13  O   UNL     1      -9.040   9.386  67.121  1.00  0.00    -0.129 OA 
BRANCH  13  14
HETATM   14  C   UNL     1     -10.180  10.111  67.170  1.00  0.00    -0.225 C  
HETATM   15  O   UNL     1     -10.926  10.145  68.141  1.00  0.00    -0.255 OA 
BRANCH  14  16
HETATM   16  C   UNL     1     -10.477  10.756  65.886  1.00  0.00    -0.270 A  
HETATM   17  C   UNL     1     -11.201  12.266  64.323  1.00  0.00    -0.350 A  
HETATM   18  C   UNL     1     -11.101  12.032  65.699  1.00  0.00    -0.361 A  
HETATM   19  N   UNL     1     -10.698  11.153  63.684  1.00  0.00    -0.545 NA 
HETATM   20  C   UNL     1     -11.626  12.994  66.587  1.00  0.00    -0.410 A  
HETATM   21  C   UNL     1     -10.279  10.229  64.607  1.00  0.00    -0.134 A  
HETATM   22  C   UNL     1     -12.176  14.166  66.074  1.00  0.00    -0.464 A  
HETATM   23  C   UNL     1     -12.216  14.397  64.703  1.00  0.00    -0.479 A  
HETATM   24  H   UNL     1     -10.645  11.034  62.673  1.00  0.00     0.000 HD 
HETATM   25  C   UNL     1     -11.738  13.445  63.795  1.00  0.00    -0.426 A  
ENDBRANCH  14  16
ENDBRANCH  13  14
ENDBRANCH   1  13
TORSDOF 3
ENDMDL
MODEL      200
REMARK 921   NORMALIZED FREE ENERGY PREDICTED BY IDOCK:   -4.32 KCAL/MOL
REMARK 922        TOTAL FREE ENERGY PREDICTED BY IDOCK:   -5.71 KCAL/MOL
REMARK 923 INTER-LIGAND FREE ENERGY PREDICTED BY IDOCK:   -4.78 KCAL/MOL
REMARK 924 INTRA-LIGAND FREE ENERGY PREDICTED BY IDOCK:   -0.93 KCAL/MOL
REMARK 927      BINDING AFFINITY PREDICTED BY RF-SCORE:    0.00 PKD
ROOT
HETATM    1  C   UNL     1     -10.422   8.350  67.141  1.00  0.00    -0.310 C  
HETATM    2  C   UNL     1     -10.897   9.812  67.083  1.00  0.00    -0.207 C  
HETATM    3  C   UNL     1      -9.181   8.253  66.261  1.00  0.00    -0.258 C  
HETATM    4  C   UNL     1      -9.780  10.876  67.253  1.00  0.00    -0.165 C  
HETATM    5  N   UNL     1      -8.562  10.622  66.413  1.00  0.00    -0.144 NA 
HETATM    6  C   UNL     1      -8.085   9.253  66.700  1.00  0.00    -0.108 C  
HETATM    7  O   UNL     1      -6.624  12.499  68.841  1.00  0.00    -0.083 OA 
HETATM    8  C   UNL     1      -9.428  10.982  68.747  1.00  0.00    -0.190 C  
HETATM    9  C   UNL     1      -7.245  11.621  68.251  1.00  0.00    -0.085 C  
HETATM   10  C   UNL     1      -7.990  10.513  68.955  1.00  0.00    -0.128 C  
HETATM   11  C   UNL     1      -7.425  11.559  66.738  1.00  0.00    -0.118 C  
HETATM   12  C   UNL     1      -7.586   9.231  68.177  1.00  0.00    -0.084 C  
ENDROOT
BRANCH   1  13
HETATM   13  O   UNL     1      -9.963   7.787  68.386  1.00  0.00    -0.167 OA 
BRANCH  13  14
HETATM   14  C   UNL     1     -10.457   6.668  68.960  1.00  0.00    -0.214 C  
HETATM   15  O   UNL     1     -10.669   5.626  68.352  1.00  0.00    -0.216 OA 
BRANCH  14  16
HETATM   16  C   UNL     1     -10.818   6.884  70.366  1.00  0.00    -0.297 A  
HETATM   17  C   UNL     1     -10.672   7.144  72.636  1.00  0.00    -0.268 A  
HETATM   18  C   UNL     1      -9.918   6.918  71.480  1.00  0.00    -0.185 A  
HETATM   19  N   UNL     1     -11.996   7.200  72.254  1.00  0.00    -0.441 NA 
HETATM   20  C   UNL     1      -8.525   6.738  71.607  1.00  0.00    -0.115 A  
HETATM   21  C   UNL     1     -12.102   7.025  70.899  1.00  0.00    -0.357 A  
HETATM   22  C   UNL     1      -7.936   6.843  72.864  1.00  0.00    -0.109 A  
HETATM   23  C   UNL     1      -8.703   7.119  73.992  1.00  0.00    -0.220 A  
HETATM   24  H   UNL     1     -12.780   7.350  72.888  1.00  0.00     0.000 HD 
HETATM   25  C   UNL     1     -10.092   7.264  73.904  1.00  0.00    -0.312 A  
ENDBRANCH  14  16
ENDBRANCH  13  14
ENDBRANCH   1  13
TORSDOF 3
ENDMDL
MODEL      201
REMARK 921   NORMALIZED FREE ENERGY PREDICTED BY IDOCK:   -4.32 KCAL/MOL
REMARK 922        TOTAL FREE ENERGY PREDICTED BY IDOCK:   -5.71 KCAL/MOL
REMARK 923 INTER-LIGAND FREE ENERGY PREDICTED BY IDOCK:   -4.64 KCAL/MOL
REMARK 924 INTRA-LIGAND FREE ENERGY PREDICTED BY IDOCK:   -1.07 KCAL/MOL
REMARK 927      BINDING AFFINITY PREDICTED BY RF-SCORE:    0.00 PKD
ROOT
HETATM    1  C   UNL     1      -9.493   8.617  69.410  1.00  0.00    -0.161 C  
HETATM    2  C   UNL     1     -10.126   9.270  70.651  1.00  0.00    -0.339 C  
HETATM    3  C   UNL     1      -8.409   7.671  69.914  1.00  0.00    -0.132 C  
HETATM    4  C   UNL     1     -10.467   8.296  71.809  1.00  0.00    -0.259 C  
HETATM    5  N   UNL     1      -9.360   7.342  72.151  1.00  0.00    -0.136 NA 
HETATM    6  C   UNL     1      -8.970   6.633  70.914  1.00  0.00    -0.147 C  
HETATM    7  O   UNL     1     -11.870   5.055  73.435  1.00  0.00    -0.155 OA 
HETATM    8  C   UNL     1     -11.769   7.555  71.458  1.00  0.00    -0.309 C  
HETATM    9  C   UNL     1     -11.123   5.699  72.706  1.00  0.00    -0.289 C  
HETATM   10  C   UNL     1     -11.465   6.069  71.283  1.00  0.00    -0.251 C  
HETATM   11  C   UNL     1      -9.786   6.288  73.144  1.00  0.00    -0.167 C  
HETATM   12  C   UNL     1     -10.173   5.740  70.485  1.00  0.00    -0.284 C  
ENDROOT
BRANCH   1  13
HETATM   13  O   UNL     1     -10.282   7.758  68.564  1.00  0.00    -0.195 OA 
BRANCH  13  14
HETATM   14  C   UNL     1     -10.176   7.686  67.218  1.00  0.00    -0.272 C  
HETATM   15  O   UNL     1     -10.361   8.636  66.468  1.00  0.00    -0.282 OA 
BRANCH  14  16
HETATM   16  C   UNL     1      -9.930   6.315  66.758  1.00  0.00    -0.220 A  
HETATM   17  C   UNL     1      -8.867   4.405  66.073  1.00  0.00    -0.119 A  
HETATM   18  C   UNL     1      -8.653   5.722  66.494  1.00  0.00    -0.121 A  
HETATM   19  N   UNL     1     -10.231   4.208  66.034  1.00  0.00    -0.432 NA 
HETATM   20  C   UNL     1      -7.330   6.208  66.542  1.00  0.00    -0.081 A  
HETATM   21  C   UNL     1     -10.884   5.350  66.422  1.00  0.00    -0.131 A  
HETATM   22  C   UNL     1      -6.278   5.354  66.222  1.00  0.00    -0.034 A  
HETATM   23  C   UNL     1      -6.516   4.033  65.855  1.00  0.00    -0.033 A  
HETATM   24  H   UNL     1     -10.688   3.339  65.757  1.00  0.00     0.000 HD 
HETATM   25  C   UNL     1      -7.819   3.532  65.762  1.00  0.00    -0.089 A  
ENDBRANCH  14  16
ENDBRANCH  13  14
ENDBRANCH   1  13
TORSDOF 3
ENDMDL
MODEL      202
REMARK 921   NORMALIZED FREE ENERGY PREDICTED BY IDOCK:   -4.32 KCAL/MOL
REMARK 922        TOTAL FREE ENERGY PREDICTED BY IDOCK:   -5.71 KCAL/MOL
REMARK 923 INTER-LIGAND FREE ENERGY PREDICTED BY IDOCK:   -5.24 KCAL/MOL
REMARK 924 INTRA-LIGAND FREE ENERGY PREDICTED BY IDOCK:   -0.47 KCAL/MOL
REMARK 927      BINDING AFFINITY PREDICTED BY RF-SCORE:    0.00 PKD
ROOT
HETATM    1  C   UNL     1      -9.062   7.954  69.043  1.00  0.00    -0.144 C  
HETATM    2  C   UNL     1      -8.858   8.357  67.572  1.00  0.00    -0.139 C  
HETATM    3  C   UNL     1      -8.492   9.083  69.893  1.00  0.00    -0.139 C  
HETATM    4  C   UNL     1      -9.250   9.818  67.228  1.00  0.00    -0.134 C  
HETATM    5  N   UNL     1      -8.717  10.837  68.193  1.00  0.00    -0.125 NA 
HETATM    6  C   UNL     1      -9.143  10.445  69.553  1.00  0.00    -0.107 C  
HETATM    7  O   UNL     1     -11.473  13.008  67.260  1.00  0.00    -0.295 OA 
HETATM    8  C   UNL     1     -10.781   9.899  67.104  1.00  0.00    -0.276 C  
HETATM    9  C   UNL     1     -10.780  12.131  67.765  1.00  0.00    -0.209 C  
HETATM   10  C   UNL     1     -11.325  10.796  68.213  1.00  0.00    -0.376 C  
HETATM   11  C   UNL     1      -9.268  12.220  67.944  1.00  0.00    -0.190 C  
HETATM   12  C   UNL     1     -10.694  10.581  69.616  1.00  0.00    -0.302 C  
ENDROOT
BRANCH   1  13
HETATM   13  O   UNL     1     -10.393   7.809  69.575  1.00  0.00    -0.209 OA 
BRANCH  13  14
HETATM   14  C   UNL     1     -11.149   6.692  69.480  1.00  0.00    -0.322 C  
HETATM   15  O   UNL     1     -11.882   6.287  70.373  1.00  0.00    -0.329 OA 
BRANCH  14  16
HETATM   16  C   UNL     1     -10.899   5.963  68.231  1.00  0.00    -0.325 A  
HETATM   17  C   UNL     1     -10.076   4.454  66.718  1.00  0.00    -0.144 A  
HETATM   18  C   UNL     1     -10.026   4.840  68.062  1.00  0.00    -0.154 A  
HETATM   19  N   UNL     1     -10.916   5.337  66.072  1.00  0.00    -0.775 NA 
HETATM   20  C   UNL     1      -9.165   4.141  68.933  1.00  0.00    -0.208 A  
HETATM   21  C   UNL     1     -11.400   6.261  66.962  1.00  0.00     0.043 A  
HETATM   22  C   UNL     1      -8.435   3.059  68.447  1.00  0.00    -0.103 A  
HETATM   23  C   UNL     1      -8.542   2.664  67.117  1.00  0.00    -0.120 A  
HETATM   24  H   UNL     1     -11.142   5.307  65.079  1.00  0.00     0.000 HD 
HETATM   25  C   UNL     1      -9.359   3.361  66.219  1.00  0.00    -0.157 A  
ENDBRANCH  14  16
ENDBRANCH  13  14
ENDBRANCH   1  13
TORSDOF 3
ENDMDL
MODEL      203
REMARK 921   NORMALIZED FREE ENERGY PREDICTED BY IDOCK:   -4.32 KCAL/MOL
REMARK 922        TOTAL FREE ENERGY PREDICTED BY IDOCK:   -5.70 KCAL/MOL
REMARK 923 INTER-LIGAND FREE ENERGY PREDICTED BY IDOCK:   -4.84 KCAL/MOL
REMARK 924 INTRA-LIGAND FREE ENERGY PREDICTED BY IDOCK:   -0.86 KCAL/MOL
REMARK 927      BINDING AFFINITY PREDICTED BY RF-SCORE:    0.00 PKD
ROOT
HETATM    1  C   UNL     1     -10.479   9.208  70.017  1.00  0.00    -0.221 C  
HETATM    2  C   UNL     1     -11.010   7.773  69.860  1.00  0.00    -0.194 C  
HETATM    3  C   UNL     1      -8.959   9.113  70.080  1.00  0.00    -0.201 C  
HETATM    4  C   UNL     1     -10.274   6.909  68.802  1.00  0.00    -0.174 C  
HETATM    5  N   UNL     1      -8.777   6.973  68.895  1.00  0.00    -0.131 NA 
HETATM    6  C   UNL     1      -8.376   8.395  68.840  1.00  0.00    -0.119 C  
HETATM    7  O   UNL     1      -8.627   6.130  65.367  1.00  0.00    -0.149 OA 
HETATM    8  C   UNL     1     -10.775   7.315  67.404  1.00  0.00    -0.358 C  
HETATM    9  C   UNL     1      -8.743   6.721  66.435  1.00  0.00    -0.138 C  
HETATM   10  C   UNL     1      -9.620   7.936  66.622  1.00  0.00    -0.293 C  
HETATM   11  C   UNL     1      -8.092   6.281  67.742  1.00  0.00    -0.114 C  
HETATM   12  C   UNL     1      -8.729   8.928  67.419  1.00  0.00    -0.128 C  
ENDROOT
BRANCH   1  13
HETATM   13  O   UNL     1     -10.685  10.174  68.967  1.00  0.00    -0.201 OA 
BRANCH  13  14
HETATM   14  C   UNL     1     -11.699  11.067  68.922  1.00  0.00    -0.330 C  
HETATM   15  O   UNL     1     -12.803  10.869  69.414  1.00  0.00    -0.201 OA 
BRANCH  14  16
HETATM   16  C   UNL     1     -11.360  12.246  68.118  1.00  0.00    -0.349 A  
HETATM   17  C   UNL     1     -10.187  13.962  67.157  1.00  0.00    -0.258 A  
HETATM   18  C   UNL     1     -10.073  12.869  68.023  1.00  0.00    -0.235 A  
HETATM   19  N   UNL     1     -11.507  14.037  66.767  1.00  0.00    -0.347 NA 
HETATM   20  C   UNL     1      -8.827  12.618  68.633  1.00  0.00     0.050 A  
HETATM   21  C   UNL     1     -12.228  13.028  67.352  1.00  0.00    -0.097 A  
HETATM   22  C   UNL     1      -7.738  13.427  68.316  1.00  0.00    -0.141 A  
HETATM   23  C   UNL     1      -7.866  14.476  67.411  1.00  0.00    -0.221 A  
HETATM   24  H   UNL     1     -11.891  14.740  66.137  1.00  0.00     0.000 HD 
HETATM   25  C   UNL     1      -9.098  14.774  66.819  1.00  0.00    -0.291 A  
ENDBRANCH  14  16
ENDBRANCH  13  14
ENDBRANCH   1  13
TORSDOF 3
ENDMDL
MODEL      204
REMARK 921   NORMALIZED FREE ENERGY PREDICTED BY IDOCK:   -4.31 KCAL/MOL
REMARK 922        TOTAL FREE ENERGY PREDICTED BY IDOCK:   -5.70 KCAL/MOL
REMARK 923 INTER-LIGAND FREE ENERGY PREDICTED BY IDOCK:   -4.27 KCAL/MOL
REMARK 924 INTRA-LIGAND FREE ENERGY PREDICTED BY IDOCK:   -1.43 KCAL/MOL
REMARK 927      BINDING AFFINITY PREDICTED BY RF-SCORE:    0.00 PKD
ROOT
HETATM    1  C   UNL     1     -10.797  10.012  68.659  1.00  0.00    -0.229 C  
HETATM    2  C   UNL     1      -9.695  11.034  68.992  1.00  0.00    -0.151 C  
HETATM    3  C   UNL     1     -10.520   9.509  67.248  1.00  0.00    -0.328 C  
HETATM    4  C   UNL     1      -8.253  10.592  68.629  1.00  0.00    -0.130 C  
HETATM    5  N   UNL     1      -8.120  10.016  67.249  1.00  0.00    -0.113 NA 
HETATM    6  C   UNL     1      -9.098   8.915  67.117  1.00  0.00    -0.138 C  
HETATM    7  O   UNL     1      -5.224   8.165  68.415  1.00  0.00    -0.030 OA 
HETATM    8  C   UNL     1      -7.756   9.611  69.705  1.00  0.00    -0.133 C  
HETATM    9  C   UNL     1      -6.367   8.539  68.176  1.00  0.00    -0.056 C  
HETATM   10  C   UNL     1      -7.545   8.239  69.069  1.00  0.00    -0.089 C  
HETATM   11  C   UNL     1      -6.756   9.423  66.995  1.00  0.00    -0.076 C  
HETATM   12  C   UNL     1      -8.658   7.778  68.088  1.00  0.00    -0.123 C  
ENDROOT
BRANCH   1  13
HETATM   13  O   UNL     1     -10.897   8.787  69.411  1.00  0.00    -0.205 OA 
BRANCH  13  14
HETATM   14  C   UNL     1     -11.361   8.688  70.676  1.00  0.00    -0.247 C  
HETATM   15  O   UNL     1     -12.356   9.273  71.085  1.00  0.00    -0.307 OA 
BRANCH  14  16
HETATM   16  C   UNL     1     -10.470   7.894  71.529  1.00  0.00    -0.251 A  
HETATM   17  C   UNL     1      -9.230   6.159  72.365  1.00  0.00    -0.139 A  
HETATM   18  C   UNL     1     -10.082   6.531  71.319  1.00  0.00    -0.208 A  
HETATM   19  N   UNL     1      -9.133   7.240  73.214  1.00  0.00    -0.145 NA 
HETATM   20  C   UNL     1     -10.416   5.567  70.345  1.00  0.00    -0.356 A  
HETATM   21  C   UNL     1      -9.887   8.282  72.739  1.00  0.00    -0.263 A  
HETATM   22  C   UNL     1      -9.850   4.297  70.421  1.00  0.00    -0.268 A  
HETATM   23  C   UNL     1      -8.965   3.969  71.443  1.00  0.00    -0.160 A  
HETATM   24  H   UNL     1      -8.580   7.262  74.071  1.00  0.00     0.000 HD 
HETATM   25  C   UNL     1      -8.644   4.891  72.446  1.00  0.00    -0.123 A  
ENDBRANCH  14  16
ENDBRANCH  13  14
ENDBRANCH   1  13
TORSDOF 3
ENDMDL
MODEL      205
REMARK 921   NORMALIZED FREE ENERGY PREDICTED BY IDOCK:   -4.30 KCAL/MOL
REMARK 922        TOTAL FREE ENERGY PREDICTED BY IDOCK:   -5.69 KCAL/MOL
REMARK 923 INTER-LIGAND FREE ENERGY PREDICTED BY IDOCK:   -4.92 KCAL/MOL
REMARK 924 INTRA-LIGAND FREE ENERGY PREDICTED BY IDOCK:   -0.77 KCAL/MOL
REMARK 927      BINDING AFFINITY PREDICTED BY RF-SCORE:    0.00 PKD
ROOT
HETATM    1  C   UNL     1      -8.641  12.240  67.399  1.00  0.00    -0.178 C  
HETATM    2  C   UNL     1      -8.829  11.544  68.759  1.00  0.00    -0.047 C  
HETATM    3  C   UNL     1      -7.779  11.316  66.546  1.00  0.00    -0.125 C  
HETATM    4  C   UNL     1      -9.199  10.040  68.685  1.00  0.00    -0.152 C  
HETATM    5  N   UNL     1      -8.349   9.247  67.735  1.00  0.00    -0.116 NA 
HETATM    6  C   UNL     1      -8.403   9.907  66.413  1.00  0.00    -0.125 C  
HETATM    7  O   UNL     1     -11.098   6.902  67.394  1.00  0.00    -0.304 OA 
HETATM    8  C   UNL     1     -10.695   9.919  68.345  1.00  0.00    -0.271 C  
HETATM    9  C   UNL     1     -10.355   7.872  67.290  1.00  0.00    -0.307 C  
HETATM   10  C   UNL     1     -10.843   9.264  66.973  1.00  0.00    -0.077 C  
HETATM   11  C   UNL     1      -8.851   7.837  67.541  1.00  0.00    -0.124 C  
HETATM   12  C   UNL     1      -9.862   9.771  65.881  1.00  0.00    -0.352 C  
ENDROOT
BRANCH   1  13
HETATM   13  O   UNL     1      -9.777  12.478  66.545  1.00  0.00    -0.234 OA 
BRANCH  13  14
HETATM   14  C   UNL     1      -9.996  13.612  65.844  1.00  0.00    -0.291 C  
HETATM   15  O   UNL     1     -10.095  13.651  64.624  1.00  0.00    -0.357 OA 
BRANCH  14  16
HETATM   16  C   UNL     1      -9.984  14.802  66.702  1.00  0.00    -0.272 A  
HETATM   17  C   UNL     1      -9.271  16.644  67.861  1.00  0.00    -0.219 A  
HETATM   18  C   UNL     1      -8.848  15.621  67.006  1.00  0.00    -0.250 A  
HETATM   19  N   UNL     1     -10.610  16.436  68.114  1.00  0.00    -0.304 NA 
HETATM   20  C   UNL     1      -7.484  15.555  66.654  1.00  0.00     0.206 A  
HETATM   21  C   UNL     1     -11.048  15.323  67.443  1.00  0.00    -0.326 A  
HETATM   22  C   UNL     1      -6.612  16.535  67.121  1.00  0.00    -0.229 A  
HETATM   23  C   UNL     1      -7.069  17.572  67.930  1.00  0.00    -0.186 A  
HETATM   24  H   UNL     1     -11.190  17.024  68.712  1.00  0.00     0.000 HD 
HETATM   25  C   UNL     1      -8.408  17.642  68.327  1.00  0.00    -0.274 A  
ENDBRANCH  14  16
ENDBRANCH  13  14
ENDBRANCH   1  13
TORSDOF 3
ENDMDL
MODEL      206
REMARK 921   NORMALIZED FREE ENERGY PREDICTED BY IDOCK:   -4.29 KCAL/MOL
REMARK 922        TOTAL FREE ENERGY PREDICTED BY IDOCK:   -5.67 KCAL/MOL
REMARK 923 INTER-LIGAND FREE ENERGY PREDICTED BY IDOCK:   -4.86 KCAL/MOL
REMARK 924 INTRA-LIGAND FREE ENERGY PREDICTED BY IDOCK:   -0.81 KCAL/MOL
REMARK 927      BINDING AFFINITY PREDICTED BY RF-SCORE:    0.00 PKD
ROOT
HETATM    1  C   UNL     1      -8.866  10.217  68.167  1.00  0.00    -0.126 C  
HETATM    2  C   UNL     1      -8.281  11.559  67.694  1.00  0.00    -0.131 C  
HETATM    3  C   UNL     1      -9.902  10.539  69.238  1.00  0.00    -0.225 C  
HETATM    4  C   UNL     1      -9.325  12.670  67.409  1.00  0.00    -0.189 C  
HETATM    5  N   UNL     1     -10.358  12.829  68.486  1.00  0.00    -0.236 NA 
HETATM    6  C   UNL     1     -10.986  11.511  68.716  1.00  0.00    -0.222 C  
HETATM    7  O   UNL     1     -12.610  14.184  65.982  1.00  0.00    -0.478 OA 
HETATM    8  C   UNL     1      -9.970  12.396  66.039  1.00  0.00    -0.270 C  
HETATM    9  C   UNL     1     -11.948  13.434  66.692  1.00  0.00    -0.399 C  
HETATM   10  C   UNL     1     -11.451  12.083  66.238  1.00  0.00    -0.408 C  
HETATM   11  C   UNL     1     -11.465  13.779  68.097  1.00  0.00    -0.313 C  
HETATM   12  C   UNL     1     -11.780  11.139  67.427  1.00  0.00    -0.030 C  
ENDROOT
BRANCH   1  13
HETATM   13  O   UNL     1      -9.614   9.392  67.252  1.00  0.00    -0.142 OA 
BRANCH  13  14
HETATM   14  C   UNL     1      -9.261   8.145  66.866  1.00  0.00    -0.160 C  
HETATM   15  O   UNL     1      -8.747   7.886  65.785  1.00  0.00    -0.149 OA 
BRANCH  14  16
HETATM   16  C   UNL     1      -9.672   7.130  67.842  1.00  0.00    -0.156 A  
HETATM   17  C   UNL     1      -9.621   5.600  69.545  1.00  0.00    -0.147 A  
HETATM   18  C   UNL     1      -8.838   6.510  68.828  1.00  0.00    -0.125 A  
HETATM   19  N   UNL     1     -10.883   5.624  68.990  1.00  0.00    -0.242 NA 
HETATM   20  C   UNL     1      -7.468   6.619  69.146  1.00  0.00    -0.095 A  
HETATM   21  C   UNL     1     -10.925   6.521  67.954  1.00  0.00    -0.294 A  
HETATM   22  C   UNL     1      -6.950   5.863  70.194  1.00  0.00    -0.069 A  
HETATM   23  C   UNL     1      -7.763   5.002  70.925  1.00  0.00    -0.083 A  
HETATM   24  H   UNL     1     -11.671   5.057  69.305  1.00  0.00     0.000 HD 
HETATM   25  C   UNL     1      -9.116   4.844  70.608  1.00  0.00    -0.174 A  
ENDBRANCH  14  16
ENDBRANCH  13  14
ENDBRANCH   1  13
TORSDOF 3
ENDMDL
MODEL      207
REMARK 921   NORMALIZED FREE ENERGY PREDICTED BY IDOCK:   -4.27 KCAL/MOL
REMARK 922        TOTAL FREE ENERGY PREDICTED BY IDOCK:   -5.65 KCAL/MOL
REMARK 923 INTER-LIGAND FREE ENERGY PREDICTED BY IDOCK:   -5.05 KCAL/MOL
REMARK 924 INTRA-LIGAND FREE ENERGY PREDICTED BY IDOCK:   -0.59 KCAL/MOL
REMARK 927      BINDING AFFINITY PREDICTED BY RF-SCORE:    0.00 PKD
ROOT
HETATM    1  C   UNL     1     -10.544   6.172  67.290  1.00  0.00    -0.290 C  
HETATM    2  C   UNL     1     -10.766   5.213  66.106  1.00  0.00    -0.247 C  
HETATM    3  C   UNL     1     -10.194   5.310  68.497  1.00  0.00    -0.214 C  
HETATM    4  C   UNL     1      -9.692   4.107  65.943  1.00  0.00    -0.204 C  
HETATM    5  N   UNL     1      -9.351   3.393  67.219  1.00  0.00    -0.198 NA 
HETATM    6  C   UNL     1      -8.967   4.407  68.222  1.00  0.00    -0.119 C  
HETATM    7  O   UNL     1      -6.098   2.630  65.800  1.00  0.00    -0.022 OA 
HETATM    8  C   UNL     1      -8.445   4.727  65.288  1.00  0.00    -0.132 C  
HETATM    9  C   UNL     1      -7.051   3.186  66.337  1.00  0.00    -0.058 C  
HETATM   10  C   UNL     1      -7.285   4.676  66.279  1.00  0.00    -0.076 C  
HETATM   11  C   UNL     1      -8.175   2.459  67.067  1.00  0.00    -0.083 C  
HETATM   12  C   UNL     1      -7.637   5.062  67.742  1.00  0.00    -0.083 C  
ENDROOT
BRANCH   1  13
HETATM   13  O   UNL     1      -9.458   7.118  67.260  1.00  0.00    -0.132 OA 
BRANCH  13  14
HETATM   14  C   UNL     1      -9.410   8.220  66.479  1.00  0.00    -0.206 C  
HETATM   15  O   UNL     1      -8.759   8.296  65.444  1.00  0.00    -0.164 OA 
BRANCH  14  16
HETATM   16  C   UNL     1     -10.134   9.348  67.076  1.00  0.00    -0.304 A  
HETATM   17  C   UNL     1     -11.231  11.343  67.329  1.00  0.00    -0.304 A  
HETATM   18  C   UNL     1     -10.597  10.520  66.393  1.00  0.00    -0.218 A  
HETATM   19  N   UNL     1     -11.121  10.723  68.556  1.00  0.00    -0.241 NA 
HETATM   20  C   UNL     1     -10.497  10.968  65.059  1.00  0.00    -0.344 A  
HETATM   21  C   UNL     1     -10.448   9.536  68.425  1.00  0.00    -0.224 A  
HETATM   22  C   UNL     1     -11.074  12.184  64.703  1.00  0.00    -0.366 A  
HETATM   23  C   UNL     1     -11.743  12.960  65.645  1.00  0.00    -0.430 A  
HETATM   24  H   UNL     1     -11.488  11.093  69.433  1.00  0.00     0.000 HD 
HETATM   25  C   UNL     1     -11.826  12.561  66.983  1.00  0.00    -0.394 A  
ENDBRANCH  14  16
ENDBRANCH  13  14
ENDBRANCH   1  13
TORSDOF 3
ENDMDL
MODEL      208
REMARK 921   NORMALIZED FREE ENERGY PREDICTED BY IDOCK:   -4.27 KCAL/MOL
REMARK 922        TOTAL FREE ENERGY PREDICTED BY IDOCK:   -5.64 KCAL/MOL
REMARK 923 INTER-LIGAND FREE ENERGY PREDICTED BY IDOCK:   -5.08 KCAL/MOL
REMARK 924 INTRA-LIGAND FREE ENERGY PREDICTED BY IDOCK:   -0.57 KCAL/MOL
REMARK 927      BINDING AFFINITY PREDICTED BY RF-SCORE:    0.00 PKD
ROOT
HETATM    1  C   UNL     1      -8.713  10.202  66.526  1.00  0.00    -0.129 C  
HETATM    2  C   UNL     1      -7.753   9.249  67.260  1.00  0.00    -0.095 C  
HETATM    3  C   UNL     1      -9.878   9.356  66.025  1.00  0.00    -0.366 C  
HETATM    4  C   UNL     1      -8.430   8.259  68.243  1.00  0.00    -0.136 C  
HETATM    5  N   UNL     1      -9.629   7.557  67.675  1.00  0.00    -0.140 NA 
HETATM    6  C   UNL     1     -10.567   8.585  67.176  1.00  0.00    -0.243 C  
HETATM    7  O   UNL     1     -10.866   7.151  71.063  1.00  0.00    -0.234 OA 
HETATM    8  C   UNL     1      -8.773   9.013  69.540  1.00  0.00    -0.144 C  
HETATM    9  C   UNL     1     -10.574   7.598  69.959  1.00  0.00    -0.238 C  
HETATM   10  C   UNL     1     -10.291   9.058  69.702  1.00  0.00    -0.217 C  
HETATM   11  C   UNL     1     -10.375   6.749  68.708  1.00  0.00    -0.196 C  
HETATM   12  C   UNL     1     -11.092   9.379  68.411  1.00  0.00     0.019 C  
ENDROOT
BRANCH   1  13
HETATM   13  O   UNL     1      -9.384  11.252  67.250  1.00  0.00    -0.164 OA 
BRANCH  13  14
HETATM   14  C   UNL     1      -8.798  12.389  67.687  1.00  0.00    -0.177 C  
HETATM   15  O   UNL     1      -7.821  12.413  68.425  1.00  0.00    -0.138 OA 
BRANCH  14  16
HETATM   16  C   UNL     1      -9.539  13.585  67.271  1.00  0.00    -0.235 A  
HETATM   17  C   UNL     1     -10.039  15.737  66.669  1.00  0.00    -0.279 A  
HETATM   18  C   UNL     1      -8.992  14.890  67.048  1.00  0.00    -0.256 A  
HETATM   19  N   UNL     1     -11.198  14.991  66.701  1.00  0.00    -0.332 NA 
HETATM   20  C   UNL     1      -7.697  15.433  67.175  1.00  0.00    -0.246 A  
HETATM   21  C   UNL     1     -10.918  13.704  67.081  1.00  0.00    -0.288 A  
HETATM   22  C   UNL     1      -7.487  16.775  66.869  1.00  0.00    -0.257 A  
HETATM   23  C   UNL     1      -8.537  17.584  66.444  1.00  0.00    -0.273 A  
HETATM   24  H   UNL     1     -12.127  15.346  66.476  1.00  0.00     0.000 HD 
HETATM   25  C   UNL     1      -9.840  17.084  66.345  1.00  0.00    -0.312 A  
ENDBRANCH  14  16
ENDBRANCH  13  14
ENDBRANCH   1  13
TORSDOF 3
ENDMDL
MODEL      209
REMARK 921   NORMALIZED FREE ENERGY PREDICTED BY IDOCK:   -4.26 KCAL/MOL
REMARK 922        TOTAL FREE ENERGY PREDICTED BY IDOCK:   -5.64 KCAL/MOL
REMARK 923 INTER-LIGAND FREE ENERGY PREDICTED BY IDOCK:   -4.65 KCAL/MOL
REMARK 924 INTRA-LIGAND FREE ENERGY PREDICTED BY IDOCK:   -0.99 KCAL/MOL
REMARK 927      BINDING AFFINITY PREDICTED BY RF-SCORE:    0.00 PKD
ROOT
HETATM    1  C   UNL     1      -9.899   4.786  69.539  1.00  0.00    -0.222 C  
HETATM    2  C   UNL     1     -10.383   5.589  68.318  1.00  0.00    -0.237 C  
HETATM    3  C   UNL     1      -8.882   3.773  69.026  1.00  0.00    -0.152 C  
HETATM    4  C   UNL     1      -9.262   6.077  67.363  1.00  0.00    -0.109 C  
HETATM    5  N   UNL     1      -8.259   5.019  67.007  1.00  0.00    -0.107 NA 
HETATM    6  C   UNL     1      -7.722   4.456  68.264  1.00  0.00    -0.075 C  
HETATM    7  O   UNL     1      -5.843   7.661  66.406  1.00  0.00    -0.035 OA 
HETATM    8  C   UNL     1      -8.589   7.312  67.988  1.00  0.00    -0.125 C  
HETATM    9  C   UNL     1      -6.573   6.827  66.930  1.00  0.00    -0.044 C  
HETATM   10  C   UNL     1      -7.138   6.973  68.322  1.00  0.00    -0.082 C  
HETATM   11  C   UNL     1      -7.082   5.568  66.237  1.00  0.00    -0.072 C  
HETATM   12  C   UNL     1      -6.909   5.581  68.973  1.00  0.00    -0.055 C  
ENDROOT
BRANCH   1  13
HETATM   13  O   UNL     1      -9.173   5.444  70.596  1.00  0.00    -0.142 OA 
BRANCH  13  14
HETATM   14  C   UNL     1      -9.716   5.883  71.753  1.00  0.00    -0.155 C  
HETATM   15  O   UNL     1      -9.740   5.227  72.787  1.00  0.00    -0.148 OA 
BRANCH  14  16
HETATM   16  C   UNL     1     -10.373   7.185  71.593  1.00  0.00    -0.215 A  
HETATM   17  C   UNL     1     -11.978   8.816  71.485  1.00  0.00    -0.324 A  
HETATM   18  C   UNL     1     -11.775   7.451  71.719  1.00  0.00    -0.319 A  
HETATM   19  N   UNL     1     -10.749   9.363  71.181  1.00  0.00    -0.324 NA 
HETATM   20  C   UNL     1     -12.898   6.637  71.975  1.00  0.00    -0.157 A  
HETATM   21  C   UNL     1      -9.780   8.393  71.220  1.00  0.00    -0.189 A  
HETATM   22  C   UNL     1     -14.161   7.219  72.041  1.00  0.00    -0.370 A  
HETATM   23  C   UNL     1     -14.328   8.588  71.856  1.00  0.00    -0.536 A  
HETATM   24  H   UNL     1     -10.586  10.344  70.958  1.00  0.00     0.000 HD 
HETATM   25  C   UNL     1     -13.239   9.416  71.562  1.00  0.00    -0.456 A  
ENDBRANCH  14  16
ENDBRANCH  13  14
ENDBRANCH   1  13
TORSDOF 3
ENDMDL
MODEL      210
REMARK 921   NORMALIZED FREE ENERGY PREDICTED BY IDOCK:   -4.24 KCAL/MOL
REMARK 922        TOTAL FREE ENERGY PREDICTED BY IDOCK:   -5.61 KCAL/MOL
REMARK 923 INTER-LIGAND FREE ENERGY PREDICTED BY IDOCK:   -4.65 KCAL/MOL
REMARK 924 INTRA-LIGAND FREE ENERGY PREDICTED BY IDOCK:   -0.96 KCAL/MOL
REMARK 927      BINDING AFFINITY PREDICTED BY RF-SCORE:    0.00 PKD
ROOT
HETATM    1  C   UNL     1     -11.028   6.939  72.705  1.00  0.00    -0.268 C  
HETATM    2  C   UNL     1     -10.473   6.241  73.959  1.00  0.00    -0.279 C  
HETATM    3  C   UNL     1     -10.389   8.322  72.650  1.00  0.00    -0.374 C  
HETATM    4  C   UNL     1      -8.939   6.360  74.156  1.00  0.00    -0.149 C  
HETATM    5  N   UNL     1      -8.406   7.751  73.977  1.00  0.00    -0.211 NA 
HETATM    6  C   UNL     1      -8.844   8.242  72.653  1.00  0.00    -0.234 C  
HETATM    7  O   UNL     1      -5.200   6.296  73.094  1.00  0.00    -0.033 OA 
HETATM    8  C   UNL     1      -8.245   5.359  73.215  1.00  0.00    -0.115 C  
HETATM    9  C   UNL     1      -6.354   6.709  73.072  1.00  0.00    -0.062 C  
HETATM   10  C   UNL     1      -7.428   6.131  72.182  1.00  0.00    -0.095 C  
HETATM   11  C   UNL     1      -6.898   7.803  73.986  1.00  0.00    -0.099 C  
HETATM   12  C   UNL     1      -8.127   7.377  71.572  1.00  0.00    -0.100 C  
ENDROOT
BRANCH   1  13
HETATM   13  O   UNL     1     -10.737   6.412  71.395  1.00  0.00    -0.230 OA 
BRANCH  13  14
HETATM   14  C   UNL     1     -11.457   6.665  70.280  1.00  0.00    -0.391 C  
HETATM   15  O   UNL     1     -12.655   6.920  70.285  1.00  0.00    -0.045 OA 
BRANCH  14  16
HETATM   16  C   UNL     1     -10.663   6.484  69.060  1.00  0.00    -0.324 A  
HETATM   17  C   UNL     1      -9.568   6.902  67.092  1.00  0.00    -0.147 A  
HETATM   18  C   UNL     1     -10.331   7.497  68.102  1.00  0.00    -0.244 A  
HETATM   19  N   UNL     1      -9.471   5.560  67.393  1.00  0.00    -0.114 NA 
HETATM   20  C   UNL     1     -10.650   8.866  67.989  1.00  0.00    -0.226 A  
HETATM   21  C   UNL     1     -10.140   5.289  68.558  1.00  0.00    -0.165 A  
HETATM   22  C   UNL     1     -10.154   9.595  66.911  1.00  0.00    -0.290 A  
HETATM   23  C   UNL     1      -9.354   8.990  65.947  1.00  0.00    -0.306 A  
HETATM   24  H   UNL     1      -8.973   4.870  66.830  1.00  0.00     0.000 HD 
HETATM   25  C   UNL     1      -9.052   7.625  66.011  1.00  0.00    -0.152 A  
ENDBRANCH  14  16
ENDBRANCH  13  14
ENDBRANCH   1  13
TORSDOF 3
ENDMDL
MODEL      211
REMARK 921   NORMALIZED FREE ENERGY PREDICTED BY IDOCK:   -4.22 KCAL/MOL
REMARK 922        TOTAL FREE ENERGY PREDICTED BY IDOCK:   -5.59 KCAL/MOL
REMARK 923 INTER-LIGAND FREE ENERGY PREDICTED BY IDOCK:   -5.03 KCAL/MOL
REMARK 924 INTRA-LIGAND FREE ENERGY PREDICTED BY IDOCK:   -0.57 KCAL/MOL
REMARK 927      BINDING AFFINITY PREDICTED BY RF-SCORE:    0.00 PKD
ROOT
HETATM    1  C   UNL     1      -8.969  10.273  65.269  1.00  0.00    -0.186 C  
HETATM    2  C   UNL     1      -9.225  10.865  63.871  1.00  0.00    -0.222 C  
HETATM    3  C   UNL     1      -8.577  11.435  66.175  1.00  0.00    -0.128 C  
HETATM    4  C   UNL     1     -10.091  12.152  63.848  1.00  0.00    -0.361 C  
HETATM    5  N   UNL     1      -9.676  13.186  64.854  1.00  0.00     0.021 NA 
HETATM    6  C   UNL     1      -9.654  12.545  66.186  1.00  0.00    -0.228 C  
HETATM    7  O   UNL     1     -13.079  14.448  64.804  1.00  0.00    -0.548 OA 
HETATM    8  C   UNL     1     -11.567  11.753  64.018  1.00  0.00    -0.428 C  
HETATM    9  C   UNL     1     -12.067  13.791  65.025  1.00  0.00    -0.403 C  
HETATM   10  C   UNL     1     -12.086  12.315  65.339  1.00  0.00    -0.343 C  
HETATM   11  C   UNL     1     -10.646  14.339  64.938  1.00  0.00    -0.431 C  
HETATM   12  C   UNL     1     -11.123  12.173  66.550  1.00  0.00    -0.352 C  
ENDROOT
BRANCH   1  13
HETATM   13  O   UNL     1     -10.047   9.660  66.002  1.00  0.00    -0.283 OA 
BRANCH  13  14
HETATM   14  C   UNL     1      -9.974   8.468  66.636  1.00  0.00    -0.293 C  
HETATM   15  O   UNL     1     -10.947   7.765  66.880  1.00  0.00    -0.217 OA 
BRANCH  14  16
HETATM   16  C   UNL     1      -8.613   8.172  67.097  1.00  0.00    -0.124 A  
HETATM   17  C   UNL     1      -6.470   7.370  67.187  1.00  0.00    -0.060 A  
HETATM   18  C   UNL     1      -7.621   7.416  66.393  1.00  0.00    -0.088 A  
HETATM   19  N   UNL     1      -6.758   8.035  68.360  1.00  0.00    -0.065 NA 
HETATM   20  C   UNL     1      -7.618   6.732  65.160  1.00  0.00    -0.098 A  
HETATM   21  C   UNL     1      -8.046   8.504  68.331  1.00  0.00    -0.122 A  
HETATM   22  C   UNL     1      -6.460   6.080  64.745  1.00  0.00    -0.038 A  
HETATM   23  C   UNL     1      -5.312   6.093  65.531  1.00  0.00    -0.013 A  
HETATM   24  H   UNL     1      -6.108   8.160  69.135  1.00  0.00     0.000 HD 
HETATM   25  C   UNL     1      -5.296   6.730  66.777  1.00  0.00    -0.017 A  
ENDBRANCH  14  16
ENDBRANCH  13  14
ENDBRANCH   1  13
TORSDOF 3
ENDMDL
MODEL      212
REMARK 921   NORMALIZED FREE ENERGY PREDICTED BY IDOCK:   -4.22 KCAL/MOL
REMARK 922        TOTAL FREE ENERGY PREDICTED BY IDOCK:   -5.59 KCAL/MOL
REMARK 923 INTER-LIGAND FREE ENERGY PREDICTED BY IDOCK:   -4.73 KCAL/MOL
REMARK 924 INTRA-LIGAND FREE ENERGY PREDICTED BY IDOCK:   -0.86 KCAL/MOL
REMARK 927      BINDING AFFINITY PREDICTED BY RF-SCORE:    0.00 PKD
ROOT
HETATM    1  C   UNL     1      -9.644   8.758  68.856  1.00  0.00    -0.158 C  
HETATM    2  C   UNL     1      -9.816   7.229  68.837  1.00  0.00    -0.158 C  
HETATM    3  C   UNL     1     -10.897   9.336  69.504  1.00  0.00    -0.211 C  
HETATM    4  C   UNL     1     -10.323   6.606  70.164  1.00  0.00    -0.203 C  
HETATM    5  N   UNL     1     -11.498   7.320  70.765  1.00  0.00    -0.291 NA 
HETATM    6  C   UNL     1     -11.140   8.746  70.913  1.00  0.00    -0.268 C  
HETATM    7  O   UNL     1     -10.470   6.062  74.011  1.00  0.00    -0.271 OA 
HETATM    8  C   UNL     1      -9.143   6.524  71.149  1.00  0.00    -0.152 C  
HETATM    9  C   UNL     1     -10.573   6.711  72.976  1.00  0.00    -0.256 C  
HETATM   10  C   UNL     1      -9.420   7.444  72.336  1.00  0.00    -0.189 C  
HETATM   11  C   UNL     1     -11.847   6.811  72.143  1.00  0.00    -0.290 C  
HETATM   12  C   UNL     1     -10.007   8.837  71.979  1.00  0.00    -0.391 C  
ENDROOT
BRANCH   1  13
HETATM   13  O   UNL     1      -8.589   9.358  69.635  1.00  0.00    -0.140 OA 
BRANCH  13  14
HETATM   14  C   UNL     1      -7.407   9.786  69.139  1.00  0.00    -0.079 C  
HETATM   15  O   UNL     1      -6.475   9.042  68.861  1.00  0.00    -0.047 OA 
BRANCH  14  16
HETATM   16  C   UNL     1      -7.331  11.250  69.084  1.00  0.00    -0.104 A  
HETATM   17  C   UNL     1      -7.694  13.428  68.478  1.00  0.00    -0.124 A  
HETATM   18  C   UNL     1      -8.067  12.108  68.204  1.00  0.00    -0.161 A  
HETATM   19  N   UNL     1      -6.728  13.383  69.460  1.00  0.00    -0.285 NA 
HETATM   20  C   UNL     1      -8.994  11.869  67.169  1.00  0.00    -0.178 A  
HETATM   21  C   UNL     1      -6.483  12.082  69.820  1.00  0.00    -0.066 A  
HETATM   22  C   UNL     1      -9.549  12.950  66.488  1.00  0.00    -0.259 A  
HETATM   23  C   UNL     1      -9.199  14.256  66.815  1.00  0.00    -0.282 A  
HETATM   24  H   UNL     1      -6.263  14.197  69.860  1.00  0.00     0.000 HD 
HETATM   25  C   UNL     1      -8.254  14.524  67.811  1.00  0.00    -0.171 A  
ENDBRANCH  14  16
ENDBRANCH  13  14
ENDBRANCH   1  13
TORSDOF 3
ENDMDL
MODEL      213
REMARK 921   NORMALIZED FREE ENERGY PREDICTED BY IDOCK:   -4.19 KCAL/MOL
REMARK 922        TOTAL FREE ENERGY PREDICTED BY IDOCK:   -5.56 KCAL/MOL
REMARK 923 INTER-LIGAND FREE ENERGY PREDICTED BY IDOCK:   -4.74 KCAL/MOL
REMARK 924 INTRA-LIGAND FREE ENERGY PREDICTED BY IDOCK:   -0.82 KCAL/MOL
REMARK 927      BINDING AFFINITY PREDICTED BY RF-SCORE:    0.00 PKD
ROOT
HETATM    1  C   UNL     1      -7.937   7.996  70.154  1.00  0.00    -0.105 C  
HETATM    2  C   UNL     1      -8.808   9.250  70.350  1.00  0.00    -0.271 C  
HETATM    3  C   UNL     1      -7.969   7.227  71.469  1.00  0.00    -0.100 C  
HETATM    4  C   UNL     1     -10.178   9.002  71.035  1.00  0.00    -0.277 C  
HETATM    5  N   UNL     1     -10.100   8.145  72.265  1.00  0.00    -0.242 NA 
HETATM    6  C   UNL     1      -9.414   6.886  71.903  1.00  0.00    -0.141 C  
HETATM    7  O   UNL     1     -13.552   7.183  71.687  1.00  0.00    -0.377 OA 
HETATM    8  C   UNL     1     -11.147   8.415  69.993  1.00  0.00    -0.148 C  
HETATM    9  C   UNL     1     -12.330   7.276  71.643  1.00  0.00    -0.352 C  
HETATM   10  C   UNL     1     -11.517   6.991  70.404  1.00  0.00    -0.355 C  
HETATM   11  C   UNL     1     -11.460   7.765  72.797  1.00  0.00    -0.359 C  
HETATM   12  C   UNL     1     -10.340   6.115  70.915  1.00  0.00    -0.267 C  
ENDROOT
BRANCH   1  13
HETATM   13  O   UNL     1      -8.324   6.990  69.198  1.00  0.00    -0.123 OA 
BRANCH  13  14
HETATM   14  C   UNL     1      -7.725   6.782  68.005  1.00  0.00    -0.112 C  
HETATM   15  O   UNL     1      -6.745   6.063  67.850  1.00  0.00    -0.057 OA 
BRANCH  14  16
HETATM   16  C   UNL     1      -8.312   7.607  66.943  1.00  0.00    -0.124 A  
HETATM   17  C   UNL     1      -8.534   9.020  65.155  1.00  0.00    -0.167 A  
HETATM   18  C   UNL     1      -7.597   8.386  65.976  1.00  0.00    -0.085 A  
HETATM   19  N   UNL     1      -9.784   8.680  65.627  1.00  0.00    -0.438 NA 
HETATM   20  C   UNL     1      -6.226   8.636  65.755  1.00  0.00    -0.055 A  
HETATM   21  C   UNL     1      -9.668   7.850  66.712  1.00  0.00    -0.234 A  
HETATM   22  C   UNL     1      -5.846   9.459  64.698  1.00  0.00    -0.070 A  
HETATM   23  C   UNL     1      -6.798  10.036  63.863  1.00  0.00    -0.126 A  
HETATM   24  H   UNL     1     -10.666   9.000  65.227  1.00  0.00     0.000 HD 
HETATM   25  C   UNL     1      -8.166   9.838  64.081  1.00  0.00    -0.158 A  
ENDBRANCH  14  16
ENDBRANCH  13  14
ENDBRANCH   1  13
TORSDOF 3
ENDMDL
MODEL      214
REMARK 921   NORMALIZED FREE ENERGY PREDICTED BY IDOCK:   -4.18 KCAL/MOL
REMARK 922        TOTAL FREE ENERGY PREDICTED BY IDOCK:   -5.54 KCAL/MOL
REMARK 923 INTER-LIGAND FREE ENERGY PREDICTED BY IDOCK:   -4.64 KCAL/MOL
REMARK 924 INTRA-LIGAND FREE ENERGY PREDICTED BY IDOCK:   -0.90 KCAL/MOL
REMARK 927      BINDING AFFINITY PREDICTED BY RF-SCORE:    0.00 PKD
ROOT
HETATM    1  C   UNL     1      -8.792   8.755  67.477  1.00  0.00    -0.134 C  
HETATM    2  C   UNL     1      -8.230   9.436  68.737  1.00  0.00    -0.108 C  
HETATM    3  C   UNL     1     -10.009   7.950  67.915  1.00  0.00    -0.220 C  
HETATM    4  C   UNL     1      -9.287  10.119  69.645  1.00  0.00    -0.190 C  
HETATM    5  N   UNL     1     -10.491   9.269  69.926  1.00  0.00    -0.215 NA 
HETATM    6  C   UNL     1     -11.057   8.834  68.632  1.00  0.00     0.280 C  
HETATM    7  O   UNL     1     -12.387  12.318  70.462  1.00  0.00    -0.329 OA 
HETATM    8  C   UNL     1      -9.677  11.467  69.014  1.00  0.00     0.016 C  
HETATM    9  C   UNL     1     -11.802  11.366  69.958  1.00  0.00    -0.359 C  
HETATM   10  C   UNL     1     -11.146  11.417  68.600  1.00  0.00    -0.290 C  
HETATM   11  C   UNL     1     -11.581  10.024  70.648  1.00  0.00    -0.340 C  
HETATM   12  C   UNL     1     -11.601  10.103  67.908  1.00  0.00     0.329 C  
ENDROOT
BRANCH   1  13
HETATM   13  O   UNL     1      -9.321   9.553  66.399  1.00  0.00    -0.157 OA 
BRANCH  13  14
HETATM   14  C   UNL     1      -8.615  10.457  65.684  1.00  0.00    -0.167 C  
HETATM   15  O   UNL     1      -7.501  10.243  65.225  1.00  0.00    -0.141 OA 
BRANCH  14  16
HETATM   16  C   UNL     1      -9.290  11.758  65.625  1.00  0.00    -0.165 A  
HETATM   17  C   UNL     1     -10.753  13.429  65.066  1.00  0.00    -0.343 A  
HETATM   18  C   UNL     1     -10.437  12.087  64.832  1.00  0.00    -0.325 A  
HETATM   19  N   UNL     1      -9.806  13.924  65.937  1.00  0.00    -0.413 NA 
HETATM   20  C   UNL     1     -11.213  11.363  63.903  1.00  0.00    -0.364 A  
HETATM   21  C   UNL     1      -8.909  12.940  66.265  1.00  0.00     0.170 A  
HETATM   22  C   UNL     1     -12.297  11.985  63.289  1.00  0.00    -0.553 A  
HETATM   23  C   UNL     1     -12.621  13.307  63.578  1.00  0.00    -0.172 A  
HETATM   24  H   UNL     1      -9.777  14.882  66.286  1.00  0.00     0.000 HD 
HETATM   25  C   UNL     1     -11.847  14.063  64.467  1.00  0.00    -0.452 A  
ENDBRANCH  14  16
ENDBRANCH  13  14
ENDBRANCH   1  13
TORSDOF 3
ENDMDL
MODEL      215
REMARK 921   NORMALIZED FREE ENERGY PREDICTED BY IDOCK:   -4.17 KCAL/MOL
REMARK 922        TOTAL FREE ENERGY PREDICTED BY IDOCK:   -5.53 KCAL/MOL
REMARK 923 INTER-LIGAND FREE ENERGY PREDICTED BY IDOCK:   -4.70 KCAL/MOL
REMARK 924 INTRA-LIGAND FREE ENERGY PREDICTED BY IDOCK:   -0.83 KCAL/MOL
REMARK 927      BINDING AFFINITY PREDICTED BY RF-SCORE:    0.00 PKD
ROOT
HETATM    1  C   UNL     1      -9.131   7.572  72.770  1.00  0.00    -0.152 C  
HETATM    2  C   UNL     1      -8.768   6.924  74.118  1.00  0.00    -0.194 C  
HETATM    3  C   UNL     1      -7.848   7.634  71.950  1.00  0.00    -0.096 C  
HETATM    4  C   UNL     1      -7.884   5.653  74.022  1.00  0.00    -0.099 C  
HETATM    5  N   UNL     1      -6.704   5.796  73.105  1.00  0.00    -0.073 NA 
HETATM    6  C   UNL     1      -7.202   6.238  71.785  1.00  0.00    -0.087 C  
HETATM    7  O   UNL     1      -6.760   2.197  72.640  1.00  0.00    -0.017 OA 
HETATM    8  C   UNL     1      -8.776   4.465  73.620  1.00  0.00    -0.102 C  
HETATM    9  C   UNL     1      -6.992   3.399  72.572  1.00  0.00    -0.042 C  
HETATM   10  C   UNL     1      -8.350   3.967  72.240  1.00  0.00    -0.098 C  
HETATM   11  C   UNL     1      -5.976   4.493  72.884  1.00  0.00    -0.013 C  
HETATM   12  C   UNL     1      -8.053   5.074  71.192  1.00  0.00    -0.109 C  
ENDROOT
BRANCH   1  13
HETATM   13  O   UNL     1     -10.041   6.909  71.871  1.00  0.00    -0.184 OA 
BRANCH  13  14
HETATM   14  C   UNL     1     -11.389   6.952  71.960  1.00  0.00    -0.265 C  
HETATM   15  O   UNL     1     -12.090   5.970  72.174  1.00  0.00    -0.304 OA 
BRANCH  14  16
HETATM   16  C   UNL     1     -11.918   8.286  71.657  1.00  0.00    -0.346 A  
HETATM   17  C   UNL     1     -12.320  10.283  70.611  1.00  0.00    -0.325 A  
HETATM   18  C   UNL     1     -11.608   9.084  70.508  1.00  0.00    -0.209 A  
HETATM   19  N   UNL     1     -13.010  10.246  71.805  1.00  0.00    -0.444 NA 
HETATM   20  C   UNL     1     -10.749   8.902  69.405  1.00  0.00    -0.192 A  
HETATM   21  C   UNL     1     -12.762   9.064  72.454  1.00  0.00    -0.363 A  
HETATM   22  C   UNL     1     -10.675   9.892  68.428  1.00  0.00    -0.271 A  
HETATM   23  C   UNL     1     -11.434  11.054  68.529  1.00  0.00    -0.379 A  
HETATM   24  H   UNL     1     -13.615  10.989  72.153  1.00  0.00     0.000 HD 
HETATM   25  C   UNL     1     -12.266  11.280  69.631  1.00  0.00    -0.340 A  
ENDBRANCH  14  16
ENDBRANCH  13  14
ENDBRANCH   1  13
TORSDOF 3
ENDMDL
MODEL      216
REMARK 921   NORMALIZED FREE ENERGY PREDICTED BY IDOCK:   -4.15 KCAL/MOL
REMARK 922        TOTAL FREE ENERGY PREDICTED BY IDOCK:   -5.51 KCAL/MOL
REMARK 923 INTER-LIGAND FREE ENERGY PREDICTED BY IDOCK:   -4.60 KCAL/MOL
REMARK 924 INTRA-LIGAND FREE ENERGY PREDICTED BY IDOCK:   -0.91 KCAL/MOL
REMARK 927      BINDING AFFINITY PREDICTED BY RF-SCORE:    0.00 PKD
ROOT
HETATM    1  C   UNL     1      -9.851   8.468  67.559  1.00  0.00    -0.177 C  
HETATM    2  C   UNL     1     -10.308   9.462  66.477  1.00  0.00    -0.268 C  
HETATM    3  C   UNL     1      -9.345   7.227  66.833  1.00  0.00    -0.192 C  
HETATM    4  C   UNL     1      -9.327   9.643  65.290  1.00  0.00    -0.260 C  
HETATM    5  N   UNL     1      -8.813   8.353  64.720  1.00  0.00     0.025 NA 
HETATM    6  C   UNL     1      -8.223   7.568  65.824  1.00  0.00    -0.137 C  
HETATM    7  O   UNL     1      -5.876  10.152  63.572  1.00  0.00    -0.118 OA 
HETATM    8  C   UNL     1      -8.179  10.564  65.739  1.00  0.00    -0.160 C  
HETATM    9  C   UNL     1      -6.701   9.552  64.252  1.00  0.00    -0.101 C  
HETATM   10  C   UNL     1      -6.874   9.771  65.736  1.00  0.00    -0.098 C  
HETATM   11  C   UNL     1      -7.721   8.562  63.699  1.00  0.00    -0.142 C  
HETATM   12  C   UNL     1      -6.962   8.336  66.324  1.00  0.00    -0.066 C  
ENDROOT
BRANCH   1  13
HETATM   13  O   UNL     1      -8.743   8.796  68.420  1.00  0.00    -0.133 OA 
BRANCH  13  14
HETATM   14  C   UNL     1      -8.760   9.750  69.377  1.00  0.00    -0.174 C  
HETATM   15  O   UNL     1      -7.960  10.676  69.432  1.00  0.00    -0.154 OA 
BRANCH  14  16
HETATM   16  C   UNL     1      -9.773   9.481  70.404  1.00  0.00    -0.328 A  
HETATM   17  C   UNL     1     -10.896   8.532  72.160  1.00  0.00    -0.357 A  
HETATM   18  C   UNL     1      -9.737   8.435  71.382  1.00  0.00    -0.260 A  
HETATM   19  N   UNL     1     -11.643   9.572  71.649  1.00  0.00    -0.393 NA 
HETATM   20  C   UNL     1      -8.830   7.388  71.649  1.00  0.00    -0.125 A  
HETATM   21  C   UNL     1     -10.994  10.138  70.582  1.00  0.00    -0.285 A  
HETATM   22  C   UNL     1      -9.086   6.518  72.705  1.00  0.00    -0.142 A  
HETATM   23  C   UNL     1     -10.221   6.667  73.495  1.00  0.00    -0.300 A  
HETATM   24  H   UNL     1     -12.546   9.875  72.011  1.00  0.00     0.000 HD 
HETATM   25  C   UNL     1     -11.158   7.673  73.232  1.00  0.00    -0.254 A  
ENDBRANCH  14  16
ENDBRANCH  13  14
ENDBRANCH   1  13
TORSDOF 3
ENDMDL
MODEL      217
REMARK 921   NORMALIZED FREE ENERGY PREDICTED BY IDOCK:   -4.13 KCAL/MOL
REMARK 922        TOTAL FREE ENERGY PREDICTED BY IDOCK:   -5.49 KCAL/MOL
REMARK 923 INTER-LIGAND FREE ENERGY PREDICTED BY IDOCK:   -4.69 KCAL/MOL
REMARK 924 INTRA-LIGAND FREE ENERGY PREDICTED BY IDOCK:   -0.80 KCAL/MOL
REMARK 927      BINDING AFFINITY PREDICTED BY RF-SCORE:    0.00 PKD
ROOT
HETATM    1  C   UNL     1     -11.233   7.511  69.986  1.00  0.00    -0.157 C  
HETATM    2  C   UNL     1     -10.995   6.004  70.186  1.00  0.00    -0.429 C  
HETATM    3  C   UNL     1     -11.851   8.035  71.278  1.00  0.00    -0.321 C  
HETATM    4  C   UNL     1     -10.340   5.612  71.536  1.00  0.00    -0.222 C  
HETATM    5  N   UNL     1     -10.966   6.268  72.732  1.00  0.00    -0.250 NA 
HETATM    6  C   UNL     1     -10.962   7.729  72.506  1.00  0.00    -0.338 C  
HETATM    7  O   UNL     1      -7.804   5.879  74.470  1.00  0.00    -0.100 OA 
HETATM    8  C   UNL     1      -8.832   5.903  71.452  1.00  0.00    -0.137 C  
HETATM    9  C   UNL     1      -8.712   6.274  73.747  1.00  0.00    -0.123 C  
HETATM   10  C   UNL     1      -8.481   7.007  72.448  1.00  0.00    -0.122 C  
HETATM   11  C   UNL     1     -10.193   6.020  74.004  1.00  0.00    -0.288 C  
HETATM   12  C   UNL     1      -9.476   8.198  72.502  1.00  0.00    -0.339 C  
ENDROOT
BRANCH   1  13
HETATM   13  O   UNL     1     -10.116   8.401  69.796  1.00  0.00    -0.189 OA 
BRANCH  13  14
HETATM   14  C   UNL     1      -9.501   8.632  68.614  1.00  0.00    -0.142 C  
HETATM   15  O   UNL     1      -8.905   7.773  67.976  1.00  0.00    -0.125 OA 
BRANCH  14  16
HETATM   16  C   UNL     1      -9.532  10.052  68.246  1.00  0.00    -0.147 A  
HETATM   17  C   UNL     1      -8.939  12.249  67.991  1.00  0.00    -0.190 A  
HETATM   18  C   UNL     1      -8.506  11.019  68.498  1.00  0.00    -0.153 A  
HETATM   19  N   UNL     1     -10.207  12.056  67.485  1.00  0.00    -0.196 NA 
HETATM   20  C   UNL     1      -7.257  10.960  69.151  1.00  0.00    -0.118 A  
HETATM   21  C   UNL     1     -10.586  10.749  67.650  1.00  0.00    -0.231 A  
HETATM   22  C   UNL     1      -6.472  12.108  69.224  1.00  0.00    -0.111 A  
HETATM   23  C   UNL     1      -6.904  13.307  68.666  1.00  0.00    -0.099 A  
HETATM   24  H   UNL     1     -10.779  12.781  67.052  1.00  0.00     0.000 HD 
HETATM   25  C   UNL     1      -8.154  13.406  68.045  1.00  0.00    -0.160 A  
ENDBRANCH  14  16
ENDBRANCH  13  14
ENDBRANCH   1  13
TORSDOF 3
ENDMDL
MODEL      218
REMARK 921   NORMALIZED FREE ENERGY PREDICTED BY IDOCK:   -4.06 KCAL/MOL
REMARK 922        TOTAL FREE ENERGY PREDICTED BY IDOCK:   -5.40 KCAL/MOL
REMARK 923 INTER-LIGAND FREE ENERGY PREDICTED BY IDOCK:   -4.47 KCAL/MOL
REMARK 924 INTRA-LIGAND FREE ENERGY PREDICTED BY IDOCK:   -0.93 KCAL/MOL
REMARK 927      BINDING AFFINITY PREDICTED BY RF-SCORE:    0.00 PKD
ROOT
HETATM    1  C   UNL     1      -9.941   8.385  66.998  1.00  0.00    -0.253 C  
HETATM    2  C   UNL     1     -10.435   9.655  67.711  1.00  0.00    -0.309 C  
HETATM    3  C   UNL     1      -8.638   8.750  66.297  1.00  0.00    -0.144 C  
HETATM    4  C   UNL     1      -9.352  10.428  68.509  1.00  0.00    -0.160 C  
HETATM    5  N   UNL     1      -8.072  10.641  67.754  1.00  0.00    -0.110 NA 
HETATM    6  C   UNL     1      -7.594   9.324  67.284  1.00  0.00    -0.091 C  
HETATM    7  O   UNL     1      -6.349  10.850  70.941  1.00  0.00    -0.352 OA 
HETATM    8  C   UNL     1      -9.111   9.698  69.842  1.00  0.00    -0.250 C  
HETATM    9  C   UNL     1      -6.909  10.449  69.927  1.00  0.00    -0.143 C  
HETATM   10  C   UNL     1      -7.684   9.155  69.862  1.00  0.00    -0.087 C  
HETATM   11  C   UNL     1      -6.978  11.222  68.615  1.00  0.00    -0.084 C  
HETATM   12  C   UNL     1      -7.203   8.491  68.542  1.00  0.00    -0.081 C  
ENDROOT
BRANCH   1  13
HETATM   13  O   UNL     1      -9.563   7.225  67.766  1.00  0.00    -0.136 OA 
BRANCH  13  14
HETATM   14  C   UNL     1     -10.333   6.129  67.945  1.00  0.00    -0.203 C  
HETATM   15  O   UNL     1     -11.005   5.615  67.059  1.00  0.00    -0.237 OA 
BRANCH  14  16
HETATM   16  C   UNL     1     -10.362   5.699  69.348  1.00  0.00    -0.343 A  
HETATM   17  C   UNL     1      -9.951   4.537  71.278  1.00  0.00    -0.188 A  
HETATM   18  C   UNL     1      -9.636   4.602  69.917  1.00  0.00    -0.261 A  
HETATM   19  N   UNL     1     -10.874   5.530  71.530  1.00  0.00    -0.227 NA 
HETATM   20  C   UNL     1      -8.765   3.633  69.378  1.00  0.00    -0.131 A  
HETATM   21  C   UNL     1     -11.147   6.222  70.378  1.00  0.00    -0.352 A  
HETATM   22  C   UNL     1      -8.204   2.677  70.221  1.00  0.00    -0.065 A  
HETATM   23  C   UNL     1      -8.494   2.666  71.582  1.00  0.00    -0.087 A  
HETATM   24  H   UNL     1     -11.293   5.721  72.440  1.00  0.00     0.000 HD 
HETATM   25  C   UNL     1      -9.385   3.591  72.139  1.00  0.00    -0.178 A  
ENDBRANCH  14  16
ENDBRANCH  13  14
ENDBRANCH   1  13
TORSDOF 3
ENDMDL
MODEL      219
REMARK 921   NORMALIZED FREE ENERGY PREDICTED BY IDOCK:   -4.05 KCAL/MOL
REMARK 922        TOTAL FREE ENERGY PREDICTED BY IDOCK:   -5.39 KCAL/MOL
REMARK 923 INTER-LIGAND FREE ENERGY PREDICTED BY IDOCK:   -4.50 KCAL/MOL
REMARK 924 INTRA-LIGAND FREE ENERGY PREDICTED BY IDOCK:   -0.90 KCAL/MOL
REMARK 927      BINDING AFFINITY PREDICTED BY RF-SCORE:    0.00 PKD
ROOT
HETATM    1  C   UNL     1      -7.972   8.107  70.187  1.00  0.00    -0.107 C  
HETATM    2  C   UNL     1      -8.697   9.417  70.541  1.00  0.00    -0.276 C  
HETATM    3  C   UNL     1      -8.097   7.191  71.399  1.00  0.00    -0.106 C  
HETATM    4  C   UNL     1     -10.090   9.242  71.201  1.00  0.00    -0.304 C  
HETATM    5  N   UNL     1     -10.116   8.239  72.317  1.00  0.00    -0.271 NA 
HETATM    6  C   UNL     1      -9.574   6.965  71.800  1.00  0.00    -0.159 C  
HETATM    7  O   UNL     1     -13.651   7.748  71.653  1.00  0.00    -0.353 OA 
HETATM    8  C   UNL     1     -11.113   8.899  70.104  1.00  0.00    -0.217 C  
HETATM    9  C   UNL     1     -12.426   7.708  71.612  1.00  0.00    -0.335 C  
HETATM   10  C   UNL     1     -11.643   7.487  70.341  1.00  0.00    -0.172 C  
HETATM   11  C   UNL     1     -11.513   7.952  72.810  1.00  0.00    -0.368 C  
HETATM   12  C   UNL     1     -10.575   6.429  70.732  1.00  0.00    -0.288 C  
ENDROOT
BRANCH   1  13
HETATM   13  O   UNL     1      -8.464   7.274  69.119  1.00  0.00    -0.131 OA 
BRANCH  13  14
HETATM   14  C   UNL     1      -7.919   7.193  67.884  1.00  0.00    -0.115 C  
HETATM   15  O   UNL     1      -7.225   8.071  67.386  1.00  0.00    -0.084 OA 
BRANCH  14  16
HETATM   16  C   UNL     1      -8.350   5.986  67.170  1.00  0.00    -0.105 A  
HETATM   17  C   UNL     1      -8.964   3.827  66.715  1.00  0.00    -0.141 A  
HETATM   18  C   UNL     1      -8.564   4.690  67.742  1.00  0.00    -0.105 A  
HETATM   19  N   UNL     1      -8.951   4.555  65.544  1.00  0.00    -0.132 NA 
HETATM   20  C   UNL     1      -8.415   4.167  69.043  1.00  0.00    -0.101 A  
HETATM   21  C   UNL     1      -8.565   5.846  65.797  1.00  0.00    -0.154 A  
HETATM   22  C   UNL     1      -8.719   2.829  69.279  1.00  0.00    -0.134 A  
HETATM   23  C   UNL     1      -9.163   2.005  68.250  1.00  0.00    -0.235 A  
HETATM   24  H   UNL     1      -9.194   4.186  64.625  1.00  0.00     0.000 HD 
HETATM   25  C   UNL     1      -9.285   2.484  66.941  1.00  0.00    -0.102 A  
ENDBRANCH  14  16
ENDBRANCH  13  14
ENDBRANCH   1  13
TORSDOF 3
ENDMDL
MODEL      220
REMARK 921   NORMALIZED FREE ENERGY PREDICTED BY IDOCK:   -4.05 KCAL/MOL
REMARK 922        TOTAL FREE ENERGY PREDICTED BY IDOCK:   -5.39 KCAL/MOL
REMARK 923 INTER-LIGAND FREE ENERGY PREDICTED BY IDOCK:   -4.08 KCAL/MOL
REMARK 924 INTRA-LIGAND FREE ENERGY PREDICTED BY IDOCK:   -1.31 KCAL/MOL
REMARK 927      BINDING AFFINITY PREDICTED BY RF-SCORE:    0.00 PKD
ROOT
HETATM    1  C   UNL     1      -8.278   6.812  69.012  1.00  0.00    -0.117 C  
HETATM    2  C   UNL     1      -9.530   6.478  68.181  1.00  0.00    -0.114 C  
HETATM    3  C   UNL     1      -7.075   6.317  68.217  1.00  0.00    -0.083 C  
HETATM    4  C   UNL     1      -9.436   6.833  66.674  1.00  0.00    -0.165 C  
HETATM    5  N   UNL     1      -8.162   6.386  66.019  1.00  0.00    -0.120 NA 
HETATM    6  C   UNL     1      -7.031   6.932  66.798  1.00  0.00    -0.066 C  
HETATM    7  O   UNL     1      -8.604   9.042  63.585  1.00  0.00    -0.192 OA 
HETATM    8  C   UNL     1      -9.657   8.347  66.513  1.00  0.00    -0.304 C  
HETATM    9  C   UNL     1      -8.339   8.400  64.595  1.00  0.00    -0.127 C  
HETATM   10  C   UNL     1      -8.374   8.985  65.986  1.00  0.00    -0.126 C  
HETATM   11  C   UNL     1      -8.016   6.909  64.611  1.00  0.00    -0.112 C  
HETATM   12  C   UNL     1      -7.059   8.482  66.642  1.00  0.00    -0.077 C  
ENDROOT
BRANCH   1  13
HETATM   13  O   UNL     1      -7.931   8.186  69.274  1.00  0.00    -0.111 OA 
BRANCH  13  14
HETATM   14  C   UNL     1      -8.722   9.078  69.911  1.00  0.00    -0.156 C  
HETATM   15  O   UNL     1      -9.502   8.780  70.806  1.00  0.00    -0.175 OA 
BRANCH  14  16
HETATM   16  C   UNL     1      -8.620  10.420  69.326  1.00  0.00    -0.159 A  
HETATM   17  C   UNL     1      -9.158  12.392  68.294  1.00  0.00    -0.183 A  
HETATM   18  C   UNL     1      -9.684  11.170  68.728  1.00  0.00    -0.194 A  
HETATM   19  N   UNL     1      -7.808  12.376  68.573  1.00  0.00    -0.204 NA 
HETATM   20  C   UNL     1     -11.046  10.897  68.484  1.00  0.00    -0.311 A  
HETATM   21  C   UNL     1      -7.465  11.192  69.173  1.00  0.00    -0.109 A  
HETATM   22  C   UNL     1     -11.836  11.865  67.871  1.00  0.00    -0.308 A  
HETATM   23  C   UNL     1     -11.300  13.093  67.496  1.00  0.00    -0.336 A  
HETATM   24  H   UNL     1      -7.160  13.135  68.364  1.00  0.00     0.000 HD 
HETATM   25  C   UNL     1      -9.944  13.379  67.689  1.00  0.00    -0.229 A  
ENDBRANCH  14  16
ENDBRANCH  13  14
ENDBRANCH   1  13
TORSDOF 3
ENDMDL
MODEL      221
REMARK 921   NORMALIZED FREE ENERGY PREDICTED BY IDOCK:   -4.05 KCAL/MOL
REMARK 922        TOTAL FREE ENERGY PREDICTED BY IDOCK:   -5.38 KCAL/MOL
REMARK 923 INTER-LIGAND FREE ENERGY PREDICTED BY IDOCK:   -4.28 KCAL/MOL
REMARK 924 INTRA-LIGAND FREE ENERGY PREDICTED BY IDOCK:   -1.10 KCAL/MOL
REMARK 927      BINDING AFFINITY PREDICTED BY RF-SCORE:    0.00 PKD
ROOT
HETATM    1  C   UNL     1      -9.872   5.373  69.198  1.00  0.00    -0.177 C  
HETATM    2  C   UNL     1      -9.380   4.685  70.483  1.00  0.00    -0.222 C  
HETATM    3  C   UNL     1     -11.168   6.094  69.551  1.00  0.00    -0.482 C  
HETATM    4  C   UNL     1      -9.417   5.566  71.759  1.00  0.00    -0.149 C  
HETATM    5  N   UNL     1     -10.706   6.310  71.951  1.00  0.00    -0.222 NA 
HETATM    6  C   UNL     1     -10.973   7.087  70.722  1.00  0.00    -0.255 C  
HETATM    7  O   UNL     1      -8.874   8.778  73.882  1.00  0.00    -0.038 OA 
HETATM    8  C   UNL     1      -8.209   6.520  71.731  1.00  0.00    -0.112 C  
HETATM    9  C   UNL     1      -9.362   8.117  72.971  1.00  0.00    -0.265 C  
HETATM   10  C   UNL     1      -8.711   7.957  71.619  1.00  0.00    -0.153 C  
HETATM   11  C   UNL     1     -10.644   7.300  73.089  1.00  0.00    -0.355 C  
HETATM   12  C   UNL     1      -9.871   8.183  70.611  1.00  0.00    -0.196 C  
ENDROOT
BRANCH   1  13
HETATM   13  O   UNL     1      -9.090   6.423  68.594  1.00  0.00    -0.128 OA 
BRANCH  13  14
HETATM   14  C   UNL     1      -9.129   6.765  67.287  1.00  0.00    -0.119 C  
HETATM   15  O   UNL     1      -8.966   5.971  66.369  1.00  0.00    -0.136 OA 
BRANCH  14  16
HETATM   16  C   UNL     1      -9.272   8.213  67.102  1.00  0.00    -0.175 A  
HETATM   17  C   UNL     1      -8.796  10.450  66.974  1.00  0.00    -0.136 A  
HETATM   18  C   UNL     1      -8.235   9.194  67.227  1.00  0.00    -0.114 A  
HETATM   19  N   UNL     1     -10.142  10.255  66.747  1.00  0.00    -0.208 NA 
HETATM   20  C   UNL     1      -6.869   9.122  67.573  1.00  0.00    -0.077 A  
HETATM   21  C   UNL     1     -10.447   8.922  66.840  1.00  0.00    -0.234 A  
HETATM   22  C   UNL     1      -6.111  10.290  67.600  1.00  0.00    -0.056 A  
HETATM   23  C   UNL     1      -6.683  11.521  67.295  1.00  0.00    -0.112 A  
HETATM   24  H   UNL     1     -10.812  10.995  66.539  1.00  0.00     0.000 HD 
HETATM   25  C   UNL     1      -8.043  11.629  66.985  1.00  0.00    -0.164 A  
ENDBRANCH  14  16
ENDBRANCH  13  14
ENDBRANCH   1  13
TORSDOF 3
ENDMDL
MODEL      222
REMARK 921   NORMALIZED FREE ENERGY PREDICTED BY IDOCK:   -4.04 KCAL/MOL
REMARK 922        TOTAL FREE ENERGY PREDICTED BY IDOCK:   -5.38 KCAL/MOL
REMARK 923 INTER-LIGAND FREE ENERGY PREDICTED BY IDOCK:   -4.64 KCAL/MOL
REMARK 924 INTRA-LIGAND FREE ENERGY PREDICTED BY IDOCK:   -0.74 KCAL/MOL
REMARK 927      BINDING AFFINITY PREDICTED BY RF-SCORE:    0.00 PKD
ROOT
HETATM    1  C   UNL     1      -9.151  17.514  67.760  1.00  0.00    -0.249 C  
HETATM    2  C   UNL     1      -7.796  18.035  68.268  1.00  0.00    -0.292 C  
HETATM    3  C   UNL     1      -8.854  16.556  66.613  1.00  0.00    -0.288 C  
HETATM    4  C   UNL     1      -6.704  16.951  68.468  1.00  0.00    -0.168 C  
HETATM    5  N   UNL     1      -6.571  15.999  67.315  1.00  0.00    -0.187 NA 
HETATM    6  C   UNL     1      -7.902  15.416  67.047  1.00  0.00    -0.209 C  
HETATM    7  O   UNL     1      -5.250  13.540  69.635  1.00  0.00    -0.083 OA 
HETATM    8  C   UNL     1      -6.985  16.210  69.787  1.00  0.00    -0.006 C  
HETATM    9  C   UNL     1      -5.990  14.267  68.981  1.00  0.00    -0.090 C  
HETATM   10  C   UNL     1      -7.328  14.755  69.478  1.00  0.00    -0.148 C  
HETATM   11  C   UNL     1      -5.641  14.848  67.615  1.00  0.00     0.021 C  
HETATM   12  C   UNL     1      -8.284  14.535  68.274  1.00  0.00    -0.149 C  
ENDROOT
BRANCH   1  13
HETATM   13  O   UNL     1      -9.987  16.715  68.621  1.00  0.00    -0.237 OA 
BRANCH  13  14
HETATM   14  C   UNL     1     -11.286  16.422  68.386  1.00  0.00    -0.324 C  
HETATM   15  O   UNL     1     -11.992  17.037  67.598  1.00  0.00     0.896 OA 
BRANCH  14  16
HETATM   16  C   UNL     1     -11.778  15.359  69.269  1.00  0.00    -0.367 A  
HETATM   17  C   UNL     1     -12.273  13.292  70.124  1.00  0.00    -0.306 A  
HETATM   18  C   UNL     1     -11.673  13.948  69.043  1.00  0.00    -0.378 A  
HETATM   19  N   UNL     1     -12.771  14.265  70.964  1.00  0.00    -0.339 NA 
HETATM   20  C   UNL     1     -11.151  13.171  67.988  1.00  0.00    -0.290 A  
HETATM   21  C   UNL     1     -12.501  15.510  70.456  1.00  0.00    -0.427 A  
HETATM   22  C   UNL     1     -11.198  11.782  68.076  1.00  0.00    -0.324 A  
HETATM   23  C   UNL     1     -11.755  11.155  69.187  1.00  0.00    -0.408 A  
HETATM   24  H   UNL     1     -13.267  14.086  71.837  1.00  0.00     0.000 HD 
HETATM   25  C   UNL     1     -12.315  11.898  70.231  1.00  0.00    -0.287 A  
ENDBRANCH  14  16
ENDBRANCH  13  14
ENDBRANCH   1  13
TORSDOF 3
ENDMDL
MODEL      223
REMARK 921   NORMALIZED FREE ENERGY PREDICTED BY IDOCK:   -4.03 KCAL/MOL
REMARK 922        TOTAL FREE ENERGY PREDICTED BY IDOCK:   -5.37 KCAL/MOL
REMARK 923 INTER-LIGAND FREE ENERGY PREDICTED BY IDOCK:   -4.06 KCAL/MOL
REMARK 924 INTRA-LIGAND FREE ENERGY PREDICTED BY IDOCK:   -1.31 KCAL/MOL
REMARK 927      BINDING AFFINITY PREDICTED BY RF-SCORE:    0.00 PKD
ROOT
HETATM    1  C   UNL     1      -8.654   9.905  69.612  1.00  0.00    -0.194 C  
HETATM    2  C   UNL     1     -10.186   9.762  69.570  1.00  0.00    -0.238 C  
HETATM    3  C   UNL     1      -8.110   8.639  70.264  1.00  0.00    -0.109 C  
HETATM    4  C   UNL     1     -10.707   8.388  69.074  1.00  0.00    -0.080 C  
HETATM    5  N   UNL     1     -10.026   7.211  69.711  1.00  0.00    -0.176 NA 
HETATM    6  C   UNL     1      -8.569   7.365  69.517  1.00  0.00    -0.134 C  
HETATM    7  O   UNL     1     -10.864   5.265  66.763  1.00  0.00    -0.232 OA 
HETATM    8  C   UNL     1     -10.597   8.347  67.540  1.00  0.00    -0.285 C  
HETATM    9  C   UNL     1     -10.334   6.034  67.558  1.00  0.00    -0.210 C  
HETATM   10  C   UNL     1      -9.584   7.276  67.141  1.00  0.00    -0.203 C  
HETATM   11  C   UNL     1     -10.416   5.899  69.075  1.00  0.00    -0.265 C  
HETATM   12  C   UNL     1      -8.283   7.237  67.990  1.00  0.00    -0.120 C  
ENDROOT
BRANCH   1  13
HETATM   13  O   UNL     1      -7.900   9.971  68.386  1.00  0.00    -0.087 OA 
BRANCH  13  14
HETATM   14  C   UNL     1      -7.767  11.072  67.615  1.00  0.00    -0.112 C  
HETATM   15  O   UNL     1      -8.088  12.199  67.973  1.00  0.00    -0.136 OA 
BRANCH  14  16
HETATM   16  C   UNL     1      -7.304  10.744  66.262  1.00  0.00    -0.138 A  
HETATM   17  C   UNL     1      -7.287  10.264  64.022  1.00  0.00    -0.063 A  
HETATM   18  C   UNL     1      -8.125  10.574  65.099  1.00  0.00    -0.112 A  
HETATM   19  N   UNL     1      -6.000  10.201  64.513  1.00  0.00    -0.121 NA 
HETATM   20  C   UNL     1      -9.517  10.619  64.881  1.00  0.00    -0.293 A  
HETATM   21  C   UNL     1      -5.996  10.465  65.858  1.00  0.00    -0.105 A  
HETATM   22  C   UNL     1     -10.012  10.409  63.596  1.00  0.00    -0.204 A  
HETATM   23  C   UNL     1      -9.153  10.154  62.532  1.00  0.00    -0.302 A  
HETATM   24  H   UNL     1      -5.173   9.988  63.956  1.00  0.00     0.000 HD 
HETATM   25  C   UNL     1      -7.770  10.065  62.724  1.00  0.00    -0.137 A  
ENDBRANCH  14  16
ENDBRANCH  13  14
ENDBRANCH   1  13
TORSDOF 3
ENDMDL
MODEL      224
REMARK 921   NORMALIZED FREE ENERGY PREDICTED BY IDOCK:   -4.02 KCAL/MOL
REMARK 922        TOTAL FREE ENERGY PREDICTED BY IDOCK:   -5.35 KCAL/MOL
REMARK 923 INTER-LIGAND FREE ENERGY PREDICTED BY IDOCK:   -4.26 KCAL/MOL
REMARK 924 INTRA-LIGAND FREE ENERGY PREDICTED BY IDOCK:   -1.09 KCAL/MOL
REMARK 927      BINDING AFFINITY PREDICTED BY RF-SCORE:    0.00 PKD
ROOT
HETATM    1  C   UNL     1      -7.410  14.862  68.366  1.00  0.00    -0.114 C  
HETATM    2  C   UNL     1      -7.597  15.248  66.888  1.00  0.00    -0.051 C  
HETATM    3  C   UNL     1      -8.547  15.517  69.141  1.00  0.00    -0.246 C  
HETATM    4  C   UNL     1      -9.044  15.107  66.348  1.00  0.00    -0.296 C  
HETATM    5  N   UNL     1     -10.092  15.699  67.245  1.00  0.00    -0.251 NA 
HETATM    6  C   UNL     1      -9.932  15.105  68.589  1.00  0.00    -0.220 C  
HETATM    7  O   UNL     1     -12.486  13.384  65.802  1.00  0.00    -0.451 OA 
HETATM    8  C   UNL     1      -9.317  13.621  66.059  1.00  0.00    -0.029 C  
HETATM    9  C   UNL     1     -11.592  13.893  66.468  1.00  0.00    -0.369 C  
HETATM   10  C   UNL     1     -10.409  13.122  67.002  1.00  0.00    -0.249 C  
HETATM   11  C   UNL     1     -11.496  15.381  66.790  1.00  0.00    -0.045 C  
HETATM   12  C   UNL     1     -10.284  13.591  68.477  1.00  0.00    -0.229 C  
ENDROOT
BRANCH   1  13
HETATM   13  O   UNL     1      -7.513  13.483  68.771  1.00  0.00    -0.109 OA 
BRANCH  13  14
HETATM   14  C   UNL     1      -6.598  12.525  68.504  1.00  0.00    -0.077 C  
HETATM   15  O   UNL     1      -5.806  12.580  67.571  1.00  0.00    -0.121 OA 
BRANCH  14  16
HETATM   16  C   UNL     1      -6.742  11.364  69.388  1.00  0.00    -0.122 A  
HETATM   17  C   UNL     1      -7.544   9.448  70.355  1.00  0.00    -0.145 A  
HETATM   18  C   UNL     1      -7.777  10.374  69.332  1.00  0.00    -0.158 A  
HETATM   19  N   UNL     1      -6.432   9.878  71.047  1.00  0.00    -0.291 NA 
HETATM   20  C   UNL     1      -8.917  10.209  68.519  1.00  0.00    -0.127 A  
HETATM   21  C   UNL     1      -5.951  11.036  70.493  1.00  0.00    -0.116 A  
HETATM   22  C   UNL     1      -9.744   9.106  68.720  1.00  0.00    -0.167 A  
HETATM   23  C   UNL     1      -9.461   8.172  69.712  1.00  0.00    -0.159 A  
HETATM   24  H   UNL     1      -6.025   9.402  71.852  1.00  0.00     0.000 HD 
HETATM   25  C   UNL     1      -8.359   8.329  70.560  1.00  0.00    -0.124 A  
ENDBRANCH  14  16
ENDBRANCH  13  14
ENDBRANCH   1  13
TORSDOF 3
ENDMDL
MODEL      225
REMARK 921   NORMALIZED FREE ENERGY PREDICTED BY IDOCK:   -4.01 KCAL/MOL
REMARK 922        TOTAL FREE ENERGY PREDICTED BY IDOCK:   -5.35 KCAL/MOL
REMARK 923 INTER-LIGAND FREE ENERGY PREDICTED BY IDOCK:   -4.51 KCAL/MOL
REMARK 924 INTRA-LIGAND FREE ENERGY PREDICTED BY IDOCK:   -0.83 KCAL/MOL
REMARK 927      BINDING AFFINITY PREDICTED BY RF-SCORE:    0.00 PKD
ROOT
HETATM    1  C   UNL     1      -7.451  14.968  69.343  1.00  0.00    -0.196 C  
HETATM    2  C   UNL     1      -6.936  16.252  68.671  1.00  0.00    -0.148 C  
HETATM    3  C   UNL     1      -8.841  15.280  69.884  1.00  0.00     0.147 C  
HETATM    4  C   UNL     1      -7.953  16.964  67.741  1.00  0.00    -0.180 C  
HETATM    5  N   UNL     1      -9.319  17.126  68.341  1.00  0.00    -0.264 NA 
HETATM    6  C   UNL     1      -9.789  15.793  68.774  1.00  0.00    -0.214 C  
HETATM    7  O   UNL     1     -10.671  17.219  64.974  1.00  0.00    -0.708 OA 
HETATM    8  C   UNL     1      -8.005  16.209  66.402  1.00  0.00    -0.252 C  
HETATM    9  C   UNL     1     -10.214  16.855  66.052  1.00  0.00    -0.336 C  
HETATM   10  C   UNL     1      -9.394  15.600  66.227  1.00  0.00    -0.358 C  
HETATM   11  C   UNL     1     -10.332  17.646  67.350  1.00  0.00    -0.360 C  
HETATM   12  C   UNL     1      -9.994  14.929  67.493  1.00  0.00    -0.219 C  
ENDROOT
BRANCH   1  13
HETATM   13  O   UNL     1      -7.685  13.783  68.556  1.00  0.00    -0.131 OA 
BRANCH  13  14
HETATM   14  C   UNL     1      -6.721  12.956  68.095  1.00  0.00    -0.096 C  
HETATM   15  O   UNL     1      -5.525  13.221  68.121  1.00  0.00    -0.082 OA 
BRANCH  14  16
HETATM   16  C   UNL     1      -7.281  11.759  67.458  1.00  0.00    -0.123 A  
HETATM   17  C   UNL     1      -8.491   9.848  67.097  1.00  0.00    -0.121 A  
HETATM   18  C   UNL     1      -8.228  10.851  68.035  1.00  0.00    -0.121 A  
HETATM   19  N   UNL     1      -7.700  10.103  65.997  1.00  0.00    -0.114 NA 
HETATM   20  C   UNL     1      -8.855  10.777  69.296  1.00  0.00    -0.039 A  
HETATM   21  C   UNL     1      -6.952  11.233  66.206  1.00  0.00     0.003 A  
HETATM   22  C   UNL     1      -9.755   9.745  69.550  1.00  0.00    -0.228 A  
HETATM   23  C   UNL     1     -10.038   8.789  68.580  1.00  0.00    -0.207 A  
HETATM   24  H   UNL     1      -7.675   9.534  65.151  1.00  0.00     0.000 HD 
HETATM   25  C   UNL     1      -9.403   8.814  67.334  1.00  0.00    -0.166 A  
ENDBRANCH  14  16
ENDBRANCH  13  14
ENDBRANCH   1  13
TORSDOF 3
ENDMDL
MODEL      226
REMARK 921   NORMALIZED FREE ENERGY PREDICTED BY IDOCK:   -4.01 KCAL/MOL
REMARK 922        TOTAL FREE ENERGY PREDICTED BY IDOCK:   -5.34 KCAL/MOL
REMARK 923 INTER-LIGAND FREE ENERGY PREDICTED BY IDOCK:   -4.81 KCAL/MOL
REMARK 924 INTRA-LIGAND FREE ENERGY PREDICTED BY IDOCK:   -0.53 KCAL/MOL
REMARK 927      BINDING AFFINITY PREDICTED BY RF-SCORE:    0.00 PKD
ROOT
HETATM    1  C   UNL     1      -9.706   9.060  68.609  1.00  0.00    -0.160 C  
HETATM    2  C   UNL     1     -10.056   8.112  67.448  1.00  0.00    -0.298 C  
HETATM    3  C   UNL     1      -8.187   9.069  68.729  1.00  0.00    -0.117 C  
HETATM    4  C   UNL     1      -9.210   8.303  66.162  1.00  0.00    -0.192 C  
HETATM    5  N   UNL     1      -7.733   8.403  66.412  1.00  0.00    -0.093 NA 
HETATM    6  C   UNL     1      -7.508   9.478  67.400  1.00  0.00    -0.091 C  
HETATM    7  O   UNL     1      -7.444  10.295  63.328  1.00  0.00    -0.144 OA 
HETATM    8  C   UNL     1      -9.742   9.532  65.403  1.00  0.00    -0.314 C  
HETATM    9  C   UNL     1      -7.643   9.954  64.489  1.00  0.00    -0.139 C  
HETATM   10  C   UNL     1      -8.663  10.612  65.386  1.00  0.00    -0.195 C  
HETATM   11  C   UNL     1      -6.956   8.777  65.173  1.00  0.00    -0.079 C  
HETATM   12  C   UNL     1      -7.909  10.825  66.727  1.00  0.00    -0.135 C  
ENDROOT
BRANCH   1  13
HETATM   13  O   UNL     1     -10.018  10.464  68.515  1.00  0.00    -0.156 OA 
BRANCH  13  14
HETATM   14  C   UNL     1     -11.264  10.976  68.405  1.00  0.00    -0.274 C  
HETATM   15  O   UNL     1     -11.746  11.375  67.352  1.00  0.00    -0.574 OA 
BRANCH  14  16
HETATM   16  C   UNL     1     -11.923  11.105  69.709  1.00  0.00    -0.428 A  
HETATM   17  C   UNL     1     -12.917  10.591  71.707  1.00  0.00    -0.476 A  
HETATM   18  C   UNL     1     -12.322  10.033  70.571  1.00  0.00    -0.282 A  
HETATM   19  N   UNL     1     -12.926  11.958  71.531  1.00  0.00    -0.387 NA 
HETATM   20  C   UNL     1     -12.261   8.628  70.462  1.00  0.00     0.199 A  
HETATM   21  C   UNL     1     -12.354  12.282  70.328  1.00  0.00    -0.189 A  
HETATM   22  C   UNL     1     -12.742   7.842  71.506  1.00  0.00    -0.342 A  
HETATM   23  C   UNL     1     -13.282   8.424  72.648  1.00  0.00    -0.109 A  
HETATM   24  H   UNL     1     -13.304  12.631  72.198  1.00  0.00     0.000 HD 
HETATM   25  C   UNL     1     -13.392   9.814  72.769  1.00  0.00     0.168 A  
ENDBRANCH  14  16
ENDBRANCH  13  14
ENDBRANCH   1  13
TORSDOF 3
ENDMDL
MODEL      227
REMARK 921   NORMALIZED FREE ENERGY PREDICTED BY IDOCK:   -3.99 KCAL/MOL
REMARK 922        TOTAL FREE ENERGY PREDICTED BY IDOCK:   -5.33 KCAL/MOL
REMARK 923 INTER-LIGAND FREE ENERGY PREDICTED BY IDOCK:   -4.56 KCAL/MOL
REMARK 924 INTRA-LIGAND FREE ENERGY PREDICTED BY IDOCK:   -0.76 KCAL/MOL
REMARK 927      BINDING AFFINITY PREDICTED BY RF-SCORE:    0.00 PKD
ROOT
HETATM    1  C   UNL     1      -9.140   6.980  67.158  1.00  0.00    -0.128 C  
HETATM    2  C   UNL     1     -10.585   7.452  66.917  1.00  0.00    -0.375 C  
HETATM    3  C   UNL     1      -8.273   7.654  66.102  1.00  0.00    -0.124 C  
HETATM    4  C   UNL     1     -10.751   8.975  66.679  1.00  0.00     0.027 C  
HETATM    5  N   UNL     1      -9.775   9.550  65.694  1.00  0.00    -0.289 NA 
HETATM    6  C   UNL     1      -8.411   9.194  66.140  1.00  0.00    -0.129 C  
HETATM    7  O   UNL     1     -10.169  12.763  67.336  1.00  0.00    -0.219 OA 
HETATM    8  C   UNL     1     -10.677   9.694  68.038  1.00  0.00    -0.284 C  
HETATM    9  C   UNL     1      -9.831  11.621  67.043  1.00  0.00    -0.193 C  
HETATM   10  C   UNL     1      -9.435  10.583  68.064  1.00  0.00    -0.157 C  
HETATM   11  C   UNL     1      -9.834  11.056  65.626  1.00  0.00    -0.239 C  
HETATM   12  C   UNL     1      -8.145   9.946  67.479  1.00  0.00    -0.110 C  
ENDROOT
BRANCH   1  13
HETATM   13  O   UNL     1      -8.462   7.327  68.382  1.00  0.00    -0.124 OA 
BRANCH  13  14
HETATM   14  C   UNL     1      -8.161   6.460  69.375  1.00  0.00    -0.118 C  
HETATM   15  O   UNL     1      -7.297   5.596  69.287  1.00  0.00    -0.070 OA 
BRANCH  14  16
HETATM   16  C   UNL     1      -9.066   6.601  70.520  1.00  0.00    -0.152 A  
HETATM   17  C   UNL     1     -10.416   6.105  72.303  1.00  0.00    -0.198 A  
HETATM   18  C   UNL     1      -9.594   5.538  71.324  1.00  0.00    -0.198 A  
HETATM   19  N   UNL     1     -10.432   7.466  72.083  1.00  0.00    -0.204 NA 
HETATM   20  C   UNL     1      -9.471   4.134  71.276  1.00  0.00    -0.230 A  
HETATM   21  C   UNL     1      -9.645   7.777  71.004  1.00  0.00    -0.159 A  
HETATM   22  C   UNL     1     -10.123   3.360  72.232  1.00  0.00    -0.219 A  
HETATM   23  C   UNL     1     -10.894   3.953  73.227  1.00  0.00    -0.297 A  
HETATM   24  H   UNL     1     -10.953   8.142  72.640  1.00  0.00     0.000 HD 
HETATM   25  C   UNL     1     -11.066   5.340  73.278  1.00  0.00    -0.376 A  
ENDBRANCH  14  16
ENDBRANCH  13  14
ENDBRANCH   1  13
TORSDOF 3
ENDMDL
MODEL      228
REMARK 921   NORMALIZED FREE ENERGY PREDICTED BY IDOCK:   -3.97 KCAL/MOL
REMARK 922        TOTAL FREE ENERGY PREDICTED BY IDOCK:   -5.30 KCAL/MOL
REMARK 923 INTER-LIGAND FREE ENERGY PREDICTED BY IDOCK:   -4.50 KCAL/MOL
REMARK 924 INTRA-LIGAND FREE ENERGY PREDICTED BY IDOCK:   -0.79 KCAL/MOL
REMARK 927      BINDING AFFINITY PREDICTED BY RF-SCORE:    0.00 PKD
ROOT
HETATM    1  C   UNL     1      -8.961  11.097  65.626  1.00  0.00    -0.184 C  
HETATM    2  C   UNL     1      -7.536  10.526  65.739  1.00  0.00    -0.142 C  
HETATM    3  C   UNL     1      -9.907  10.034  66.173  1.00  0.00    -0.309 C  
HETATM    4  C   UNL     1      -7.199   9.858  67.098  1.00  0.00    -0.086 C  
HETATM    5  N   UNL     1      -8.251   8.907  67.589  1.00  0.00    -0.110 NA 
HETATM    6  C   UNL     1      -9.541   9.628  67.621  1.00  0.00    -0.142 C  
HETATM    7  O   UNL     1      -7.086   9.528  70.970  1.00  0.00    -0.250 OA 
HETATM    8  C   UNL     1      -6.906  10.963  68.128  1.00  0.00    -0.067 C  
HETATM    9  C   UNL     1      -7.637   9.613  69.878  1.00  0.00    -0.138 C  
HETATM   10  C   UNL     1      -7.976  10.926  69.216  1.00  0.00    -0.076 C  
HETATM   11  C   UNL     1      -7.987   8.420  68.993  1.00  0.00    -0.111 C  
HETATM   12  C   UNL     1      -9.433  10.733  68.714  1.00  0.00    -0.187 C  
ENDROOT
BRANCH   1  13
HETATM   13  O   UNL     1      -9.334  12.263  66.385  1.00  0.00    -0.223 OA 
BRANCH  13  14
HETATM   14  C   UNL     1     -10.230  13.194  65.987  1.00  0.00    -0.286 C  
HETATM   15  O   UNL     1     -11.353  12.927  65.577  1.00  0.00    -0.294 OA 
BRANCH  14  16
HETATM   16  C   UNL     1      -9.660  14.545  65.994  1.00  0.00    -0.305 A  
HETATM   17  C   UNL     1      -8.407  16.378  66.558  1.00  0.00    -0.302 A  
HETATM   18  C   UNL     1      -8.662  15.044  66.893  1.00  0.00    -0.285 A  
HETATM   19  N   UNL     1      -9.252  16.704  65.518  1.00  0.00    -0.349 NA 
HETATM   20  C   UNL     1      -7.980  14.482  67.992  1.00  0.00    -0.136 A  
HETATM   21  C   UNL     1     -10.025  15.623  65.182  1.00  0.00    -0.083 A  
HETATM   22  C   UNL     1      -7.038  15.248  68.674  1.00  0.00    -0.116 A  
HETATM   23  C   UNL     1      -6.767  16.557  68.287  1.00  0.00    -0.138 A  
HETATM   24  H   UNL     1      -9.295  17.617  65.065  1.00  0.00     0.000 HD 
HETATM   25  C   UNL     1      -7.454  17.155  67.226  1.00  0.00    -0.186 A  
ENDBRANCH  14  16
ENDBRANCH  13  14
ENDBRANCH   1  13
TORSDOF 3
ENDMDL
MODEL      229
REMARK 921   NORMALIZED FREE ENERGY PREDICTED BY IDOCK:   -3.97 KCAL/MOL
REMARK 922        TOTAL FREE ENERGY PREDICTED BY IDOCK:   -5.29 KCAL/MOL
REMARK 923 INTER-LIGAND FREE ENERGY PREDICTED BY IDOCK:   -4.63 KCAL/MOL
REMARK 924 INTRA-LIGAND FREE ENERGY PREDICTED BY IDOCK:   -0.67 KCAL/MOL
REMARK 927      BINDING AFFINITY PREDICTED BY RF-SCORE:    0.00 PKD
ROOT
HETATM    1  C   UNL     1      -8.449   8.013  68.702  1.00  0.00    -0.128 C  
HETATM    2  C   UNL     1      -8.567   8.193  67.178  1.00  0.00    -0.124 C  
HETATM    3  C   UNL     1      -7.897   9.319  69.259  1.00  0.00    -0.085 C  
HETATM    4  C   UNL     1      -9.209   9.528  66.719  1.00  0.00    -0.149 C  
HETATM    5  N   UNL     1      -8.658  10.741  67.411  1.00  0.00    -0.126 NA 
HETATM    6  C   UNL     1      -8.778  10.530  68.869  1.00  0.00    -0.154 C  
HETATM    7  O   UNL     1     -11.805  12.422  66.745  1.00  0.00    -0.493 OA 
HETATM    8  C   UNL     1     -10.735   9.421  66.888  1.00  0.00    -0.174 C  
HETATM    9  C   UNL     1     -10.921  11.718  67.221  1.00  0.00    -0.267 C  
HETATM   10  C   UNL     1     -11.190  10.422  67.947  1.00  0.00    -0.332 C  
HETATM   11  C   UNL     1      -9.428  11.997  67.086  1.00  0.00    -0.187 C  
HETATM   12  C   UNL     1     -10.297  10.505  69.216  1.00  0.00    -0.248 C  
ENDROOT
BRANCH   1  13
HETATM   13  O   UNL     1      -9.633   7.812  69.500  1.00  0.00    -0.160 OA 
BRANCH  13  14
HETATM   14  C   UNL     1     -10.367   6.678  69.526  1.00  0.00    -0.202 C  
HETATM   15  O   UNL     1     -11.292   6.447  68.757  1.00  0.00    -0.327 OA 
BRANCH  14  16
HETATM   16  C   UNL     1     -10.004   5.812  70.653  1.00  0.00    -0.251 A  
HETATM   17  C   UNL     1      -9.228   5.093  72.684  1.00  0.00    -0.134 A  
HETATM   18  C   UNL     1      -9.417   6.230  71.892  1.00  0.00    -0.160 A  
HETATM   19  N   UNL     1      -9.641   4.006  71.942  1.00  0.00    -0.142 NA 
HETATM   20  C   UNL     1      -8.995   7.479  72.393  1.00  0.00    -0.172 A  
HETATM   21  C   UNL     1     -10.089   4.419  70.713  1.00  0.00    -0.129 A  
HETATM   22  C   UNL     1      -8.455   7.552  73.674  1.00  0.00    -0.229 A  
HETATM   23  C   UNL     1      -8.325   6.412  74.461  1.00  0.00    -0.139 A  
HETATM   24  H   UNL     1      -9.616   3.038  72.260  1.00  0.00     0.000 HD 
HETATM   25  C   UNL     1      -8.699   5.154  73.978  1.00  0.00    -0.117 A  
ENDBRANCH  14  16
ENDBRANCH  13  14
ENDBRANCH   1  13
TORSDOF 3
ENDMDL
MODEL      230
REMARK 921   NORMALIZED FREE ENERGY PREDICTED BY IDOCK:   -3.92 KCAL/MOL
REMARK 922        TOTAL FREE ENERGY PREDICTED BY IDOCK:   -5.24 KCAL/MOL
REMARK 923 INTER-LIGAND FREE ENERGY PREDICTED BY IDOCK:   -4.60 KCAL/MOL
REMARK 924 INTRA-LIGAND FREE ENERGY PREDICTED BY IDOCK:   -0.64 KCAL/MOL
REMARK 927      BINDING AFFINITY PREDICTED BY RF-SCORE:    0.00 PKD
ROOT
HETATM    1  C   UNL     1     -10.492  10.917  68.515  1.00  0.00    -0.188 C  
HETATM    2  C   UNL     1     -10.941   9.850  67.501  1.00  0.00    -0.239 C  
HETATM    3  C   UNL     1     -10.863  10.395  69.898  1.00  0.00    -0.353 C  
HETATM    4  C   UNL     1     -10.569   8.390  67.870  1.00  0.00    -0.154 C  
HETATM    5  N   UNL     1     -10.887   8.019  69.289  1.00  0.00    -0.126 NA 
HETATM    6  C   UNL     1     -10.239   9.008  70.177  1.00  0.00    -0.197 C  
HETATM    7  O   UNL     1      -8.272   5.509  69.108  1.00  0.00    -0.094 OA 
HETATM    8  C   UNL     1      -9.083   8.166  67.543  1.00  0.00    -0.147 C  
HETATM    9  C   UNL     1      -8.891   6.561  69.218  1.00  0.00    -0.132 C  
HETATM   10  C   UNL     1      -8.321   7.906  68.840  1.00  0.00    -0.127 C  
HETATM   11  C   UNL     1     -10.343   6.664  69.673  1.00  0.00    -0.194 C  
HETATM   12  C   UNL     1      -8.697   8.827  70.033  1.00  0.00    -0.146 C  
ENDROOT
BRANCH   1  13
HETATM   13  O   UNL     1      -9.093  11.226  68.667  1.00  0.00    -0.172 OA 
BRANCH  13  14
HETATM   14  C   UNL     1      -8.339  11.879  67.754  1.00  0.00    -0.149 C  
HETATM   15  O   UNL     1      -7.122  11.768  67.670  1.00  0.00    -0.091 OA 
BRANCH  14  16
HETATM   16  C   UNL     1      -9.133  12.819  66.956  1.00  0.00    -0.220 A  
HETATM   17  C   UNL     1     -10.326  14.667  66.318  1.00  0.00    -0.294 A  
HETATM   18  C   UNL     1      -9.610  14.103  67.378  1.00  0.00    -0.229 A  
HETATM   19  N   UNL     1     -10.330  13.745  65.293  1.00  0.00    -0.348 NA 
HETATM   20  C   UNL     1      -9.525  14.817  68.591  1.00  0.00    -0.213 A  
HETATM   21  C   UNL     1      -9.637  12.622  65.667  1.00  0.00    -0.066 A  
HETATM   22  C   UNL     1     -10.106  16.079  68.681  1.00  0.00    -0.220 A  
HETATM   23  C   UNL     1     -10.769  16.640  67.594  1.00  0.00    -0.306 A  
HETATM   24  H   UNL     1     -10.782  13.878  64.389  1.00  0.00     0.000 HD 
HETATM   25  C   UNL     1     -10.903  15.940  66.389  1.00  0.00    -0.193 A  
ENDBRANCH  14  16
ENDBRANCH  13  14
ENDBRANCH   1  13
TORSDOF 3
ENDMDL
MODEL      231
REMARK 921   NORMALIZED FREE ENERGY PREDICTED BY IDOCK:   -3.90 KCAL/MOL
REMARK 922        TOTAL FREE ENERGY PREDICTED BY IDOCK:   -5.22 KCAL/MOL
REMARK 923 INTER-LIGAND FREE ENERGY PREDICTED BY IDOCK:   -4.68 KCAL/MOL
REMARK 924 INTRA-LIGAND FREE ENERGY PREDICTED BY IDOCK:   -0.54 KCAL/MOL
REMARK 927      BINDING AFFINITY PREDICTED BY RF-SCORE:    0.00 PKD
ROOT
HETATM    1  C   UNL     1      -9.752  10.895  68.935  1.00  0.00    -0.187 C  
HETATM    2  C   UNL     1      -8.860  11.866  68.141  1.00  0.00    -0.178 C  
HETATM    3  C   UNL     1     -11.127  10.923  68.278  1.00  0.00    -0.324 C  
HETATM    4  C   UNL     1      -8.950  11.734  66.598  1.00  0.00    -0.195 C  
HETATM    5  N   UNL     1     -10.354  11.667  66.072  1.00  0.00    -0.234 NA 
HETATM    6  C   UNL     1     -11.054  10.570  66.773  1.00  0.00     0.011 C  
HETATM    7  O   UNL     1      -9.076   9.873  63.188  1.00  0.00    -0.244 OA 
HETATM    8  C   UNL     1      -8.120  10.514  66.161  1.00  0.00    -0.145 C  
HETATM    9  C   UNL     1      -9.483  10.174  64.305  1.00  0.00    -0.305 C  
HETATM   10  C   UNL     1      -9.055   9.464  65.565  1.00  0.00    -0.270 C  
HETATM   11  C   UNL     1     -10.409  11.349  64.598  1.00  0.00    -0.307 C  
HETATM   12  C   UNL     1     -10.381   9.233  66.340  1.00  0.00    -0.238 C  
ENDROOT
BRANCH   1  13
HETATM   13  O   UNL     1      -9.448   9.487  68.956  1.00  0.00    -0.151 OA 
BRANCH  13  14
HETATM   14  C   UNL     1      -9.818   8.628  69.931  1.00  0.00    -0.183 C  
HETATM   15  O   UNL     1     -10.436   8.961  70.934  1.00  0.00    -0.205 OA 
BRANCH  14  16
HETATM   16  C   UNL     1      -9.293   7.277  69.704  1.00  0.00    -0.153 A  
HETATM   17  C   UNL     1      -8.888   5.033  69.917  1.00  0.00    -0.102 A  
HETATM   18  C   UNL     1      -9.605   6.103  70.463  1.00  0.00    -0.192 A  
HETATM   19  N   UNL     1      -8.124   5.538  68.887  1.00  0.00    -0.095 NA 
HETATM   20  C   UNL     1     -10.412   5.867  71.596  1.00  0.00    -0.285 A  
HETATM   21  C   UNL     1      -8.339   6.887  68.760  1.00  0.00    -0.121 A  
HETATM   22  C   UNL     1     -10.513   4.574  72.103  1.00  0.00    -0.192 A  
HETATM   23  C   UNL     1      -9.829   3.518  71.510  1.00  0.00    -0.219 A  
HETATM   24  H   UNL     1      -7.492   4.990  68.305  1.00  0.00     0.000 HD 
HETATM   25  C   UNL     1      -8.991   3.727  70.408  1.00  0.00    -0.163 A  
ENDBRANCH  14  16
ENDBRANCH  13  14
ENDBRANCH   1  13
TORSDOF 3
ENDMDL
MODEL      232
REMARK 921   NORMALIZED FREE ENERGY PREDICTED BY IDOCK:   -3.90 KCAL/MOL
REMARK 922        TOTAL FREE ENERGY PREDICTED BY IDOCK:   -5.22 KCAL/MOL
REMARK 923 INTER-LIGAND FREE ENERGY PREDICTED BY IDOCK:   -4.05 KCAL/MOL
REMARK 924 INTRA-LIGAND FREE ENERGY PREDICTED BY IDOCK:   -1.17 KCAL/MOL
REMARK 927      BINDING AFFINITY PREDICTED BY RF-SCORE:    0.00 PKD
ROOT
HETATM    1  C   UNL     1      -9.730   4.072  67.656  1.00  0.00    -0.109 C  
HETATM    2  C   UNL     1     -10.266   4.730  66.372  1.00  0.00    -0.308 C  
HETATM    3  C   UNL     1      -8.505   3.259  67.258  1.00  0.00    -0.106 C  
HETATM    4  C   UNL     1      -9.191   5.396  65.474  1.00  0.00    -0.081 C  
HETATM    5  N   UNL     1      -7.981   4.541  65.233  1.00  0.00    -0.097 NA 
HETATM    6  C   UNL     1      -7.442   4.130  66.546  1.00  0.00    -0.084 C  
HETATM    7  O   UNL     1      -6.073   7.579  64.680  1.00  0.00    -0.037 OA 
HETATM    8  C   UNL     1      -8.813   6.756  66.088  1.00  0.00    -0.161 C  
HETATM    9  C   UNL     1      -6.669   6.636  65.190  1.00  0.00    -0.050 C  
HETATM   10  C   UNL     1      -7.353   6.713  66.533  1.00  0.00    -0.074 C  
HETATM   11  C   UNL     1      -6.876   5.282  64.519  1.00  0.00    -0.048 C  
HETATM   12  C   UNL     1      -6.913   5.411  67.258  1.00  0.00    -0.065 C  
ENDROOT
BRANCH   1  13
HETATM   13  O   UNL     1      -9.223   4.889  68.730  1.00  0.00    -0.108 OA 
BRANCH  13  14
HETATM   14  C   UNL     1      -9.792   5.008  69.950  1.00  0.00    -0.226 C  
HETATM   15  O   UNL     1      -9.847   4.098  70.768  1.00  0.00    -0.192 OA 
BRANCH  14  16
HETATM   16  C   UNL     1     -10.436   6.314  70.132  1.00  0.00    -0.278 A  
HETATM   17  C   UNL     1     -10.791   8.575  70.213  1.00  0.00    -0.238 A  
HETATM   18  C   UNL     1      -9.834   7.597  69.922  1.00  0.00    -0.184 A  
HETATM   19  N   UNL     1     -11.929   7.919  70.632  1.00  0.00    -0.483 NA 
HETATM   20  C   UNL     1      -8.540   8.010  69.544  1.00  0.00    -0.136 A  
HETATM   21  C   UNL     1     -11.726   6.563  70.610  1.00  0.00    -0.374 A  
HETATM   22  C   UNL     1      -8.268   9.370  69.420  1.00  0.00    -0.119 A  
HETATM   23  C   UNL     1      -9.253  10.321  69.666  1.00  0.00    -0.155 A  
HETATM   24  H   UNL     1     -12.795   8.375  70.917  1.00  0.00     0.000 HD 
HETATM   25  C   UNL     1     -10.535   9.944  70.079  1.00  0.00    -0.331 A  
ENDBRANCH  14  16
ENDBRANCH  13  14
ENDBRANCH   1  13
TORSDOF 3
ENDMDL
MODEL      233
REMARK 921   NORMALIZED FREE ENERGY PREDICTED BY IDOCK:   -3.87 KCAL/MOL
REMARK 922        TOTAL FREE ENERGY PREDICTED BY IDOCK:   -5.18 KCAL/MOL
REMARK 923 INTER-LIGAND FREE ENERGY PREDICTED BY IDOCK:   -3.80 KCAL/MOL
REMARK 924 INTRA-LIGAND FREE ENERGY PREDICTED BY IDOCK:   -1.37 KCAL/MOL
REMARK 927      BINDING AFFINITY PREDICTED BY RF-SCORE:    0.00 PKD
ROOT
HETATM    1  C   UNL     1      -7.173   5.800  70.694  1.00  0.00    -0.082 C  
HETATM    2  C   UNL     1      -7.663   7.063  69.966  1.00  0.00    -0.104 C  
HETATM    3  C   UNL     1      -7.583   5.945  72.155  1.00  0.00    -0.101 C  
HETATM    4  C   UNL     1      -9.119   7.490  70.291  1.00  0.00    -0.154 C  
HETATM    5  N   UNL     1      -9.439   7.499  71.757  1.00  0.00    -0.144 NA 
HETATM    6  C   UNL     1      -9.107   6.168  72.306  1.00  0.00    -0.137 C  
HETATM    7  O   UNL     1     -12.926   6.982  70.891  1.00  0.00    -0.273 OA 
HETATM    8  C   UNL     1     -10.083   6.586  69.503  1.00  0.00    -0.203 C  
HETATM    9  C   UNL     1     -11.733   6.824  71.127  1.00  0.00    -0.345 C  
HETATM   10  C   UNL     1     -10.894   5.746  70.487  1.00  0.00    -0.348 C  
HETATM   11  C   UNL     1     -10.905   7.731  72.031  1.00  0.00    -0.245 C  
HETATM   12  C   UNL     1     -10.089   5.139  71.670  1.00  0.00    -0.262 C  
ENDROOT
BRANCH   1  13
HETATM   13  O   UNL     1      -7.716   4.510  70.349  1.00  0.00    -0.052 OA 
BRANCH  13  14
HETATM   14  C   UNL     1      -7.239   3.704  69.374  1.00  0.00    -0.049 C  
HETATM   15  O   UNL     1      -6.183   3.089  69.453  1.00  0.00    -0.027 OA 
BRANCH  14  16
HETATM   16  C   UNL     1      -8.075   3.744  68.169  1.00  0.00    -0.085 A  
HETATM   17  C   UNL     1      -8.878   4.281  66.093  1.00  0.00    -0.116 A  
HETATM   18  C   UNL     1      -7.844   4.538  66.999  1.00  0.00    -0.098 A  
HETATM   19  N   UNL     1      -9.742   3.395  66.702  1.00  0.00    -0.412 NA 
HETATM   20  C   UNL     1      -6.859   5.485  66.649  1.00  0.00    -0.063 A  
HETATM   21  C   UNL     1      -9.286   3.080  67.956  1.00  0.00    -0.198 A  
HETATM   22  C   UNL     1      -6.914   6.094  65.398  1.00  0.00    -0.056 A  
HETATM   23  C   UNL     1      -7.926   5.783  64.495  1.00  0.00    -0.126 A  
HETATM   24  H   UNL     1     -10.595   3.029  66.281  1.00  0.00     0.000 HD 
HETATM   25  C   UNL     1      -8.938   4.876  64.828  1.00  0.00    -0.125 A  
ENDBRANCH  14  16
ENDBRANCH  13  14
ENDBRANCH   1  13
TORSDOF 3
ENDMDL
MODEL      234
REMARK 921   NORMALIZED FREE ENERGY PREDICTED BY IDOCK:   -3.85 KCAL/MOL
REMARK 922        TOTAL FREE ENERGY PREDICTED BY IDOCK:   -5.15 KCAL/MOL
REMARK 923 INTER-LIGAND FREE ENERGY PREDICTED BY IDOCK:   -4.12 KCAL/MOL
REMARK 924 INTRA-LIGAND FREE ENERGY PREDICTED BY IDOCK:   -1.04 KCAL/MOL
REMARK 927      BINDING AFFINITY PREDICTED BY RF-SCORE:    0.00 PKD
ROOT
HETATM    1  C   UNL     1      -8.509   8.106  68.093  1.00  0.00    -0.126 C  
HETATM    2  C   UNL     1      -9.944   8.659  68.041  1.00  0.00    -0.221 C  
HETATM    3  C   UNL     1      -7.867   8.416  66.746  1.00  0.00    -0.094 C  
HETATM    4  C   UNL     1     -10.079  10.093  67.466  1.00  0.00    -0.201 C  
HETATM    5  N   UNL     1      -9.320  10.313  66.189  1.00  0.00    -0.163 NA 
HETATM    6  C   UNL     1      -7.912   9.928  66.422  1.00  0.00    -0.111 C  
HETATM    7  O   UNL     1      -9.164  13.845  67.012  1.00  0.00    -0.231 OA 
HETATM    8  C   UNL     1      -9.664  11.099  68.554  1.00  0.00    -0.196 C  
HETATM    9  C   UNL     1      -8.962  12.637  66.954  1.00  0.00    -0.213 C  
HETATM   10  C   UNL     1      -8.403  11.831  68.101  1.00  0.00    -0.156 C  
HETATM   11  C   UNL     1      -9.313  11.759  65.757  1.00  0.00    -0.185 C  
HETATM   12  C   UNL     1      -7.312  10.941  67.444  1.00  0.00    -0.099 C  
ENDROOT
BRANCH   1  13
HETATM   13  O   UNL     1      -7.556   8.656  69.024  1.00  0.00    -0.087 OA 
BRANCH  13  14
HETATM   14  C   UNL     1      -7.717   8.698  70.365  1.00  0.00    -0.081 C  
HETATM   15  O   UNL     1      -7.592   9.715  71.036  1.00  0.00    -0.326 OA 
BRANCH  14  16
HETATM   16  C   UNL     1      -7.942   7.364  70.934  1.00  0.00    -0.097 A  
HETATM   17  C   UNL     1      -8.926   5.581  71.982  1.00  0.00    -0.134 A  
HETATM   18  C   UNL     1      -9.132   6.908  71.587  1.00  0.00    -0.139 A  
HETATM   19  N   UNL     1      -7.637   5.247  71.625  1.00  0.00    -0.100 NA 
HETATM   20  C   UNL     1     -10.358   7.525  71.912  1.00  0.00    -0.226 A  
HETATM   21  C   UNL     1      -7.026   6.312  71.015  1.00  0.00    -0.068 A  
HETATM   22  C   UNL     1     -11.342   6.786  72.563  1.00  0.00    -0.292 A  
HETATM   23  C   UNL     1     -11.131   5.453  72.898  1.00  0.00    -0.360 A  
HETATM   24  H   UNL     1      -7.202   4.340  71.791  1.00  0.00     0.000 HD 
HETATM   25  C   UNL     1      -9.911   4.823  72.624  1.00  0.00    -0.211 A  
ENDBRANCH  14  16
ENDBRANCH  13  14
ENDBRANCH   1  13
TORSDOF 3
ENDMDL
MODEL      235
REMARK 921   NORMALIZED FREE ENERGY PREDICTED BY IDOCK:   -3.84 KCAL/MOL
REMARK 922        TOTAL FREE ENERGY PREDICTED BY IDOCK:   -5.15 KCAL/MOL
REMARK 923 INTER-LIGAND FREE ENERGY PREDICTED BY IDOCK:   -4.48 KCAL/MOL
REMARK 924 INTRA-LIGAND FREE ENERGY PREDICTED BY IDOCK:   -0.67 KCAL/MOL
REMARK 927      BINDING AFFINITY PREDICTED BY RF-SCORE:    0.00 PKD
ROOT
HETATM    1  C   UNL     1     -10.702  11.129  65.226  1.00  0.00    -0.203 C  
HETATM    2  C   UNL     1     -10.350  10.335  63.956  1.00  0.00     0.293 C  
HETATM    3  C   UNL     1     -10.454  10.201  66.410  1.00  0.00    -0.210 C  
HETATM    4  C   UNL     1      -9.014   9.549  64.017  1.00  0.00    -0.188 C  
HETATM    5  N   UNL     1      -8.833   8.751  65.275  1.00  0.00    -0.187 NA 
HETATM    6  C   UNL     1      -9.003   9.664  66.425  1.00  0.00    -0.152 C  
HETATM    7  O   UNL     1      -5.244   8.997  64.788  1.00  0.00    -0.041 OA 
HETATM    8  C   UNL     1      -7.855  10.536  63.798  1.00  0.00     0.014 C  
HETATM    9  C   UNL     1      -6.414   9.226  65.073  1.00  0.00    -0.070 C  
HETATM   10  C   UNL     1      -7.015  10.610  65.071  1.00  0.00     0.093 C  
HETATM   11  C   UNL     1      -7.451   8.154  65.392  1.00  0.00    -0.082 C  
HETATM   12  C   UNL     1      -7.819  10.677  66.398  1.00  0.00    -0.144 C  
ENDROOT
BRANCH   1  13
HETATM   13  O   UNL     1      -9.938  12.297  65.584  1.00  0.00    -0.250 OA 
BRANCH  13  14
HETATM   14  C   UNL     1     -10.353  13.574  65.426  1.00  0.00    -0.319 C  
HETATM   15  O   UNL     1     -10.205  14.216  64.394  1.00  0.00    -0.272 OA 
BRANCH  14  16
HETATM   16  C   UNL     1     -10.894  14.134  66.669  1.00  0.00    -0.299 A  
HETATM   17  C   UNL     1     -11.193  15.463  68.510  1.00  0.00    -0.318 A  
HETATM   18  C   UNL     1     -10.393  15.273  67.378  1.00  0.00    -0.256 A  
HETATM   19  N   UNL     1     -12.126  14.448  68.523  1.00  0.00    -0.562 NA 
HETATM   20  C   UNL     1      -9.299  16.140  67.172  1.00  0.00    -0.225 A  
HETATM   21  C   UNL     1     -11.947  13.630  67.438  1.00  0.00    -0.376 A  
HETATM   22  C   UNL     1      -9.080  17.185  68.066  1.00  0.00    -0.240 A  
HETATM   23  C   UNL     1      -9.922  17.382  69.156  1.00  0.00    -0.200 A  
HETATM   24  H   UNL     1     -12.844  14.324  69.236  1.00  0.00     0.000 HD 
HETATM   25  C   UNL     1     -10.992  16.517  69.408  1.00  0.00    -0.288 A  
ENDBRANCH  14  16
ENDBRANCH  13  14
ENDBRANCH   1  13
TORSDOF 3
ENDMDL
MODEL      236
REMARK 921   NORMALIZED FREE ENERGY PREDICTED BY IDOCK:   -3.83 KCAL/MOL
REMARK 922        TOTAL FREE ENERGY PREDICTED BY IDOCK:   -5.13 KCAL/MOL
REMARK 923 INTER-LIGAND FREE ENERGY PREDICTED BY IDOCK:   -4.28 KCAL/MOL
REMARK 924 INTRA-LIGAND FREE ENERGY PREDICTED BY IDOCK:   -0.85 KCAL/MOL
REMARK 927      BINDING AFFINITY PREDICTED BY RF-SCORE:    0.00 PKD
ROOT
HETATM    1  C   UNL     1      -9.578  10.150  65.622  1.00  0.00    -0.243 C  
HETATM    2  C   UNL     1     -10.732  11.072  65.189  1.00  0.00    -0.253 C  
HETATM    3  C   UNL     1      -8.376  11.046  65.896  1.00  0.00    -0.119 C  
HETATM    4  C   UNL     1     -10.930  12.337  66.065  1.00  0.00    -0.292 C  
HETATM    5  N   UNL     1      -9.661  13.084  66.356  1.00  0.00    -0.266 NA 
HETATM    6  C   UNL     1      -8.696  12.134  66.948  1.00  0.00    -0.194 C  
HETATM    7  O   UNL     1     -11.230  14.366  69.368  1.00  0.00    -0.264 OA 
HETATM    8  C   UNL     1     -11.659  11.928  67.357  1.00  0.00    -0.367 C  
HETATM    9  C   UNL     1     -10.656  13.661  68.545  1.00  0.00    -0.250 C  
HETATM   10  C   UNL     1     -10.727  12.153  68.547  1.00  0.00    -0.257 C  
HETATM   11  C   UNL     1      -9.855  14.193  67.361  1.00  0.00    -0.239 C  
HETATM   12  C   UNL     1      -9.256  11.703  68.338  1.00  0.00    -0.182 C  
ENDROOT
BRANCH   1  13
HETATM   13  O   UNL     1      -9.681   9.389  66.841  1.00  0.00    -0.163 OA 
BRANCH  13  14
HETATM   14  C   UNL     1      -9.938   8.064  66.909  1.00  0.00    -0.268 C  
HETATM   15  O   UNL     1     -11.066   7.591  66.989  1.00  0.00    -0.224 OA 
BRANCH  14  16
HETATM   16  C   UNL     1      -8.709   7.267  66.992  1.00  0.00    -0.123 A  
HETATM   17  C   UNL     1      -6.797   6.290  67.788  1.00  0.00    -0.066 A  
HETATM   18  C   UNL     1      -7.859   7.131  68.137  1.00  0.00    -0.118 A  
HETATM   19  N   UNL     1      -6.962   5.956  66.461  1.00  0.00    -0.059 NA 
HETATM   20  C   UNL     1      -7.882   7.686  69.433  1.00  0.00    -0.123 A  
HETATM   21  C   UNL     1      -8.093   6.551  65.963  1.00  0.00    -0.121 A  
HETATM   22  C   UNL     1      -6.884   7.340  70.341  1.00  0.00    -0.053 A  
HETATM   23  C   UNL     1      -5.867   6.460  69.984  1.00  0.00    -0.018 A  
HETATM   24  H   UNL     1      -6.335   5.354  65.927  1.00  0.00     0.000 HD 
HETATM   25  C   UNL     1      -5.795   5.924  68.694  1.00  0.00    -0.016 A  
ENDBRANCH  14  16
ENDBRANCH  13  14
ENDBRANCH   1  13
TORSDOF 3
ENDMDL
MODEL      237
REMARK 921   NORMALIZED FREE ENERGY PREDICTED BY IDOCK:   -3.80 KCAL/MOL
REMARK 922        TOTAL FREE ENERGY PREDICTED BY IDOCK:   -5.10 KCAL/MOL
REMARK 923 INTER-LIGAND FREE ENERGY PREDICTED BY IDOCK:   -4.50 KCAL/MOL
REMARK 924 INTRA-LIGAND FREE ENERGY PREDICTED BY IDOCK:   -0.60 KCAL/MOL
REMARK 927      BINDING AFFINITY PREDICTED BY RF-SCORE:    0.00 PKD
ROOT
HETATM    1  C   UNL     1     -10.109   5.041  67.166  1.00  0.00    -0.199 C  
HETATM    2  C   UNL     1     -10.642   4.782  65.746  1.00  0.00    -0.262 C  
HETATM    3  C   UNL     1      -9.585   3.710  67.691  1.00  0.00    -0.193 C  
HETATM    4  C   UNL     1      -9.712   3.937  64.836  1.00  0.00    -0.188 C  
HETATM    5  N   UNL     1      -9.172   2.700  65.494  1.00  0.00    -0.133 NA 
HETATM    6  C   UNL     1      -8.514   3.103  66.755  1.00  0.00    -0.104 C  
HETATM    7  O   UNL     1      -6.347   2.849  63.220  1.00  0.00    -0.017 OA 
HETATM    8  C   UNL     1      -8.582   4.843  64.315  1.00  0.00    -0.141 C  
HETATM    9  C   UNL     1      -7.124   3.035  64.150  1.00  0.00    -0.056 C  
HETATM   10  C   UNL     1      -7.250   4.352  64.878  1.00  0.00    -0.070 C  
HETATM   11  C   UNL     1      -8.127   2.004  64.657  1.00  0.00    -0.074 C  
HETATM   12  C   UNL     1      -7.264   3.955  66.380  1.00  0.00    -0.064 C  
ENDROOT
BRANCH   1  13
HETATM   13  O   UNL     1      -8.982   5.917  67.367  1.00  0.00    -0.111 OA 
BRANCH  13  14
HETATM   14  C   UNL     1      -8.910   6.884  68.308  1.00  0.00    -0.122 C  
HETATM   15  O   UNL     1      -8.432   6.716  69.424  1.00  0.00    -0.129 OA 
BRANCH  14  16
HETATM   16  C   UNL     1      -9.573   8.120  67.880  1.00  0.00    -0.179 A  
HETATM   17  C   UNL     1     -10.784  10.064  67.906  1.00  0.00    -0.272 A  
HETATM   18  C   UNL     1     -10.318   9.019  68.711  1.00  0.00    -0.236 A  
HETATM   19  N   UNL     1     -10.379   9.796  66.616  1.00  0.00    -0.226 NA 
HETATM   20  C   UNL     1     -10.669   9.010  70.077  1.00  0.00    -0.247 A  
HETATM   21  C   UNL     1      -9.670   8.623  66.579  1.00  0.00    -0.255 A  
HETATM   22  C   UNL     1     -11.419  10.064  70.594  1.00  0.00    -0.425 A  
HETATM   23  C   UNL     1     -11.826  11.118  69.782  1.00  0.00    -0.422 A  
HETATM   24  H   UNL     1     -10.578  10.384  65.807  1.00  0.00     0.000 HD 
HETATM   25  C   UNL     1     -11.526  11.136  68.416  1.00  0.00    -0.377 A  
ENDBRANCH  14  16
ENDBRANCH  13  14
ENDBRANCH   1  13
TORSDOF 3
ENDMDL
MODEL      238
REMARK 921   NORMALIZED FREE ENERGY PREDICTED BY IDOCK:   -3.80 KCAL/MOL
REMARK 922        TOTAL FREE ENERGY PREDICTED BY IDOCK:   -5.10 KCAL/MOL
REMARK 923 INTER-LIGAND FREE ENERGY PREDICTED BY IDOCK:   -4.26 KCAL/MOL
REMARK 924 INTRA-LIGAND FREE ENERGY PREDICTED BY IDOCK:   -0.83 KCAL/MOL
REMARK 927      BINDING AFFINITY PREDICTED BY RF-SCORE:    0.00 PKD
ROOT
HETATM    1  C   UNL     1      -9.578  10.150  65.622  1.00  0.00    -0.243 C  
HETATM    2  C   UNL     1     -10.732  11.072  65.189  1.00  0.00    -0.253 C  
HETATM    3  C   UNL     1      -8.376  11.046  65.896  1.00  0.00    -0.119 C  
HETATM    4  C   UNL     1     -10.930  12.337  66.065  1.00  0.00    -0.292 C  
HETATM    5  N   UNL     1      -9.661  13.084  66.356  1.00  0.00    -0.266 NA 
HETATM    6  C   UNL     1      -8.696  12.134  66.948  1.00  0.00    -0.194 C  
HETATM    7  O   UNL     1     -11.230  14.366  69.368  1.00  0.00    -0.264 OA 
HETATM    8  C   UNL     1     -11.659  11.928  67.357  1.00  0.00    -0.367 C  
HETATM    9  C   UNL     1     -10.656  13.661  68.545  1.00  0.00    -0.250 C  
HETATM   10  C   UNL     1     -10.727  12.153  68.547  1.00  0.00    -0.257 C  
HETATM   11  C   UNL     1      -9.855  14.193  67.361  1.00  0.00    -0.239 C  
HETATM   12  C   UNL     1      -9.256  11.703  68.338  1.00  0.00    -0.182 C  
ENDROOT
BRANCH   1  13
HETATM   13  O   UNL     1      -9.681   9.389  66.841  1.00  0.00    -0.163 OA 
BRANCH  13  14
HETATM   14  C   UNL     1      -9.938   8.064  66.909  1.00  0.00    -0.268 C  
HETATM   15  O   UNL     1     -11.066   7.591  66.989  1.00  0.00    -0.224 OA 
BRANCH  14  16
HETATM   16  C   UNL     1      -8.709   7.267  66.992  1.00  0.00    -0.123 A  
HETATM   17  C   UNL     1      -6.793   6.153  66.415  1.00  0.00    -0.062 A  
HETATM   18  C   UNL     1      -7.844   6.922  65.904  1.00  0.00    -0.106 A  
HETATM   19  N   UNL     1      -7.028   5.990  67.765  1.00  0.00    -0.067 NA 
HETATM   20  C   UNL     1      -7.886   7.167  64.516  1.00  0.00    -0.121 A  
HETATM   21  C   UNL     1      -8.184   6.635  68.122  1.00  0.00    -0.114 A  
HETATM   22  C   UNL     1      -6.860   6.686  63.707  1.00  0.00    -0.053 A  
HETATM   23  C   UNL     1      -5.800   5.967  64.249  1.00  0.00    -0.022 A  
HETATM   24  H   UNL     1      -6.428   5.468  68.403  1.00  0.00     0.000 HD 
HETATM   25  C   UNL     1      -5.749   5.675  65.616  1.00  0.00    -0.014 A  
ENDBRANCH  14  16
ENDBRANCH  13  14
ENDBRANCH   1  13
TORSDOF 3
ENDMDL
MODEL      239
REMARK 921   NORMALIZED FREE ENERGY PREDICTED BY IDOCK:   -3.79 KCAL/MOL
REMARK 922        TOTAL FREE ENERGY PREDICTED BY IDOCK:   -5.09 KCAL/MOL
REMARK 923 INTER-LIGAND FREE ENERGY PREDICTED BY IDOCK:   -4.25 KCAL/MOL
REMARK 924 INTRA-LIGAND FREE ENERGY PREDICTED BY IDOCK:   -0.84 KCAL/MOL
REMARK 927      BINDING AFFINITY PREDICTED BY RF-SCORE:    0.00 PKD
ROOT
HETATM    1  C   UNL     1      -7.828   8.814  67.964  1.00  0.00    -0.102 C  
HETATM    2  C   UNL     1      -7.443   7.328  67.854  1.00  0.00    -0.102 C  
HETATM    3  C   UNL     1      -6.630   9.618  67.475  1.00  0.00    -0.070 C  
HETATM    4  C   UNL     1      -6.767   6.918  66.519  1.00  0.00    -0.052 C  
HETATM    5  N   UNL     1      -5.667   7.842  66.083  1.00  0.00    -0.036 NA 
HETATM    6  C   UNL     1      -6.213   9.215  66.040  1.00  0.00    -0.063 C  
HETATM    7  O   UNL     1      -6.290   6.798  62.663  1.00  0.00    -0.041 OA 
HETATM    8  C   UNL     1      -7.856   6.781  65.441  1.00  0.00    -0.115 C  
HETATM    9  C   UNL     1      -6.349   7.345  63.759  1.00  0.00    -0.049 C  
HETATM   10  C   UNL     1      -7.634   7.847  64.370  1.00  0.00    -0.116 C  
HETATM   11  C   UNL     1      -5.160   7.529  64.696  1.00  0.00    -0.029 C  
HETATM   12  C   UNL     1      -7.275   9.262  64.901  1.00  0.00    -0.102 C  
ENDROOT
BRANCH   1  13
HETATM   13  O   UNL     1      -8.903   9.343  67.163  1.00  0.00    -0.127 OA 
BRANCH  13  14
HETATM   14  C   UNL     1     -10.218   9.222  67.451  1.00  0.00    -0.243 C  
HETATM   15  O   UNL     1     -10.895   8.247  67.148  1.00  0.00    -0.244 OA 
BRANCH  14  16
HETATM   16  C   UNL     1     -10.762  10.438  68.064  1.00  0.00    -0.292 A  
HETATM   17  C   UNL     1     -11.421  12.608  68.384  1.00  0.00    -0.310 A  
HETATM   18  C   UNL     1     -10.844  11.734  67.457  1.00  0.00    -0.286 A  
HETATM   19  N   UNL     1     -11.645  11.888  69.538  1.00  0.00    -0.312 NA 
HETATM   20  C   UNL     1     -10.439  12.246  66.207  1.00  0.00    -0.266 A  
HETATM   21  C   UNL     1     -11.235  10.591  69.370  1.00  0.00    -0.269 A  
HETATM   22  C   UNL     1     -10.673  13.586  65.911  1.00  0.00    -0.279 A  
HETATM   23  C   UNL     1     -11.296  14.423  66.832  1.00  0.00    -0.357 A  
HETATM   24  H   UNL     1     -12.055  12.266  70.392  1.00  0.00     0.000 HD 
HETATM   25  C   UNL     1     -11.674  13.954  68.095  1.00  0.00    -0.388 A  
ENDBRANCH  14  16
ENDBRANCH  13  14
ENDBRANCH   1  13
TORSDOF 3
ENDMDL
MODEL      240
REMARK 921   NORMALIZED FREE ENERGY PREDICTED BY IDOCK:   -3.79 KCAL/MOL
REMARK 922        TOTAL FREE ENERGY PREDICTED BY IDOCK:   -5.08 KCAL/MOL
REMARK 923 INTER-LIGAND FREE ENERGY PREDICTED BY IDOCK:   -4.19 KCAL/MOL
REMARK 924 INTRA-LIGAND FREE ENERGY PREDICTED BY IDOCK:   -0.89 KCAL/MOL
REMARK 927      BINDING AFFINITY PREDICTED BY RF-SCORE:    0.00 PKD
ROOT
HETATM    1  C   UNL     1      -8.407   7.929  68.651  1.00  0.00    -0.128 C  
HETATM    2  C   UNL     1      -8.335   8.297  67.158  1.00  0.00    -0.123 C  
HETATM    3  C   UNL     1      -7.997   9.172  69.432  1.00  0.00    -0.097 C  
HETATM    4  C   UNL     1      -8.978   9.657  66.782  1.00  0.00    -0.138 C  
HETATM    5  N   UNL     1      -8.582  10.790  67.684  1.00  0.00    -0.122 NA 
HETATM    6  C   UNL     1      -8.879  10.392  69.076  1.00  0.00    -0.172 C  
HETATM    7  O   UNL     1     -11.697  12.436  66.809  1.00  0.00    -0.393 OA 
HETATM    8  C   UNL     1     -10.506   9.479  66.730  1.00  0.00    -0.263 C  
HETATM    9  C   UNL     1     -10.848  11.707  67.311  1.00  0.00    -0.256 C  
HETATM   10  C   UNL     1     -11.143  10.322  67.832  1.00  0.00    -0.341 C  
HETATM   11  C   UNL     1      -9.366  12.051  67.413  1.00  0.00    -0.178 C  
HETATM   12  C   UNL     1     -10.427  10.273  69.209  1.00  0.00    -0.250 C  
ENDROOT
BRANCH   1  13
HETATM   13  O   UNL     1      -9.672   7.589  69.252  1.00  0.00    -0.161 OA 
BRANCH  13  14
HETATM   14  C   UNL     1     -10.335   6.428  69.059  1.00  0.00    -0.199 C  
HETATM   15  O   UNL     1     -11.338   6.322  68.363  1.00  0.00    -0.298 OA 
BRANCH  14  16
HETATM   16  C   UNL     1      -9.783   5.337  69.870  1.00  0.00    -0.260 A  
HETATM   17  C   UNL     1      -8.692   3.422  70.492  1.00  0.00    -0.075 A  
HETATM   18  C   UNL     1      -9.014   4.226  69.394  1.00  0.00    -0.155 A  
HETATM   19  N   UNL     1      -9.282   3.992  71.600  1.00  0.00    -0.119 NA 
HETATM   20  C   UNL     1      -8.596   3.816  68.111  1.00  0.00    -0.115 A  
HETATM   21  C   UNL     1      -9.958   5.130  71.241  1.00  0.00    -0.192 A  
HETATM   22  C   UNL     1      -7.833   2.658  67.981  1.00  0.00    -0.059 A  
HETATM   23  C   UNL     1      -7.484   1.904  69.096  1.00  0.00    -0.043 A  
HETATM   24  H   UNL     1      -9.224   3.621  72.549  1.00  0.00     0.000 HD 
HETATM   25  C   UNL     1      -7.916   2.264  70.377  1.00  0.00    -0.051 A  
ENDBRANCH  14  16
ENDBRANCH  13  14
ENDBRANCH   1  13
TORSDOF 3
ENDMDL
MODEL      241
REMARK 921   NORMALIZED FREE ENERGY PREDICTED BY IDOCK:   -3.77 KCAL/MOL
REMARK 922        TOTAL FREE ENERGY PREDICTED BY IDOCK:   -5.07 KCAL/MOL
REMARK 923 INTER-LIGAND FREE ENERGY PREDICTED BY IDOCK:   -4.23 KCAL/MOL
REMARK 924 INTRA-LIGAND FREE ENERGY PREDICTED BY IDOCK:   -0.84 KCAL/MOL
REMARK 927      BINDING AFFINITY PREDICTED BY RF-SCORE:    0.00 PKD
ROOT
HETATM    1  C   UNL     1     -10.212   5.456  68.976  1.00  0.00    -0.221 C  
HETATM    2  C   UNL     1      -9.921   4.551  70.186  1.00  0.00    -0.278 C  
HETATM    3  C   UNL     1     -11.386   6.348  69.363  1.00  0.00    -0.443 C  
HETATM    4  C   UNL     1      -9.886   5.274  71.558  1.00  0.00    -0.172 C  
HETATM    5  N   UNL     1     -11.040   6.205  71.787  1.00  0.00    -0.264 NA 
HETATM    6  C   UNL     1     -11.097   7.151  70.653  1.00  0.00    -0.267 C  
HETATM    7  O   UNL     1      -8.937   8.078  74.078  1.00  0.00    -0.249 OA 
HETATM    8  C   UNL     1      -8.535   5.997  71.695  1.00  0.00    -0.127 C  
HETATM    9  C   UNL     1      -9.473   7.620  73.075  1.00  0.00    -0.226 C  
HETATM   10  C   UNL     1      -8.779   7.504  71.740  1.00  0.00    -0.128 C  
HETATM   11  C   UNL     1     -10.880   7.033  73.040  1.00  0.00    -0.309 C  
HETATM   12  C   UNL     1      -9.821   8.043  70.722  1.00  0.00    -0.197 C  
ENDROOT
BRANCH   1  13
HETATM   13  O   UNL     1      -9.228   6.414  68.537  1.00  0.00    -0.126 OA 
BRANCH  13  14
HETATM   14  C   UNL     1      -8.768   6.529  67.272  1.00  0.00    -0.110 C  
HETATM   15  O   UNL     1      -8.948   7.514  66.567  1.00  0.00    -0.148 OA 
BRANCH  14  16
HETATM   16  C   UNL     1      -8.131   5.293  66.803  1.00  0.00    -0.105 A  
HETATM   17  C   UNL     1      -7.746   3.326  65.694  1.00  0.00    -0.081 A  
HETATM   18  C   UNL     1      -8.669   4.366  65.852  1.00  0.00    -0.118 A  
HETATM   19  N   UNL     1      -6.697   3.579  66.552  1.00  0.00    -0.051 NA 
HETATM   20  C   UNL     1      -9.884   4.304  65.138  1.00  0.00    -0.208 A  
HETATM   21  C   UNL     1      -6.923   4.744  67.241  1.00  0.00    -0.061 A  
HETATM   22  C   UNL     1     -10.106   3.246  64.262  1.00  0.00    -0.152 A  
HETATM   23  C   UNL     1      -9.150   2.251  64.085  1.00  0.00    -0.112 A  
HETATM   24  H   UNL     1      -5.874   2.987  66.660  1.00  0.00     0.000 HD 
HETATM   25  C   UNL     1      -7.951   2.264  64.807  1.00  0.00    -0.078 A  
ENDBRANCH  14  16
ENDBRANCH  13  14
ENDBRANCH   1  13
TORSDOF 3
ENDMDL
MODEL      242
REMARK 921   NORMALIZED FREE ENERGY PREDICTED BY IDOCK:   -3.71 KCAL/MOL
REMARK 922        TOTAL FREE ENERGY PREDICTED BY IDOCK:   -4.99 KCAL/MOL
REMARK 923 INTER-LIGAND FREE ENERGY PREDICTED BY IDOCK:   -3.80 KCAL/MOL
REMARK 924 INTRA-LIGAND FREE ENERGY PREDICTED BY IDOCK:   -1.19 KCAL/MOL
REMARK 927      BINDING AFFINITY PREDICTED BY RF-SCORE:    0.00 PKD
ROOT
HETATM    1  C   UNL     1      -9.082   4.776  66.698  1.00  0.00    -0.117 C  
HETATM    2  C   UNL     1     -10.581   5.101  66.569  1.00  0.00    -0.320 C  
HETATM    3  C   UNL     1      -8.321   6.018  66.249  1.00  0.00    -0.122 C  
HETATM    4  C   UNL     1     -11.008   6.481  67.135  1.00  0.00    -0.408 C  
HETATM    5  N   UNL     1     -10.124   7.616  66.708  1.00  0.00    -0.259 NA 
HETATM    6  C   UNL     1      -8.732   7.269  67.060  1.00  0.00    -0.123 C  
HETATM    7  O   UNL     1     -11.125   9.387  69.714  1.00  0.00    -0.233 OA 
HETATM    8  C   UNL     1     -11.098   6.375  68.667  1.00  0.00    -0.393 C  
HETATM    9  C   UNL     1     -10.582   8.632  68.915  1.00  0.00    -0.144 C  
HETATM   10  C   UNL     1     -10.035   7.276  69.292  1.00  0.00    -0.170 C  
HETATM   11  C   UNL     1     -10.448   8.906  67.421  1.00  0.00    -0.277 C  
HETATM   12  C   UNL     1      -8.638   7.229  68.615  1.00  0.00    -0.128 C  
ENDROOT
BRANCH   1  13
HETATM   13  O   UNL     1      -8.508   4.514  67.994  1.00  0.00    -0.097 OA 
BRANCH  13  14
HETATM   14  C   UNL     1      -8.104   3.301  68.432  1.00  0.00    -0.068 C  
HETATM   15  O   UNL     1      -8.188   2.274  67.770  1.00  0.00    -0.063 OA 
BRANCH  14  16
HETATM   16  C   UNL     1      -7.664   3.339  69.831  1.00  0.00    -0.043 A  
HETATM   17  C   UNL     1      -7.677   3.524  72.114  1.00  0.00    -0.059 A  
HETATM   18  C   UNL     1      -8.493   3.561  70.978  1.00  0.00    -0.097 A  
HETATM   19  N   UNL     1      -6.383   3.334  71.678  1.00  0.00    -0.015 NA 
HETATM   20  C   UNL     1      -9.868   3.828  71.144  1.00  0.00    -0.213 A  
HETATM   21  C   UNL     1      -6.355   3.242  70.310  1.00  0.00    -0.028 A  
HETATM   22  C   UNL     1     -10.381   3.993  72.428  1.00  0.00    -0.207 A  
HETATM   23  C   UNL     1      -9.555   3.901  73.544  1.00  0.00    -0.133 A  
HETATM   24  H   UNL     1      -5.566   3.270  72.285  1.00  0.00     0.000 HD 
HETATM   25  C   UNL     1      -8.181   3.675  73.410  1.00  0.00    -0.083 A  
ENDBRANCH  14  16
ENDBRANCH  13  14
ENDBRANCH   1  13
TORSDOF 3
ENDMDL
MODEL      243
REMARK 921   NORMALIZED FREE ENERGY PREDICTED BY IDOCK:   -3.70 KCAL/MOL
REMARK 922        TOTAL FREE ENERGY PREDICTED BY IDOCK:   -4.98 KCAL/MOL
REMARK 923 INTER-LIGAND FREE ENERGY PREDICTED BY IDOCK:   -4.01 KCAL/MOL
REMARK 924 INTRA-LIGAND FREE ENERGY PREDICTED BY IDOCK:   -0.97 KCAL/MOL
REMARK 927      BINDING AFFINITY PREDICTED BY RF-SCORE:    0.00 PKD
ROOT
HETATM    1  C   UNL     1      -6.332   7.216  67.815  1.00  0.00    -0.044 C  
HETATM    2  C   UNL     1      -6.399   6.685  69.258  1.00  0.00    -0.035 C  
HETATM    3  C   UNL     1      -7.051   6.199  66.937  1.00  0.00    -0.073 C  
HETATM    4  C   UNL     1      -7.790   6.166  69.707  1.00  0.00    -0.106 C  
HETATM    5  N   UNL     1      -8.450   5.253  68.716  1.00  0.00    -0.092 NA 
HETATM    6  C   UNL     1      -8.502   5.950  67.414  1.00  0.00    -0.103 C  
HETATM    7  O   UNL     1     -11.657   6.240  70.100  1.00  0.00    -0.413 OA 
HETATM    8  C   UNL     1      -8.679   7.376  70.044  1.00  0.00    -0.140 C  
HETATM    9  C   UNL     1     -10.605   6.201  69.472  1.00  0.00    -0.287 C  
HETATM   10  C   UNL     1      -9.840   7.433  69.054  1.00  0.00    -0.168 C  
HETATM   11  C   UNL     1      -9.874   4.918  69.090  1.00  0.00    -0.193 C  
HETATM   12  C   UNL     1      -9.467   7.164  67.570  1.00  0.00    -0.144 C  
ENDROOT
BRANCH   1  13
HETATM   13  O   UNL     1      -6.994   8.448  67.467  1.00  0.00    -0.072 OA 
BRANCH  13  14
HETATM   14  C   UNL     1      -6.597   9.292  66.489  1.00  0.00    -0.067 C  
HETATM   15  O   UNL     1      -5.672   9.059  65.721  1.00  0.00    -0.048 OA 
BRANCH  14  16
HETATM   16  C   UNL     1      -7.325  10.565  66.532  1.00  0.00    -0.125 A  
HETATM   17  C   UNL     1      -8.916  12.177  66.190  1.00  0.00    -0.043 A  
HETATM   18  C   UNL     1      -8.581  10.849  65.904  1.00  0.00    -0.179 A  
HETATM   19  N   UNL     1      -7.880  12.707  66.930  1.00  0.00    -0.393 NA 
HETATM   20  C   UNL     1      -9.445  10.097  65.081  1.00  0.00    -0.319 A  
HETATM   21  C   UNL     1      -6.908  11.760  67.126  1.00  0.00    -0.148 A  
HETATM   22  C   UNL     1     -10.626  10.676  64.624  1.00  0.00    -0.166 A  
HETATM   23  C   UNL     1     -10.960  11.983  64.966  1.00  0.00    -0.355 A  
HETATM   24  H   UNL     1      -7.843  13.664  67.280  1.00  0.00     0.000 HD 
HETATM   25  C   UNL     1     -10.105  12.767  65.748  1.00  0.00    -0.296 A  
ENDBRANCH  14  16
ENDBRANCH  13  14
ENDBRANCH   1  13
TORSDOF 3
ENDMDL
MODEL      244
REMARK 921   NORMALIZED FREE ENERGY PREDICTED BY IDOCK:   -3.68 KCAL/MOL
REMARK 922        TOTAL FREE ENERGY PREDICTED BY IDOCK:   -4.96 KCAL/MOL
REMARK 923 INTER-LIGAND FREE ENERGY PREDICTED BY IDOCK:   -4.25 KCAL/MOL
REMARK 924 INTRA-LIGAND FREE ENERGY PREDICTED BY IDOCK:   -0.71 KCAL/MOL
REMARK 927      BINDING AFFINITY PREDICTED BY RF-SCORE:    0.00 PKD
ROOT
HETATM    1  C   UNL     1      -9.009  16.582  68.434  1.00  0.00    -0.219 C  
HETATM    2  C   UNL     1      -7.762  16.683  69.329  1.00  0.00    -0.110 C  
HETATM    3  C   UNL     1      -8.516  16.301  67.019  1.00  0.00    -0.232 C  
HETATM    4  C   UNL     1      -6.706  15.567  69.118  1.00  0.00    -0.145 C  
HETATM    5  N   UNL     1      -6.373  15.306  67.678  1.00  0.00    -0.197 NA 
HETATM    6  C   UNL     1      -7.634  15.031  66.959  1.00  0.00    -0.042 C  
HETATM    7  O   UNL     1      -5.422  11.931  68.619  1.00  0.00    -0.049 OA 
HETATM    8  C   UNL     1      -7.191  14.292  69.830  1.00  0.00     0.112 C  
HETATM    9  C   UNL     1      -6.053  12.938  68.316  1.00  0.00    -0.082 C  
HETATM   10  C   UNL     1      -7.461  13.211  68.786  1.00  0.00    -0.050 C  
HETATM   11  C   UNL     1      -5.491  14.094  67.494  1.00  0.00     0.206 C  
HETATM   12  C   UNL     1      -8.203  13.687  67.507  1.00  0.00    -0.189 C  
ENDROOT
BRANCH   1  13
HETATM   13  O   UNL     1      -9.966  15.524  68.643  1.00  0.00    -0.199 OA 
BRANCH  13  14
HETATM   14  C   UNL     1     -11.167  15.432  68.029  1.00  0.00    -0.325 C  
HETATM   15  O   UNL     1     -11.977  16.349  67.975  1.00  0.00     0.179 OA 
BRANCH  14  16
HETATM   16  C   UNL     1     -11.432  14.074  67.540  1.00  0.00    -0.369 A  
HETATM   17  C   UNL     1     -11.940  12.316  66.164  1.00  0.00    -0.249 A  
HETATM   18  C   UNL     1     -11.764  13.703  66.197  1.00  0.00    -0.391 A  
HETATM   19  N   UNL     1     -11.769  11.853  67.452  1.00  0.00    -0.566 NA 
HETATM   20  C   UNL     1     -11.967  14.438  65.010  1.00  0.00    -0.413 A  
HETATM   21  C   UNL     1     -11.485  12.898  68.293  1.00  0.00    -0.311 A  
HETATM   22  C   UNL     1     -12.282  13.761  63.835  1.00  0.00    -0.402 A  
HETATM   23  C   UNL     1     -12.401  12.374  63.819  1.00  0.00    -0.625 A  
HETATM   24  H   UNL     1     -11.842  10.877  67.736  1.00  0.00     0.000 HD 
HETATM   25  C   UNL     1     -12.243  11.622  64.988  1.00  0.00     0.421 A  
ENDBRANCH  14  16
ENDBRANCH  13  14
ENDBRANCH   1  13
TORSDOF 3
ENDMDL
MODEL      245
REMARK 921   NORMALIZED FREE ENERGY PREDICTED BY IDOCK:   -3.65 KCAL/MOL
REMARK 922        TOTAL FREE ENERGY PREDICTED BY IDOCK:   -4.92 KCAL/MOL
REMARK 923 INTER-LIGAND FREE ENERGY PREDICTED BY IDOCK:   -4.31 KCAL/MOL
REMARK 924 INTRA-LIGAND FREE ENERGY PREDICTED BY IDOCK:   -0.61 KCAL/MOL
REMARK 927      BINDING AFFINITY PREDICTED BY RF-SCORE:    0.00 PKD
ROOT
HETATM    1  C   UNL     1      -8.617   8.749  69.189  1.00  0.00    -0.128 C  
HETATM    2  C   UNL     1      -8.275   8.694  70.689  1.00  0.00    -0.147 C  
HETATM    3  C   UNL     1      -8.660   7.309  68.693  1.00  0.00    -0.128 C  
HETATM    4  C   UNL     1      -9.073   7.648  71.510  1.00  0.00    -0.132 C  
HETATM    5  N   UNL     1      -9.135   6.290  70.873  1.00  0.00    -0.150 NA 
HETATM    6  C   UNL     1      -9.662   6.451  69.501  1.00  0.00    -0.150 C  
HETATM    7  O   UNL     1     -12.227   5.699  72.681  1.00  0.00    -0.163 OA 
HETATM    8  C   UNL     1     -10.478   8.211  71.786  1.00  0.00    -0.304 C  
HETATM    9  C   UNL     1     -11.389   6.070  71.866  1.00  0.00    -0.279 C  
HETATM   10  C   UNL     1     -11.512   7.345  71.069  1.00  0.00    -0.307 C  
HETATM   11  C   UNL     1     -10.072   5.351  71.594  1.00  0.00    -0.203 C  
HETATM   12  C   UNL     1     -11.142   6.925  69.620  1.00  0.00    -0.302 C  
ENDROOT
BRANCH   1  13
HETATM   13  O   UNL     1      -9.892   9.263  68.757  1.00  0.00    -0.158 OA 
BRANCH  13  14
HETATM   14  C   UNL     1     -10.063  10.277  67.879  1.00  0.00    -0.170 C  
HETATM   15  O   UNL     1     -10.805  11.231  68.076  1.00  0.00    -0.191 OA 
BRANCH  14  16
HETATM   16  C   UNL     1      -9.347  10.041  66.621  1.00  0.00    -0.202 A  
HETATM   17  C   UNL     1      -7.707  10.000  65.023  1.00  0.00    -0.138 A  
HETATM   18  C   UNL     1      -7.990  10.400  66.333  1.00  0.00    -0.130 A  
HETATM   19  N   UNL     1      -8.863   9.456  64.505  1.00  0.00    -0.253 NA 
HETATM   20  C   UNL     1      -6.987  11.067  67.067  1.00  0.00    -0.117 A  
HETATM   21  C   UNL     1      -9.862   9.492  65.443  1.00  0.00    -0.177 A  
HETATM   22  C   UNL     1      -5.735  11.261  66.489  1.00  0.00    -0.145 A  
HETATM   23  C   UNL     1      -5.464  10.808  65.202  1.00  0.00    -0.113 A  
HETATM   24  H   UNL     1      -8.960   9.081  63.561  1.00  0.00     0.000 HD 
HETATM   25  C   UNL     1      -6.449  10.176  64.435  1.00  0.00    -0.122 A  
ENDBRANCH  14  16
ENDBRANCH  13  14
ENDBRANCH   1  13
TORSDOF 3
ENDMDL
MODEL      246
REMARK 921   NORMALIZED FREE ENERGY PREDICTED BY IDOCK:   -3.57 KCAL/MOL
REMARK 922        TOTAL FREE ENERGY PREDICTED BY IDOCK:   -4.82 KCAL/MOL
REMARK 923 INTER-LIGAND FREE ENERGY PREDICTED BY IDOCK:   -3.89 KCAL/MOL
REMARK 924 INTRA-LIGAND FREE ENERGY PREDICTED BY IDOCK:   -0.94 KCAL/MOL
REMARK 927      BINDING AFFINITY PREDICTED BY RF-SCORE:    0.00 PKD
ROOT
HETATM    1  C   UNL     1      -6.794   9.069  67.951  1.00  0.00    -0.070 C  
HETATM    2  C   UNL     1      -5.791   8.050  67.382  1.00  0.00    -0.042 C  
HETATM    3  C   UNL     1      -7.381   9.821  66.763  1.00  0.00    -0.091 C  
HETATM    4  C   UNL     1      -6.298   7.236  66.163  1.00  0.00    -0.041 C  
HETATM    5  N   UNL     1      -6.951   8.070  65.099  1.00  0.00    -0.062 NA 
HETATM    6  C   UNL     1      -8.026   8.861  65.735  1.00  0.00    -0.101 C  
HETATM    7  O   UNL     1      -8.827   5.131  64.093  1.00  0.00    -0.110 OA 
HETATM    8  C   UNL     1      -7.234   6.125  66.670  1.00  0.00    -0.074 C  
HETATM    9  C   UNL     1      -8.430   6.136  64.673  1.00  0.00     0.023 C  
HETATM   10  C   UNL     1      -8.645   6.385  66.145  1.00  0.00    -0.144 C  
HETATM   11  C   UNL     1      -7.600   7.237  64.021  1.00  0.00    -0.110 C  
HETATM   12  C   UNL     1      -9.122   7.862  66.214  1.00  0.00    -0.224 C  
ENDROOT
BRANCH   1  13
HETATM   13  O   UNL     1      -7.974   8.614  68.642  1.00  0.00    -0.111 OA 
BRANCH  13  14
HETATM   14  C   UNL     1      -8.012   8.220  69.935  1.00  0.00    -0.108 C  
HETATM   15  O   UNL     1      -7.073   8.337  70.711  1.00  0.00    -0.040 OA 
BRANCH  14  16
HETATM   16  C   UNL     1      -9.266   7.534  70.264  1.00  0.00    -0.157 A  
HETATM   17  C   UNL     1     -11.442   7.141  70.860  1.00  0.00    -0.297 A  
HETATM   18  C   UNL     1     -10.507   8.154  70.622  1.00  0.00    -0.224 A  
HETATM   19  N   UNL     1     -10.789   5.938  70.699  1.00  0.00    -0.289 NA 
HETATM   20  C   UNL     1     -10.905   9.495  70.802  1.00  0.00    -0.386 A  
HETATM   21  C   UNL     1      -9.477   6.156  70.362  1.00  0.00    -0.161 A  
HETATM   22  C   UNL     1     -12.222   9.774  71.157  1.00  0.00    -0.453 A  
HETATM   23  C   UNL     1     -13.146   8.749  71.337  1.00  0.00    -0.297 A  
HETATM   24  H   UNL     1     -11.217   5.020  70.814  1.00  0.00     0.000 HD 
HETATM   25  C   UNL     1     -12.772   7.407  71.204  1.00  0.00    -0.318 A  
ENDBRANCH  14  16
ENDBRANCH  13  14
ENDBRANCH   1  13
TORSDOF 3
ENDMDL
MODEL      247
REMARK 921   NORMALIZED FREE ENERGY PREDICTED BY IDOCK:   -3.56 KCAL/MOL
REMARK 922        TOTAL FREE ENERGY PREDICTED BY IDOCK:   -4.81 KCAL/MOL
REMARK 923 INTER-LIGAND FREE ENERGY PREDICTED BY IDOCK:   -4.21 KCAL/MOL
REMARK 924 INTRA-LIGAND FREE ENERGY PREDICTED BY IDOCK:   -0.60 KCAL/MOL
REMARK 927      BINDING AFFINITY PREDICTED BY RF-SCORE:    0.00 PKD
ROOT
HETATM    1  C   UNL     1      -9.398   8.664  67.271  1.00  0.00    -0.152 C  
HETATM    2  C   UNL     1      -8.123   7.873  67.614  1.00  0.00    -0.124 C  
HETATM    3  C   UNL     1     -10.497   8.151  68.194  1.00  0.00    -0.225 C  
HETATM    4  C   UNL     1      -7.819   7.735  69.129  1.00  0.00    -0.114 C  
HETATM    5  N   UNL     1      -9.003   7.323  69.954  1.00  0.00    -0.142 NA 
HETATM    6  C   UNL     1     -10.102   8.274  69.684  1.00  0.00    -0.199 C  
HETATM    7  O   UNL     1      -7.445   8.939  72.807  1.00  0.00    -0.354 OA 
HETATM    8  C   UNL     1      -7.210   9.057  69.629  1.00  0.00    -0.059 C  
HETATM    9  C   UNL     1      -8.057   8.711  71.769  1.00  0.00    -0.114 C  
HETATM   10  C   UNL     1      -8.165   9.698  70.633  1.00  0.00    -0.054 C  
HETATM   11  C   UNL     1      -8.728   7.382  71.437  1.00  0.00    -0.125 C  
HETATM   12  C   UNL     1      -9.668   9.663  70.241  1.00  0.00    -0.314 C  
ENDROOT
BRANCH   1  13
HETATM   13  O   UNL     1      -9.448  10.087  67.494  1.00  0.00    -0.146 OA 
BRANCH  13  14
HETATM   14  C   UNL     1      -9.100  11.027  66.586  1.00  0.00    -0.166 C  
HETATM   15  O   UNL     1      -8.926  12.208  66.860  1.00  0.00    -0.190 OA 
BRANCH  14  16
HETATM   16  C   UNL     1      -9.071  10.489  65.222  1.00  0.00    -0.220 A  
HETATM   17  C   UNL     1      -8.356   9.484  63.292  1.00  0.00    -0.181 A  
HETATM   18  C   UNL     1      -7.966   9.832  64.589  1.00  0.00    -0.139 A  
HETATM   19  N   UNL     1      -9.641   9.951  63.115  1.00  0.00    -0.535 NA 
HETATM   20  C   UNL     1      -6.649   9.538  65.000  1.00  0.00    -0.088 A  
HETATM   21  C   UNL     1     -10.077  10.575  64.256  1.00  0.00    -0.310 A  
HETATM   22  C   UNL     1      -5.798   8.865  64.127  1.00  0.00    -0.070 A  
HETATM   23  C   UNL     1      -6.228   8.484  62.860  1.00  0.00    -0.087 A  
HETATM   24  H   UNL     1     -10.188   9.847  62.260  1.00  0.00     0.000 HD 
HETATM   25  C   UNL     1      -7.516   8.796  62.410  1.00  0.00    -0.102 A  
ENDBRANCH  14  16
ENDBRANCH  13  14
ENDBRANCH   1  13
TORSDOF 3
ENDMDL
MODEL      248
REMARK 921   NORMALIZED FREE ENERGY PREDICTED BY IDOCK:   -3.53 KCAL/MOL
REMARK 922        TOTAL FREE ENERGY PREDICTED BY IDOCK:   -4.78 KCAL/MOL
REMARK 923 INTER-LIGAND FREE ENERGY PREDICTED BY IDOCK:   -3.90 KCAL/MOL
REMARK 924 INTRA-LIGAND FREE ENERGY PREDICTED BY IDOCK:   -0.88 KCAL/MOL
REMARK 927      BINDING AFFINITY PREDICTED BY RF-SCORE:    0.00 PKD
ROOT
HETATM    1  C   UNL     1      -9.456   8.577  68.591  1.00  0.00    -0.143 C  
HETATM    2  C   UNL     1      -9.946   9.730  69.485  1.00  0.00    -0.230 C  
HETATM    3  C   UNL     1     -10.463   8.440  67.455  1.00  0.00    -0.354 C  
HETATM    4  C   UNL     1     -10.393  11.008  68.728  1.00  0.00    -0.199 C  
HETATM    5  N   UNL     1     -11.302  10.742  67.563  1.00  0.00    -0.456 NA 
HETATM    6  C   UNL     1     -10.636   9.766  66.676  1.00  0.00    -0.108 C  
HETATM    7  O   UNL     1     -10.143  13.847  66.084  1.00  0.00    -0.291 OA 
HETATM    8  C   UNL     1      -9.138  11.789  68.302  1.00  0.00    -0.187 C  
HETATM    9  C   UNL     1     -10.243  12.684  66.459  1.00  0.00    -0.243 C  
HETATM   10  C   UNL     1      -9.056  11.808  66.777  1.00  0.00    -0.194 C  
HETATM   11  C   UNL     1     -11.565  11.977  66.736  1.00  0.00    -0.321 C  
HETATM   12  C   UNL     1      -9.379  10.461  66.074  1.00  0.00    -0.219 C  
ENDROOT
BRANCH   1  13
HETATM   13  O   UNL     1      -8.206   8.693  67.883  1.00  0.00    -0.113 OA 
BRANCH  13  14
HETATM   14  C   UNL     1      -7.477   7.653  67.420  1.00  0.00    -0.100 C  
HETATM   15  O   UNL     1      -7.299   7.422  66.231  1.00  0.00    -0.079 OA 
BRANCH  14  16
HETATM   16  C   UNL     1      -7.025   6.773  68.503  1.00  0.00    -0.076 A  
HETATM   17  C   UNL     1      -6.870   5.006  69.952  1.00  0.00    -0.051 A  
HETATM   18  C   UNL     1      -7.596   5.511  68.869  1.00  0.00    -0.087 A  
HETATM   19  N   UNL     1      -5.913   5.946  70.273  1.00  0.00    -0.024 NA 
HETATM   20  C   UNL     1      -8.699   4.771  68.392  1.00  0.00    -0.112 A  
HETATM   21  C   UNL     1      -6.006   7.021  69.427  1.00  0.00    -0.026 A  
HETATM   22  C   UNL     1      -8.997   3.542  68.974  1.00  0.00    -0.182 A  
HETATM   23  C   UNL     1      -8.226   3.039  70.018  1.00  0.00    -0.067 A  
HETATM   24  H   UNL     1      -5.234   5.854  71.029  1.00  0.00     0.000 HD 
HETATM   25  C   UNL     1      -7.150   3.767  70.537  1.00  0.00    -0.037 A  
ENDBRANCH  14  16
ENDBRANCH  13  14
ENDBRANCH   1  13
TORSDOF 3
ENDMDL
MODEL      249
REMARK 921   NORMALIZED FREE ENERGY PREDICTED BY IDOCK:   -3.52 KCAL/MOL
REMARK 922        TOTAL FREE ENERGY PREDICTED BY IDOCK:   -4.77 KCAL/MOL
REMARK 923 INTER-LIGAND FREE ENERGY PREDICTED BY IDOCK:   -3.99 KCAL/MOL
REMARK 924 INTRA-LIGAND FREE ENERGY PREDICTED BY IDOCK:   -0.79 KCAL/MOL
REMARK 927      BINDING AFFINITY PREDICTED BY RF-SCORE:    0.00 PKD
ROOT
HETATM    1  C   UNL     1      -8.720   7.603  67.812  1.00  0.00    -0.127 C  
HETATM    2  C   UNL     1      -9.628   8.841  67.703  1.00  0.00    -0.179 C  
HETATM    3  C   UNL     1      -7.676   7.722  66.708  1.00  0.00    -0.099 C  
HETATM    4  C   UNL     1      -8.885  10.190  67.524  1.00  0.00    -0.125 C  
HETATM    5  N   UNL     1      -7.807  10.161  66.480  1.00  0.00    -0.109 NA 
HETATM    6  C   UNL     1      -6.887   9.050  66.802  1.00  0.00    -0.080 C  
HETATM    7  O   UNL     1      -6.170  12.879  68.243  1.00  0.00    -0.068 OA 
HETATM    8  C   UNL     1      -8.338  10.634  68.893  1.00  0.00    -0.150 C  
HETATM    9  C   UNL     1      -6.577  11.778  67.890  1.00  0.00    -0.068 C  
HETATM   10  C   UNL     1      -6.812  10.633  68.844  1.00  0.00    -0.066 C  
HETATM   11  C   UNL     1      -6.979  11.423  66.462  1.00  0.00    -0.062 C  
HETATM   12  C   UNL     1      -6.167   9.410  68.137  1.00  0.00    -0.053 C  
ENDROOT
BRANCH   1  13
HETATM   13  O   UNL     1      -7.907   7.403  68.985  1.00  0.00    -0.115 OA 
BRANCH  13  14
HETATM   14  C   UNL     1      -8.342   7.526  70.259  1.00  0.00    -0.133 C  
HETATM   15  O   UNL     1      -7.659   7.974  71.172  1.00  0.00    -0.074 OA 
BRANCH  14  16
HETATM   16  C   UNL     1      -9.680   6.954  70.442  1.00  0.00    -0.177 A  
HETATM   17  C   UNL     1     -11.911   6.739  70.912  1.00  0.00    -0.383 A  
HETATM   18  C   UNL     1     -10.856   7.656  70.864  1.00  0.00    -0.250 A  
HETATM   19  N   UNL     1     -11.395   5.506  70.577  1.00  0.00     0.101 NA 
HETATM   20  C   UNL     1     -11.103   8.991  71.246  1.00  0.00    -0.382 A  
HETATM   21  C   UNL     1     -10.053   5.613  70.313  1.00  0.00    -0.222 A  
HETATM   22  C   UNL     1     -12.393   9.368  71.607  1.00  0.00    -0.465 A  
HETATM   23  C   UNL     1     -13.436   8.448  71.598  1.00  0.00    -0.363 A  
HETATM   24  H   UNL     1     -11.932   4.640  70.532  1.00  0.00     0.000 HD 
HETATM   25  C   UNL     1     -13.215   7.108  71.260  1.00  0.00    -0.340 A  
ENDBRANCH  14  16
ENDBRANCH  13  14
ENDBRANCH   1  13
TORSDOF 3
ENDMDL
MODEL      250
REMARK 921   NORMALIZED FREE ENERGY PREDICTED BY IDOCK:   -3.52 KCAL/MOL
REMARK 922        TOTAL FREE ENERGY PREDICTED BY IDOCK:   -4.77 KCAL/MOL
REMARK 923 INTER-LIGAND FREE ENERGY PREDICTED BY IDOCK:   -3.99 KCAL/MOL
REMARK 924 INTRA-LIGAND FREE ENERGY PREDICTED BY IDOCK:   -0.78 KCAL/MOL
REMARK 927      BINDING AFFINITY PREDICTED BY RF-SCORE:    0.00 PKD
ROOT
HETATM    1  C   UNL     1      -8.542   8.796  69.403  1.00  0.00    -0.133 C  
HETATM    2  C   UNL     1      -7.901   9.940  68.599  1.00  0.00    -0.086 C  
HETATM    3  C   UNL     1      -9.478   9.441  70.419  1.00  0.00    -0.319 C  
HETATM    4  C   UNL     1      -8.884  11.037  68.113  1.00  0.00    -0.141 C  
HETATM    5  N   UNL     1      -9.828  11.525  69.173  1.00  0.00     0.015 NA 
HETATM    6  C   UNL     1     -10.527  10.351  69.738  1.00  0.00    -0.240 C  
HETATM    7  O   UNL     1     -12.147  12.445  66.537  1.00  0.00    -0.599 OA 
HETATM    8  C   UNL     1      -9.638  10.508  66.880  1.00  0.00    -0.206 C  
HETATM    9  C   UNL     1     -11.492  11.828  67.370  1.00  0.00    -0.305 C  
HETATM   10  C   UNL     1     -11.120  10.373  67.222  1.00  0.00    -0.251 C  
HETATM   11  C   UNL     1     -10.891  12.446  68.627  1.00  0.00    -0.240 C  
HETATM   12  C   UNL     1     -11.430   9.758  68.615  1.00  0.00     0.134 C  
ENDROOT
BRANCH   1  13
HETATM   13  O   UNL     1      -9.405   7.846  68.747  1.00  0.00    -0.147 OA 
BRANCH  13  14
HETATM   14  C   UNL     1      -9.480   6.530  69.047  1.00  0.00    -0.130 C  
HETATM   15  O   UNL     1      -9.384   6.084  70.184  1.00  0.00    -0.151 OA 
BRANCH  14  16
HETATM   16  C   UNL     1      -9.574   5.696  67.844  1.00  0.00    -0.133 A  
HETATM   17  C   UNL     1      -9.337   4.938  65.696  1.00  0.00    -0.161 A  
HETATM   18  C   UNL     1      -9.011   5.989  66.560  1.00  0.00    -0.137 A  
HETATM   19  N   UNL     1     -10.114   4.051  66.411  1.00  0.00    -0.401 NA 
HETATM   20  C   UNL     1      -8.280   7.081  66.047  1.00  0.00    -0.129 A  
HETATM   21  C   UNL     1     -10.283   4.502  67.695  1.00  0.00     0.062 A  
HETATM   22  C   UNL     1      -7.861   7.058  64.720  1.00  0.00    -0.126 A  
HETATM   23  C   UNL     1      -8.156   5.976  63.896  1.00  0.00    -0.084 A  
HETATM   24  H   UNL     1     -10.506   3.186  66.039  1.00  0.00     0.000 HD 
HETATM   25  C   UNL     1      -8.912   4.895  64.364  1.00  0.00    -0.080 A  
ENDBRANCH  14  16
ENDBRANCH  13  14
ENDBRANCH   1  13
TORSDOF 3
ENDMDL
MODEL      251
REMARK 921   NORMALIZED FREE ENERGY PREDICTED BY IDOCK:   -3.49 KCAL/MOL
REMARK 922        TOTAL FREE ENERGY PREDICTED BY IDOCK:   -4.73 KCAL/MOL
REMARK 923 INTER-LIGAND FREE ENERGY PREDICTED BY IDOCK:   -3.22 KCAL/MOL
REMARK 924 INTRA-LIGAND FREE ENERGY PREDICTED BY IDOCK:   -1.51 KCAL/MOL
REMARK 927      BINDING AFFINITY PREDICTED BY RF-SCORE:    0.00 PKD
ROOT
HETATM    1  C   UNL     1      -7.043   8.077  65.425  1.00  0.00    -0.060 C  
HETATM    2  C   UNL     1      -8.436   8.237  64.789  1.00  0.00    -0.089 C  
HETATM    3  C   UNL     1      -6.564   9.476  65.795  1.00  0.00    -0.075 C  
HETATM    4  C   UNL     1      -9.405   9.178  65.551  1.00  0.00    -0.221 C  
HETATM    5  N   UNL     1      -8.793  10.488  65.956  1.00  0.00    -0.160 NA 
HETATM    6  C   UNL     1      -7.565  10.200  66.727  1.00  0.00    -0.105 C  
HETATM    7  O   UNL     1     -11.216  10.667  68.652  1.00  0.00    -0.244 OA 
HETATM    8  C   UNL     1      -9.976   8.419  66.761  1.00  0.00    -0.354 C  
HETATM    9  C   UNL     1     -10.242  10.398  67.957  1.00  0.00    -0.169 C  
HETATM   10  C   UNL     1      -9.493   9.091  68.044  1.00  0.00    -0.157 C  
HETATM   11  C   UNL     1      -9.694  11.299  66.855  1.00  0.00    -0.192 C  
HETATM   12  C   UNL     1      -7.997   9.511  68.056  1.00  0.00    -0.091 C  
ENDROOT
BRANCH   1  13
HETATM   13  O   UNL     1      -6.894   7.361  66.667  1.00  0.00    -0.059 OA 
BRANCH  13  14
HETATM   14  C   UNL     1      -6.951   6.017  66.798  1.00  0.00    -0.068 C  
HETATM   15  O   UNL     1      -6.218   5.241  66.199  1.00  0.00    -0.032 OA 
BRANCH  14  16
HETATM   16  C   UNL     1      -8.068   5.595  67.651  1.00  0.00    -0.101 A  
HETATM   17  C   UNL     1      -9.400   5.249  69.482  1.00  0.00    -0.130 A  
HETATM   18  C   UNL     1      -8.191   5.813  69.062  1.00  0.00    -0.101 A  
HETATM   19  N   UNL     1      -9.980   4.662  68.377  1.00  0.00    -0.108 NA 
HETATM   20  C   UNL     1      -7.355   6.412  70.027  1.00  0.00    -0.086 A  
HETATM   21  C   UNL     1      -9.184   4.842  67.276  1.00  0.00    -0.124 A  
HETATM   22  C   UNL     1      -7.778   6.472  71.352  1.00  0.00    -0.099 A  
HETATM   23  C   UNL     1      -9.009   5.948  71.734  1.00  0.00    -0.141 A  
HETATM   24  H   UNL     1     -10.872   4.167  68.379  1.00  0.00     0.000 HD 
HETATM   25  C   UNL     1      -9.844   5.314  70.807  1.00  0.00    -0.261 A  
ENDBRANCH  14  16
ENDBRANCH  13  14
ENDBRANCH   1  13
TORSDOF 3
ENDMDL
MODEL      252
REMARK 921   NORMALIZED FREE ENERGY PREDICTED BY IDOCK:   -3.48 KCAL/MOL
REMARK 922        TOTAL FREE ENERGY PREDICTED BY IDOCK:   -4.73 KCAL/MOL
REMARK 923 INTER-LIGAND FREE ENERGY PREDICTED BY IDOCK:   -3.71 KCAL/MOL
REMARK 924 INTRA-LIGAND FREE ENERGY PREDICTED BY IDOCK:   -1.02 KCAL/MOL
REMARK 927      BINDING AFFINITY PREDICTED BY RF-SCORE:    0.00 PKD
ROOT
HETATM    1  C   UNL     1      -8.164   7.929  67.123  1.00  0.00    -0.118 C  
HETATM    2  C   UNL     1      -7.048   7.171  66.383  1.00  0.00    -0.077 C  
HETATM    3  C   UNL     1      -9.470   7.206  66.814  1.00  0.00    -0.214 C  
HETATM    4  C   UNL     1      -7.095   5.626  66.523  1.00  0.00    -0.072 C  
HETATM    5  N   UNL     1      -8.455   5.033  66.297  1.00  0.00    -0.112 NA 
HETATM    6  C   UNL     1      -9.406   5.710  67.203  1.00  0.00    -0.115 C  
HETATM    7  O   UNL     1      -7.465   2.232  68.381  1.00  0.00    -0.047 OA 
HETATM    8  C   UNL     1      -6.529   5.242  67.901  1.00  0.00    -0.048 C  
HETATM    9  C   UNL     1      -7.847   3.325  67.977  1.00  0.00    -0.063 C  
HETATM   10  C   UNL     1      -7.640   4.611  68.738  1.00  0.00    -0.068 C  
HETATM   11  C   UNL     1      -8.511   3.561  66.624  1.00  0.00    -0.108 C  
HETATM   12  C   UNL     1      -9.019   5.323  68.663  1.00  0.00    -0.120 C  
ENDROOT
BRANCH   1  13
HETATM   13  O   UNL     1      -8.172   7.978  68.564  1.00  0.00    -0.123 OA 
BRANCH  13  14
HETATM   14  C   UNL     1      -8.174   9.111  69.301  1.00  0.00    -0.118 C  
HETATM   15  O   UNL     1      -7.225   9.881  69.370  1.00  0.00    -0.067 OA 
BRANCH  14  16
HETATM   16  C   UNL     1      -9.399   9.247  70.096  1.00  0.00    -0.258 A  
HETATM   17  C   UNL     1     -11.010   8.913  71.690  1.00  0.00    -0.345 A  
HETATM   18  C   UNL     1      -9.768   8.458  71.234  1.00  0.00    -0.245 A  
HETATM   19  N   UNL     1     -11.415   9.915  70.835  1.00  0.00    -0.347 NA 
HETATM   20  C   UNL     1      -9.165   7.367  71.894  1.00  0.00    -0.151 A  
HETATM   21  C   UNL     1     -10.470  10.114  69.861  1.00  0.00    -0.275 A  
HETATM   22  C   UNL     1      -9.793   6.812  73.006  1.00  0.00    -0.191 A  
HETATM   23  C   UNL     1     -11.004   7.316  73.469  1.00  0.00    -0.180 A  
HETATM   24  H   UNL     1     -12.290  10.434  70.915  1.00  0.00     0.000 HD 
HETATM   25  C   UNL     1     -11.645   8.372  72.813  1.00  0.00    -0.244 A  
ENDBRANCH  14  16
ENDBRANCH  13  14
ENDBRANCH   1  13
TORSDOF 3
ENDMDL
MODEL      253
REMARK 921   NORMALIZED FREE ENERGY PREDICTED BY IDOCK:   -3.44 KCAL/MOL
REMARK 922        TOTAL FREE ENERGY PREDICTED BY IDOCK:   -4.67 KCAL/MOL
REMARK 923 INTER-LIGAND FREE ENERGY PREDICTED BY IDOCK:   -3.87 KCAL/MOL
REMARK 924 INTRA-LIGAND FREE ENERGY PREDICTED BY IDOCK:   -0.80 KCAL/MOL
REMARK 927      BINDING AFFINITY PREDICTED BY RF-SCORE:    0.00 PKD
ROOT
HETATM    1  C   UNL     1      -9.202   8.159  67.337  1.00  0.00    -0.137 C  
HETATM    2  C   UNL     1      -8.035   7.157  67.361  1.00  0.00    -0.112 C  
HETATM    3  C   UNL     1     -10.181   7.724  68.422  1.00  0.00    -0.230 C  
HETATM    4  C   UNL     1      -7.481   6.822  68.771  1.00  0.00    -0.096 C  
HETATM    5  N   UNL     1      -8.543   6.509  69.786  1.00  0.00    -0.135 NA 
HETATM    6  C   UNL     1      -9.500   7.635  69.809  1.00  0.00    -0.156 C  
HETATM    7  O   UNL     1      -6.234   7.577  72.375  1.00  0.00    -0.043 OA 
HETATM    8  C   UNL     1      -6.579   7.980  69.231  1.00  0.00    -0.036 C  
HETATM    9  C   UNL     1      -7.058   7.549  71.468  1.00  0.00    -0.062 C  
HETATM   10  C   UNL     1      -7.211   8.651  70.448  1.00  0.00    -0.045 C  
HETATM   11  C   UNL     1      -7.990   6.375  71.184  1.00  0.00    -0.116 C  
HETATM   12  C   UNL     1      -8.745   8.880  70.364  1.00  0.00    -0.200 C  
ENDROOT
BRANCH   1  13
HETATM   13  O   UNL     1      -8.974   9.543  67.665  1.00  0.00    -0.119 OA 
BRANCH  13  14
HETATM   14  C   UNL     1      -8.422  10.456  66.835  1.00  0.00    -0.124 C  
HETATM   15  O   UNL     1      -7.756  10.166  65.849  1.00  0.00    -0.115 OA 
BRANCH  14  16
HETATM   16  C   UNL     1      -8.616  11.828  67.318  1.00  0.00    -0.162 A  
HETATM   17  C   UNL     1      -9.595  13.821  67.877  1.00  0.00    -0.222 A  
HETATM   18  C   UNL     1      -9.852  12.552  67.350  1.00  0.00    -0.201 A  
HETATM   19  N   UNL     1      -8.239  13.894  68.119  1.00  0.00    -0.148 NA 
HETATM   20  C   UNL     1     -11.166  12.246  66.938  1.00  0.00    -0.367 A  
HETATM   21  C   UNL     1      -7.635  12.714  67.768  1.00  0.00    -0.141 A  
HETATM   22  C   UNL     1     -12.173  13.190  67.116  1.00  0.00    -0.250 A  
HETATM   23  C   UNL     1     -11.900  14.428  67.691  1.00  0.00    -0.412 A  
HETATM   24  H   UNL     1      -7.757  14.707  68.502  1.00  0.00     0.000 HD 
HETATM   25  C   UNL     1     -10.599  14.775  68.074  1.00  0.00    -0.244 A  
ENDBRANCH  14  16
ENDBRANCH  13  14
ENDBRANCH   1  13
TORSDOF 3
ENDMDL
MODEL      254
REMARK 921   NORMALIZED FREE ENERGY PREDICTED BY IDOCK:   -3.44 KCAL/MOL
REMARK 922        TOTAL FREE ENERGY PREDICTED BY IDOCK:   -4.67 KCAL/MOL
REMARK 923 INTER-LIGAND FREE ENERGY PREDICTED BY IDOCK:   -3.93 KCAL/MOL
REMARK 924 INTRA-LIGAND FREE ENERGY PREDICTED BY IDOCK:   -0.74 KCAL/MOL
REMARK 927      BINDING AFFINITY PREDICTED BY RF-SCORE:    0.00 PKD
ROOT
HETATM    1  C   UNL     1      -7.935   8.202  71.671  1.00  0.00    -0.121 C  
HETATM    2  C   UNL     1      -8.774   9.120  70.765  1.00  0.00    -0.285 C  
HETATM    3  C   UNL     1      -8.552   8.271  73.062  1.00  0.00    -0.275 C  
HETATM    4  C   UNL     1     -10.311   8.961  70.905  1.00  0.00    -0.240 C  
HETATM    5  N   UNL     1     -10.795   8.939  72.326  1.00  0.00    -0.274 NA 
HETATM    6  C   UNL     1     -10.051   7.885  73.047  1.00  0.00    -0.317 C  
HETATM    7  O   UNL     1     -13.675   7.036  71.204  1.00  0.00    -0.255 OA 
HETATM    8  C   UNL     1     -10.745   7.700  70.137  1.00  0.00    -0.245 C  
HETATM    9  C   UNL     1     -12.554   7.376  71.565  1.00  0.00    -0.367 C  
HETATM   10  C   UNL     1     -11.291   6.675  71.129  1.00  0.00    -0.355 C  
HETATM   11  C   UNL     1     -12.260   8.593  72.437  1.00  0.00    -0.349 C  
HETATM   12  C   UNL     1     -10.474   6.513  72.440  1.00  0.00    -0.229 C  
ENDROOT
BRANCH   1  13
HETATM   13  O   UNL     1      -7.892   6.783  71.421  1.00  0.00    -0.096 OA 
BRANCH  13  14
HETATM   14  C   UNL     1      -7.488   6.211  70.266  1.00  0.00    -0.090 C  
HETATM   15  O   UNL     1      -7.139   6.844  69.277  1.00  0.00    -0.078 OA 
BRANCH  14  16
HETATM   16  C   UNL     1      -7.628   4.751  70.296  1.00  0.00    -0.057 A  
HETATM   17  C   UNL     1      -7.577   2.573  71.002  1.00  0.00    -0.032 A  
HETATM   18  C   UNL     1      -7.296   3.887  71.390  1.00  0.00    -0.040 A  
HETATM   19  N   UNL     1      -8.023   2.620  69.698  1.00  0.00    -0.042 NA 
HETATM   20  C   UNL     1      -6.743   4.109  72.668  1.00  0.00    -0.045 A  
HETATM   21  C   UNL     1      -8.039   3.917  69.253  1.00  0.00    -0.054 A  
HETATM   22  C   UNL     1      -6.544   3.028  73.522  1.00  0.00    -0.029 A  
HETATM   23  C   UNL     1      -6.880   1.736  73.130  1.00  0.00    -0.022 A  
HETATM   24  H   UNL     1      -8.301   1.809  69.146  1.00  0.00     0.000 HD 
HETATM   25  C   UNL     1      -7.395   1.478  71.855  1.00  0.00    -0.035 A  
ENDBRANCH  14  16
ENDBRANCH  13  14
ENDBRANCH   1  13
TORSDOF 3
ENDMDL
MODEL      255
REMARK 921   NORMALIZED FREE ENERGY PREDICTED BY IDOCK:   -3.36 KCAL/MOL
REMARK 922        TOTAL FREE ENERGY PREDICTED BY IDOCK:   -4.57 KCAL/MOL
REMARK 923 INTER-LIGAND FREE ENERGY PREDICTED BY IDOCK:   -3.85 KCAL/MOL
REMARK 924 INTRA-LIGAND FREE ENERGY PREDICTED BY IDOCK:   -0.73 KCAL/MOL
REMARK 927      BINDING AFFINITY PREDICTED BY RF-SCORE:    0.00 PKD
ROOT
HETATM    1  C   UNL     1      -8.883   8.764  70.078  1.00  0.00    -0.146 C  
HETATM    2  C   UNL     1      -8.174  10.109  69.838  1.00  0.00    -0.128 C  
HETATM    3  C   UNL     1     -10.381   9.043  70.047  1.00  0.00    -0.226 C  
HETATM    4  C   UNL     1      -8.748  10.960  68.675  1.00  0.00    -0.154 C  
HETATM    5  N   UNL     1     -10.245  11.081  68.688  1.00  0.00    -0.191 NA 
HETATM    6  C   UNL     1     -10.814   9.717  68.723  1.00  0.00    -0.188 C  
HETATM    7  O   UNL     1     -10.126  11.633  65.102  1.00  0.00    -0.243 OA 
HETATM    8  C   UNL     1      -8.236  10.380  67.345  1.00  0.00    -0.117 C  
HETATM    9  C   UNL     1     -10.132  11.125  66.218  1.00  0.00    -0.232 C  
HETATM   10  C   UNL     1      -9.421   9.836  66.550  1.00  0.00    -0.228 C  
HETATM   11  C   UNL     1     -10.785  11.749  67.447  1.00  0.00    -0.236 C  
HETATM   12  C   UNL     1     -10.462   9.027  67.371  1.00  0.00    -0.338 C  
ENDROOT
BRANCH   1  13
HETATM   13  O   UNL     1      -8.748   7.695  69.121  1.00  0.00    -0.138 OA 
BRANCH  13  14
HETATM   14  C   UNL     1      -7.842   6.695  69.198  1.00  0.00    -0.111 C  
HETATM   15  O   UNL     1      -6.630   6.868  69.160  1.00  0.00    -0.045 OA 
BRANCH  14  16
HETATM   16  C   UNL     1      -8.480   5.374  69.216  1.00  0.00    -0.099 A  
HETATM   17  C   UNL     1      -9.101   3.248  68.635  1.00  0.00    -0.149 A  
HETATM   18  C   UNL     1      -8.313   4.335  68.244  1.00  0.00    -0.098 A  
HETATM   19  N   UNL     1      -9.767   3.620  69.783  1.00  0.00    -0.153 NA 
HETATM   20  C   UNL     1      -7.584   4.242  67.040  1.00  0.00    -0.081 A  
HETATM   21  C   UNL     1      -9.422   4.901  70.133  1.00  0.00    -0.172 A  
HETATM   22  C   UNL     1      -7.627   3.059  66.307  1.00  0.00    -0.077 A  
HETATM   23  C   UNL     1      -8.380   1.973  66.745  1.00  0.00    -0.088 A  
HETATM   24  H   UNL     1     -10.421   3.030  70.297  1.00  0.00     0.000 HD 
HETATM   25  C   UNL     1      -9.143   2.049  67.915  1.00  0.00    -0.210 A  
ENDBRANCH  14  16
ENDBRANCH  13  14
ENDBRANCH   1  13
TORSDOF 3
ENDMDL
MODEL      256
REMARK 921   NORMALIZED FREE ENERGY PREDICTED BY IDOCK:   -3.12 KCAL/MOL
REMARK 922        TOTAL FREE ENERGY PREDICTED BY IDOCK:   -4.30 KCAL/MOL
REMARK 923 INTER-LIGAND FREE ENERGY PREDICTED BY IDOCK:   -3.32 KCAL/MOL
REMARK 924 INTRA-LIGAND FREE ENERGY PREDICTED BY IDOCK:   -0.98 KCAL/MOL
REMARK 927      BINDING AFFINITY PREDICTED BY RF-SCORE:    0.00 PKD
ROOT
HETATM    1  C   UNL     1     -10.511   5.767  67.536  1.00  0.00    -0.245 C  
HETATM    2  C   UNL     1     -10.680   5.083  66.168  1.00  0.00    -0.264 C  
HETATM    3  C   UNL     1      -9.932   4.723  68.483  1.00  0.00    -0.160 C  
HETATM    4  C   UNL     1      -9.464   4.243  65.696  1.00  0.00    -0.176 C  
HETATM    5  N   UNL     1      -8.912   3.323  66.746  1.00  0.00    -0.145 NA 
HETATM    6  C   UNL     1      -8.607   4.130  67.946  1.00  0.00    -0.096 C  
HETATM    7  O   UNL     1      -5.709   3.474  65.043  1.00  0.00    -0.016 OA 
HETATM    8  C   UNL     1      -8.388   5.200  65.155  1.00  0.00    -0.141 C  
HETATM    9  C   UNL     1      -6.689   3.721  65.739  1.00  0.00    -0.045 C  
HETATM   10  C   UNL     1      -7.155   5.122  66.052  1.00  0.00    -0.072 C  
HETATM   11  C   UNL     1      -7.621   2.665  66.323  1.00  0.00    -0.076 C  
HETATM   12  C   UNL     1      -7.439   5.095  67.579  1.00  0.00    -0.083 C  
ENDROOT
BRANCH   1  13
HETATM   13  O   UNL     1      -9.591   6.865  67.687  1.00  0.00    -0.125 OA 
BRANCH  13  14
HETATM   14  C   UNL     1      -9.946   8.164  67.809  1.00  0.00    -0.181 C  
HETATM   15  O   UNL     1     -10.733   8.729  67.059  1.00  0.00    -0.262 OA 
BRANCH  14  16
HETATM   16  C   UNL     1      -9.193   8.843  68.869  1.00  0.00    -0.140 A  
HETATM   17  C   UNL     1      -7.484   9.805  70.052  1.00  0.00    -0.154 A  
HETATM   18  C   UNL     1      -7.798   9.169  68.846  1.00  0.00    -0.094 A  
HETATM   19  N   UNL     1      -8.635   9.829  70.811  1.00  0.00    -0.367 NA 
HETATM   20  C   UNL     1      -6.764   8.941  67.914  1.00  0.00    -0.069 A  
HETATM   21  C   UNL     1      -9.664   9.237  70.124  1.00  0.00    -0.218 A  
HETATM   22  C   UNL     1      -5.480   9.401  68.195  1.00  0.00    -0.037 A  
HETATM   23  C   UNL     1      -5.206  10.076  69.381  1.00  0.00    -0.035 A  
HETATM   24  H   UNL     1      -8.711  10.228  71.746  1.00  0.00     0.000 HD 
HETATM   25  C   UNL     1      -6.202  10.283  70.342  1.00  0.00    -0.120 A  
ENDBRANCH  14  16
ENDBRANCH  13  14
ENDBRANCH   1  13
TORSDOF 3
ENDMDL
MODEL      257
REMARK 921   NORMALIZED FREE ENERGY PREDICTED BY IDOCK:   -3.09 KCAL/MOL
REMARK 922        TOTAL FREE ENERGY PREDICTED BY IDOCK:   -4.27 KCAL/MOL
REMARK 923 INTER-LIGAND FREE ENERGY PREDICTED BY IDOCK:   -3.05 KCAL/MOL
REMARK 924 INTRA-LIGAND FREE ENERGY PREDICTED BY IDOCK:   -1.22 KCAL/MOL
REMARK 927      BINDING AFFINITY PREDICTED BY RF-SCORE:    0.00 PKD
ROOT
HETATM    1  C   UNL     1      -7.503  10.471  66.054  1.00  0.00    -0.137 C  
HETATM    2  C   UNL     1      -6.219   9.635  66.189  1.00  0.00    -0.068 C  
HETATM    3  C   UNL     1      -8.166  10.055  64.746  1.00  0.00    -0.155 C  
HETATM    4  C   UNL     1      -6.381   8.122  65.886  1.00  0.00    -0.045 C  
HETATM    5  N   UNL     1      -7.139   7.830  64.624  1.00  0.00    -0.066 NA 
HETATM    6  C   UNL     1      -8.438   8.533  64.697  1.00  0.00    -0.108 C  
HETATM    7  O   UNL     1      -8.065   4.622  66.046  1.00  0.00    -0.102 OA 
HETATM    8  C   UNL     1      -7.027   7.444  67.107  1.00  0.00    -0.083 C  
HETATM    9  C   UNL     1      -8.004   5.813  65.763  1.00  0.00    -0.110 C  
HETATM   10  C   UNL     1      -8.404   6.916  66.713  1.00  0.00    -0.116 C  
HETATM   11  C   UNL     1      -7.445   6.362  64.455  1.00  0.00    -0.090 C  
HETATM   12  C   UNL     1      -9.263   7.873  65.843  1.00  0.00    -0.102 C  
ENDROOT
BRANCH   1  13
HETATM   13  O   UNL     1      -8.573  10.312  67.006  1.00  0.00    -0.129 OA 
BRANCH  13  14
HETATM   14  C   UNL     1      -8.558  10.776  68.276  1.00  0.00    -0.135 C  
HETATM   15  O   UNL     1      -8.678  11.958  68.571  1.00  0.00    -0.165 OA 
BRANCH  14  16
HETATM   16  C   UNL     1      -8.264   9.715  69.245  1.00  0.00    -0.123 A  
HETATM   17  C   UNL     1      -8.460   7.845  70.554  1.00  0.00    -0.126 A  
HETATM   18  C   UNL     1      -9.117   8.616  69.589  1.00  0.00    -0.149 A  
HETATM   19  N   UNL     1      -7.263   8.473  70.830  1.00  0.00    -0.054 NA 
HETATM   20  C   UNL     1     -10.413   8.232  69.187  1.00  0.00    -0.217 A  
HETATM   21  C   UNL     1      -7.140   9.607  70.069  1.00  0.00    -0.104 A  
HETATM   22  C   UNL     1     -10.977   7.075  69.718  1.00  0.00    -0.283 A  
HETATM   23  C   UNL     1     -10.280   6.298  70.638  1.00  0.00    -0.240 A  
HETATM   24  H   UNL     1      -6.571   8.142  71.502  1.00  0.00     0.000 HD 
HETATM   25  C   UNL     1      -9.009   6.673  71.086  1.00  0.00    -0.145 A  
ENDBRANCH  14  16
ENDBRANCH  13  14
ENDBRANCH   1  13
TORSDOF 3
ENDMDL
MODEL      258
REMARK 921   NORMALIZED FREE ENERGY PREDICTED BY IDOCK:   -3.01 KCAL/MOL
REMARK 922        TOTAL FREE ENERGY PREDICTED BY IDOCK:   -4.17 KCAL/MOL
REMARK 923 INTER-LIGAND FREE ENERGY PREDICTED BY IDOCK:   -3.28 KCAL/MOL
REMARK 924 INTRA-LIGAND FREE ENERGY PREDICTED BY IDOCK:   -0.89 KCAL/MOL
REMARK 927      BINDING AFFINITY PREDICTED BY RF-SCORE:    0.00 PKD
ROOT
HETATM    1  C   UNL     1      -9.902   4.549  67.393  1.00  0.00    -0.157 C  
HETATM    2  C   UNL     1     -10.400   4.603  65.938  1.00  0.00    -0.315 C  
HETATM    3  C   UNL     1      -9.221   3.197  67.576  1.00  0.00    -0.233 C  
HETATM    4  C   UNL     1      -9.375   4.135  64.871  1.00  0.00    -0.164 C  
HETATM    5  N   UNL     1      -8.691   2.843  65.208  1.00  0.00    -0.116 NA 
HETATM    6  C   UNL     1      -8.085   2.981  66.549  1.00  0.00    -0.085 C  
HETATM    7  O   UNL     1      -5.906   3.899  63.134  1.00  0.00    -0.013 OA 
HETATM    8  C   UNL     1      -8.363   5.270  64.633  1.00  0.00    -0.141 C  
HETATM    9  C   UNL     1      -6.699   3.748  64.057  1.00  0.00    -0.043 C  
HETATM   10  C   UNL     1      -6.982   4.809  65.092  1.00  0.00    -0.062 C  
HETATM   11  C   UNL     1      -7.569   2.512  64.253  1.00  0.00    -0.071 C  
HETATM   12  C   UNL     1      -6.947   4.041  66.442  1.00  0.00    -0.059 C  
ENDROOT
BRANCH   1  13
HETATM   13  O   UNL     1      -8.889   5.469  67.845  1.00  0.00    -0.107 OA 
BRANCH  13  14
HETATM   14  C   UNL     1      -9.120   6.571  68.593  1.00  0.00    -0.128 C  
HETATM   15  O   UNL     1      -9.258   6.552  69.810  1.00  0.00    -0.144 OA 
BRANCH  14  16
HETATM   16  C   UNL     1      -9.300   7.769  67.766  1.00  0.00    -0.155 A  
HETATM   17  C   UNL     1      -8.957   9.811  66.787  1.00  0.00    -0.138 A  
HETATM   18  C   UNL     1      -8.408   8.887  67.683  1.00  0.00    -0.110 A  
HETATM   19  N   UNL     1     -10.167   9.301  66.368  1.00  0.00    -0.260 NA 
HETATM   20  C   UNL     1      -7.195   9.210  68.326  1.00  0.00    -0.078 A  
HETATM   21  C   UNL     1     -10.397   8.087  66.962  1.00  0.00    -0.344 A  
HETATM   22  C   UNL     1      -6.554  10.406  68.012  1.00  0.00    -0.061 A  
HETATM   23  C   UNL     1      -7.096  11.283  67.078  1.00  0.00    -0.129 A  
HETATM   24  H   UNL     1     -10.798   9.759  65.711  1.00  0.00     0.000 HD 
HETATM   25  C   UNL     1      -8.317  11.009  66.452  1.00  0.00    -0.165 A  
ENDBRANCH  14  16
ENDBRANCH  13  14
ENDBRANCH   1  13
TORSDOF 3
ENDMDL
MODEL      259
REMARK 921   NORMALIZED FREE ENERGY PREDICTED BY IDOCK:   -3.01 KCAL/MOL
REMARK 922        TOTAL FREE ENERGY PREDICTED BY IDOCK:   -4.16 KCAL/MOL
REMARK 923 INTER-LIGAND FREE ENERGY PREDICTED BY IDOCK:   -3.07 KCAL/MOL
REMARK 924 INTRA-LIGAND FREE ENERGY PREDICTED BY IDOCK:   -1.09 KCAL/MOL
REMARK 927      BINDING AFFINITY PREDICTED BY RF-SCORE:    0.00 PKD
ROOT
HETATM    1  C   UNL     1      -9.369   9.687  65.667  1.00  0.00    -0.237 C  
HETATM    2  C   UNL     1     -10.638  10.367  65.123  1.00  0.00    -0.034 C  
HETATM    3  C   UNL     1      -8.226  10.680  65.490  1.00  0.00    -0.141 C  
HETATM    4  C   UNL     1     -10.849  11.833  65.581  1.00  0.00    -0.292 C  
HETATM    5  N   UNL     1      -9.626  12.694  65.457  1.00  0.00    -0.092 NA 
HETATM    6  C   UNL     1      -8.524  12.030  66.185  1.00  0.00     0.177 C  
HETATM    7  O   UNL     1     -10.964  14.793  68.099  1.00  0.00    -0.254 OA 
HETATM    8  C   UNL     1     -11.395  11.824  67.019  1.00  0.00    -0.387 C  
HETATM    9  C   UNL     1     -10.424  13.891  67.469  1.00  0.00    -0.248 C  
HETATM   10  C   UNL     1     -10.364  12.461  67.948  1.00  0.00    -0.215 C  
HETATM   11  C   UNL     1      -9.806  14.056  66.084  1.00  0.00    -0.303 C  
HETATM   12  C   UNL     1      -8.890  12.039  67.700  1.00  0.00    -0.172 C  
ENDROOT
BRANCH   1  13
HETATM   13  O   UNL     1      -9.272   9.350  67.065  1.00  0.00    -0.138 OA 
BRANCH  13  14
HETATM   14  C   UNL     1      -8.604   8.285  67.561  1.00  0.00    -0.129 C  
HETATM   15  O   UNL     1      -8.483   7.220  66.969  1.00  0.00    -0.116 OA 
BRANCH  14  16
HETATM   16  C   UNL     1      -8.146   8.515  68.935  1.00  0.00    -0.119 A  
HETATM   17  C   UNL     1      -6.979   9.314  70.737  1.00  0.00    -0.109 A  
HETATM   18  C   UNL     1      -7.096   9.399  69.346  1.00  0.00    -0.054 A  
HETATM   19  N   UNL     1      -7.893   8.375  71.165  1.00  0.00    -0.095 NA 
HETATM   20  C   UNL     1      -6.207  10.240  68.644  1.00  0.00    -0.047 A  
HETATM   21  C   UNL     1      -8.586   7.870  70.095  1.00  0.00    -0.134 A  
HETATM   22  C   UNL     1      -5.280  10.997  69.356  1.00  0.00    -0.041 A  
HETATM   23  C   UNL     1      -5.219  10.932  70.744  1.00  0.00    -0.102 A  
HETATM   24  H   UNL     1      -8.034   8.096  72.136  1.00  0.00     0.000 HD 
HETATM   25  C   UNL     1      -6.062  10.079  71.465  1.00  0.00     0.211 A  
ENDBRANCH  14  16
ENDBRANCH  13  14
ENDBRANCH   1  13
TORSDOF 3
ENDMDL
MODEL      260
REMARK 921   NORMALIZED FREE ENERGY PREDICTED BY IDOCK:   -3.01 KCAL/MOL
REMARK 922        TOTAL FREE ENERGY PREDICTED BY IDOCK:   -4.16 KCAL/MOL
REMARK 923 INTER-LIGAND FREE ENERGY PREDICTED BY IDOCK:   -3.52 KCAL/MOL
REMARK 924 INTRA-LIGAND FREE ENERGY PREDICTED BY IDOCK:   -0.65 KCAL/MOL
REMARK 927      BINDING AFFINITY PREDICTED BY RF-SCORE:    0.00 PKD
ROOT
HETATM    1  C   UNL     1      -8.897   6.718  67.763  1.00  0.00    -0.118 C  
HETATM    2  C   UNL     1      -9.767   7.894  68.241  1.00  0.00    -0.172 C  
HETATM    3  C   UNL     1      -7.805   7.308  66.879  1.00  0.00    -0.111 C  
HETATM    4  C   UNL     1      -8.982   9.130  68.753  1.00  0.00    -0.136 C  
HETATM    5  N   UNL     1      -7.862   9.560  67.850  1.00  0.00    -0.091 NA 
HETATM    6  C   UNL     1      -6.987   8.392  67.620  1.00  0.00    -0.075 C  
HETATM    7  O   UNL     1      -6.231  11.024  70.743  1.00  0.00    -0.343 OA 
HETATM    8  C   UNL     1      -8.483   8.838  70.179  1.00  0.00    -0.139 C  
HETATM    9  C   UNL     1      -6.651  10.246  69.894  1.00  0.00    -0.114 C  
HETATM   10  C   UNL     1      -6.956   8.795  70.173  1.00  0.00    -0.044 C  
HETATM   11  C   UNL     1      -7.002  10.638  68.462  1.00  0.00    -0.067 C  
HETATM   12  C   UNL     1      -6.314   8.035  68.980  1.00  0.00    -0.040 C  
ENDROOT
BRANCH   1  13
HETATM   13  O   UNL     1      -8.140   5.945  68.715  1.00  0.00    -0.101 OA 
BRANCH  13  14
HETATM   14  C   UNL     1      -8.542   4.775  69.258  1.00  0.00    -0.083 C  
HETATM   15  O   UNL     1      -8.526   3.705  68.662  1.00  0.00    -0.079 OA 
BRANCH  14  16
HETATM   16  C   UNL     1      -9.106   4.956  70.600  1.00  0.00    -0.174 A  
HETATM   17  C   UNL     1     -10.502   5.561  72.312  1.00  0.00    -0.217 A  
HETATM   18  C   UNL     1     -10.345   5.600  70.923  1.00  0.00    -0.303 A  
HETATM   19  N   UNL     1      -9.377   4.956  72.832  1.00  0.00    -0.130 NA 
HETATM   20  C   UNL     1     -11.331   6.247  70.150  1.00  0.00    -0.476 A  
HETATM   21  C   UNL     1      -8.521   4.607  71.820  1.00  0.00    -0.113 A  
HETATM   22  C   UNL     1     -12.452   6.779  70.783  1.00  0.00    -0.212 A  
HETATM   23  C   UNL     1     -12.608   6.682  72.162  1.00  0.00    -0.169 A  
HETATM   24  H   UNL     1      -9.207   4.793  73.824  1.00  0.00     0.000 HD 
HETATM   25  C   UNL     1     -11.629   6.079  72.959  1.00  0.00    -0.010 A  
ENDBRANCH  14  16
ENDBRANCH  13  14
ENDBRANCH   1  13
TORSDOF 3
ENDMDL
MODEL      261
REMARK 921   NORMALIZED FREE ENERGY PREDICTED BY IDOCK:   -2.88 KCAL/MOL
REMARK 922        TOTAL FREE ENERGY PREDICTED BY IDOCK:   -4.01 KCAL/MOL
REMARK 923 INTER-LIGAND FREE ENERGY PREDICTED BY IDOCK:   -3.15 KCAL/MOL
REMARK 924 INTRA-LIGAND FREE ENERGY PREDICTED BY IDOCK:   -0.86 KCAL/MOL
REMARK 927      BINDING AFFINITY PREDICTED BY RF-SCORE:    0.00 PKD
ROOT
HETATM    1  C   UNL     1     -10.602   5.707  67.473  1.00  0.00    -0.221 C  
HETATM    2  C   UNL     1     -10.562   5.117  66.052  1.00  0.00    -0.236 C  
HETATM    3  C   UNL     1     -10.162   4.599  68.423  1.00  0.00     0.003 C  
HETATM    4  C   UNL     1      -9.284   4.307  65.709  1.00  0.00    -0.146 C  
HETATM    5  N   UNL     1      -8.887   3.317  66.765  1.00  0.00    -0.130 NA 
HETATM    6  C   UNL     1      -8.769   4.039  68.049  1.00  0.00    -0.101 C  
HETATM    7  O   UNL     1      -5.470   3.569  65.570  1.00  0.00    -0.009 OA 
HETATM    8  C   UNL     1      -8.146   5.295  65.400  1.00  0.00    -0.121 C  
HETATM    9  C   UNL     1      -6.542   3.773  66.128  1.00  0.00    -0.037 C  
HETATM   10  C   UNL     1      -7.058   5.151  66.462  1.00  0.00    -0.069 C  
HETATM   11  C   UNL     1      -7.545   2.683  66.494  1.00  0.00    -0.071 C  
HETATM   12  C   UNL     1      -7.566   5.022  67.925  1.00  0.00    -0.083 C  
ENDROOT
BRANCH   1  13
HETATM   13  O   UNL     1      -9.721   6.789  67.832  1.00  0.00    -0.127 OA 
BRANCH  13  14
HETATM   14  C   UNL     1     -10.106   8.070  68.029  1.00  0.00    -0.194 C  
HETATM   15  O   UNL     1     -10.907   8.659  67.314  1.00  0.00    -0.217 OA 
BRANCH  14  16
HETATM   16  C   UNL     1      -9.365   8.705  69.125  1.00  0.00    -0.153 A  
HETATM   17  C   UNL     1      -8.338   9.058  71.140  1.00  0.00    -0.159 A  
HETATM   18  C   UNL     1      -9.044   8.113  70.390  1.00  0.00    -0.150 A  
HETATM   19  N   UNL     1      -8.266  10.208  70.383  1.00  0.00    -0.397 NA 
HETATM   20  C   UNL     1      -9.330   6.862  70.975  1.00  0.00    -0.156 A  
HETATM   21  C   UNL     1      -8.896  10.020  69.180  1.00  0.00    -0.168 A  
HETATM   22  C   UNL     1      -8.856   6.585  72.255  1.00  0.00    -0.134 A  
HETATM   23  C   UNL     1      -8.112   7.525  72.961  1.00  0.00    -0.141 A  
HETATM   24  H   UNL     1      -7.811  11.073  70.675  1.00  0.00     0.000 HD 
HETATM   25  C   UNL     1      -7.845   8.789  72.422  1.00  0.00     0.068 A  
ENDBRANCH  14  16
ENDBRANCH  13  14
ENDBRANCH   1  13
TORSDOF 3
ENDMDL
MODEL      262
REMARK 921   NORMALIZED FREE ENERGY PREDICTED BY IDOCK:   -2.80 KCAL/MOL
REMARK 922        TOTAL FREE ENERGY PREDICTED BY IDOCK:   -3.92 KCAL/MOL
REMARK 923 INTER-LIGAND FREE ENERGY PREDICTED BY IDOCK:   -4.44 KCAL/MOL
REMARK 924 INTRA-LIGAND FREE ENERGY PREDICTED BY IDOCK:    0.52 KCAL/MOL
REMARK 927      BINDING AFFINITY PREDICTED BY RF-SCORE:    0.00 PKD
ROOT
HETATM    1  C   UNL     1      -9.717  13.675  67.785  1.00  0.00    -0.225 C  
HETATM    2  C   UNL     1      -9.005  13.199  66.507  1.00  0.00    -0.072 C  
HETATM    3  C   UNL     1     -10.443  14.967  67.431  1.00  0.00    -0.257 C  
HETATM    4  C   UNL     1      -9.867  13.238  65.218  1.00  0.00    -0.075 C  
HETATM    5  N   UNL     1     -10.619  14.523  65.025  1.00  0.00    -0.413 NA 
HETATM    6  C   UNL     1     -11.417  14.773  66.244  1.00  0.00    -0.316 C  
HETATM    7  O   UNL     1     -13.041  12.685  63.042  1.00  0.00    -0.296 OA 
HETATM    8  C   UNL     1     -10.810  12.022  65.221  1.00  0.00    -0.340 C  
HETATM    9  C   UNL     1     -12.398  13.171  63.966  1.00  0.00    -0.352 C  
HETATM   10  C   UNL     1     -12.253  12.511  65.316  1.00  0.00    -0.493 C  
HETATM   11  C   UNL     1     -11.591  14.461  63.872  1.00  0.00     0.137 C  
HETATM   12  C   UNL     1     -12.504  13.661  66.330  1.00  0.00    -0.420 C  
ENDROOT
BRANCH   1  13
HETATM   13  O   UNL     1     -10.768  12.879  68.367  1.00  0.00    -0.240 OA 
BRANCH  13  14
HETATM   14  C   UNL     1     -10.591  11.683  68.972  1.00  0.00    -0.153 C  
HETATM   15  O   UNL     1     -11.205  11.327  69.970  1.00  0.00    -0.238 OA 
BRANCH  14  16
HETATM   16  C   UNL     1      -9.501  10.914  68.363  1.00  0.00    -0.178 A  
HETATM   17  C   UNL     1      -7.409  10.148  67.832  1.00  0.00    -0.087 A  
HETATM   18  C   UNL     1      -8.100  11.072  68.622  1.00  0.00    -0.149 A  
HETATM   19  N   UNL     1      -8.347   9.475  67.078  1.00  0.00    -0.123 NA 
HETATM   20  C   UNL     1      -7.358  11.953  69.436  1.00  0.00     0.178 A  
HETATM   21  C   UNL     1      -9.605   9.938  67.369  1.00  0.00    -0.155 A  
HETATM   22  C   UNL     1      -5.970  11.842  69.471  1.00  0.00    -0.098 A  
HETATM   23  C   UNL     1      -5.311  10.879  68.714  1.00  0.00    -0.040 A  
HETATM   24  H   UNL     1      -8.136   8.740  66.403  1.00  0.00     0.000 HD 
HETATM   25  C   UNL     1      -6.016  10.017  67.868  1.00  0.00    -0.038 A  
ENDBRANCH  14  16
ENDBRANCH  13  14
ENDBRANCH   1  13
TORSDOF 3
ENDMDL
MODEL      263
REMARK 921   NORMALIZED FREE ENERGY PREDICTED BY IDOCK:   -2.77 KCAL/MOL
REMARK 922        TOTAL FREE ENERGY PREDICTED BY IDOCK:   -3.88 KCAL/MOL
REMARK 923 INTER-LIGAND FREE ENERGY PREDICTED BY IDOCK:   -3.10 KCAL/MOL
REMARK 924 INTRA-LIGAND FREE ENERGY PREDICTED BY IDOCK:   -0.78 KCAL/MOL
REMARK 927      BINDING AFFINITY PREDICTED BY RF-SCORE:    0.00 PKD
ROOT
HETATM    1  C   UNL     1      -6.648   5.374  69.145  1.00  0.00    -0.051 C  
HETATM    2  C   UNL     1      -6.283   5.241  70.634  1.00  0.00    -0.023 C  
HETATM    3  C   UNL     1      -7.396   4.103  68.758  1.00  0.00    -0.055 C  
HETATM    4  C   UNL     1      -7.430   4.744  71.553  1.00  0.00    -0.078 C  
HETATM    5  N   UNL     1      -8.164   3.548  71.021  1.00  0.00    -0.065 NA 
HETATM    6  C   UNL     1      -8.633   3.868  69.657  1.00  0.00    -0.069 C  
HETATM    7  O   UNL     1     -11.053   4.592  72.955  1.00  0.00    -0.234 OA 
HETATM    8  C   UNL     1      -8.383   5.921  71.826  1.00  0.00    -0.119 C  
HETATM    9  C   UNL     1     -10.190   4.477  72.091  1.00  0.00    -0.188 C  
HETATM   10  C   UNL     1      -9.744   5.614  71.205  1.00  0.00    -0.218 C  
HETATM   11  C   UNL     1      -9.387   3.206  71.836  1.00  0.00    -0.128 C  
HETATM   12  C   UNL     1      -9.704   4.993  69.782  1.00  0.00    -0.266 C  
ENDROOT
BRANCH   1  13
HETATM   13  O   UNL     1      -7.553   6.408  68.711  1.00  0.00    -0.089 OA 
BRANCH  13  14
HETATM   14  C   UNL     1      -7.340   7.237  67.665  1.00  0.00    -0.093 C  
HETATM   15  O   UNL     1      -6.329   7.216  66.973  1.00  0.00    -0.049 OA 
BRANCH  14  16
HETATM   16  C   UNL     1      -8.404   8.238  67.530  1.00  0.00    -0.130 A  
HETATM   17  C   UNL     1      -9.519  10.238  67.477  1.00  0.00    -0.152 A  
HETATM   18  C   UNL     1      -8.264   9.656  67.683  1.00  0.00    -0.114 A  
HETATM   19  N   UNL     1     -10.411   9.211  67.251  1.00  0.00    -0.267 NA 
HETATM   20  C   UNL     1      -7.179  10.492  68.018  1.00  0.00    -0.087 A  
HETATM   21  C   UNL     1      -9.762   8.004  67.301  1.00  0.00    -0.177 A  
HETATM   22  C   UNL     1      -7.374  11.869  68.081  1.00  0.00    -0.092 A  
HETATM   23  C   UNL     1      -8.622  12.427  67.821  1.00  0.00    -0.172 A  
HETATM   24  H   UNL     1     -11.408   9.332  67.072  1.00  0.00     0.000 HD 
HETATM   25  C   UNL     1      -9.726  11.621  67.524  1.00  0.00    -0.185 A  
ENDBRANCH  14  16
ENDBRANCH  13  14
ENDBRANCH   1  13
TORSDOF 3
ENDMDL
MODEL      264
REMARK 921   NORMALIZED FREE ENERGY PREDICTED BY IDOCK:   -2.62 KCAL/MOL
REMARK 922        TOTAL FREE ENERGY PREDICTED BY IDOCK:   -3.71 KCAL/MOL
REMARK 923 INTER-LIGAND FREE ENERGY PREDICTED BY IDOCK:   -3.21 KCAL/MOL
REMARK 924 INTRA-LIGAND FREE ENERGY PREDICTED BY IDOCK:   -0.51 KCAL/MOL
REMARK 927      BINDING AFFINITY PREDICTED BY RF-SCORE:    0.00 PKD
ROOT
HETATM    1  C   UNL     1      -6.687   8.139  71.863  1.00  0.00    -0.070 C  
HETATM    2  C   UNL     1      -7.462   9.030  70.876  1.00  0.00    -0.128 C  
HETATM    3  C   UNL     1      -7.412   8.227  73.201  1.00  0.00    -0.155 C  
HETATM    4  C   UNL     1      -9.003   8.857  70.901  1.00  0.00    -0.222 C  
HETATM    5  N   UNL     1      -9.596   8.857  72.280  1.00  0.00    -0.300 NA 
HETATM    6  C   UNL     1      -8.900   7.825  73.077  1.00  0.00    -0.192 C  
HETATM    7  O   UNL     1     -12.363   6.902  70.976  1.00  0.00    -0.381 OA 
HETATM    8  C   UNL     1      -9.365   7.577  70.126  1.00  0.00    -0.157 C  
HETATM    9  C   UNL     1     -11.276   7.261  71.416  1.00  0.00    -0.248 C  
HETATM   10  C   UNL     1      -9.976   6.566  71.093  1.00  0.00    -0.202 C  
HETATM   11  C   UNL     1     -11.062   8.498  72.283  1.00  0.00    -0.360 C  
HETATM   12  C   UNL     1      -9.262   6.438  72.466  1.00  0.00    -0.139 C  
ENDROOT
BRANCH   1  13
HETATM   13  O   UNL     1      -6.612   6.716  71.646  1.00  0.00    -0.052 OA 
BRANCH  13  14
HETATM   14  C   UNL     1      -6.083   6.125  70.551  1.00  0.00    -0.030 C  
HETATM   15  O   UNL     1      -5.647   6.742  69.587  1.00  0.00    -0.014 OA 
BRANCH  14  16
HETATM   16  C   UNL     1      -6.200   4.664  70.604  1.00  0.00    -0.022 A  
HETATM   17  C   UNL     1      -7.046   2.540  70.463  1.00  0.00    -0.033 A  
HETATM   18  C   UNL     1      -7.359   3.890  70.270  1.00  0.00    -0.042 A  
HETATM   19  N   UNL     1      -5.755   2.487  70.943  1.00  0.00    -0.013 NA 
HETATM   20  C   UNL     1      -8.664   4.228  69.854  1.00  0.00    -0.110 A  
HETATM   21  C   UNL     1      -5.241   3.753  71.054  1.00  0.00    -0.004 A  
HETATM   22  C   UNL     1      -9.581   3.213  69.598  1.00  0.00    -0.115 A  
HETATM   23  C   UNL     1      -9.229   1.875  69.749  1.00  0.00    -0.168 A  
HETATM   24  H   UNL     1      -5.256   1.630  71.182  1.00  0.00     0.000 HD 
HETATM   25  C   UNL     1      -7.954   1.510  70.196  1.00  0.00    -0.050 A  
ENDBRANCH  14  16
ENDBRANCH  13  14
ENDBRANCH   1  13
TORSDOF 3
ENDMDL
MODEL      265
REMARK 921   NORMALIZED FREE ENERGY PREDICTED BY IDOCK:   -2.56 KCAL/MOL
REMARK 922        TOTAL FREE ENERGY PREDICTED BY IDOCK:   -3.64 KCAL/MOL
REMARK 923 INTER-LIGAND FREE ENERGY PREDICTED BY IDOCK:   -2.77 KCAL/MOL
REMARK 924 INTRA-LIGAND FREE ENERGY PREDICTED BY IDOCK:   -0.87 KCAL/MOL
REMARK 927      BINDING AFFINITY PREDICTED BY RF-SCORE:    0.00 PKD
ROOT
HETATM    1  C   UNL     1      -7.812  10.981  66.139  1.00  0.00    -0.117 C  
HETATM    2  C   UNL     1      -6.714   9.997  66.576  1.00  0.00    -0.082 C  
HETATM    3  C   UNL     1      -8.224  10.585  64.726  1.00  0.00    -0.100 C  
HETATM    4  C   UNL     1      -7.010   8.503  66.279  1.00  0.00    -0.077 C  
HETATM    5  N   UNL     1      -7.508   8.245  64.887  1.00  0.00    -0.087 NA 
HETATM    6  C   UNL     1      -8.683   9.109  64.653  1.00  0.00    -0.166 C  
HETATM    7  O   UNL     1      -9.148   5.259  66.141  1.00  0.00    -0.138 OA 
HETATM    8  C   UNL     1      -7.991   7.978  67.341  1.00  0.00    -0.122 C  
HETATM    9  C   UNL     1      -8.865   6.417  65.851  1.00  0.00    -0.131 C  
HETATM   10  C   UNL     1      -9.309   7.609  66.662  1.00  0.00    -0.239 C  
HETATM   11  C   UNL     1      -7.966   6.820  64.687  1.00  0.00    -0.117 C  
HETATM   12  C   UNL     1      -9.820   8.621  65.601  1.00  0.00     0.212 C  
ENDROOT
BRANCH   1  13
HETATM   13  O   UNL     1      -9.075  11.010  66.832  1.00  0.00    -0.153 OA 
BRANCH  13  14
HETATM   14  C   UNL     1      -9.405  11.885  67.808  1.00  0.00    -0.184 C  
HETATM   15  O   UNL     1      -8.736  12.064  68.818  1.00  0.00    -0.058 OA 
BRANCH  14  16
HETATM   16  C   UNL     1     -10.713  12.507  67.571  1.00  0.00    -0.250 A  
HETATM   17  C   UNL     1     -12.416  13.696  66.606  1.00  0.00    -0.240 A  
HETATM   18  C   UNL     1     -11.087  13.293  66.433  1.00  0.00    -0.313 A  
HETATM   19  N   UNL     1     -12.831  13.213  67.829  1.00  0.00     0.722 NA 
HETATM   20  C   UNL     1     -10.394  13.730  65.286  1.00  0.00    -0.378 A  
HETATM   21  C   UNL     1     -11.815  12.516  68.430  1.00  0.00    -0.304 A  
HETATM   22  C   UNL     1     -11.062  14.500  64.337  1.00  0.00    -0.176 A  
HETATM   23  C   UNL     1     -12.399  14.843  64.509  1.00  0.00    -0.330 A  
HETATM   24  H   UNL     1     -13.759  13.354  68.228  1.00  0.00     0.000 HD 
HETATM   25  C   UNL     1     -13.103  14.457  65.655  1.00  0.00     0.061 A  
ENDBRANCH  14  16
ENDBRANCH  13  14
ENDBRANCH   1  13
TORSDOF 3
ENDMDL
MODEL      266
REMARK 921   NORMALIZED FREE ENERGY PREDICTED BY IDOCK:   -2.43 KCAL/MOL
REMARK 922        TOTAL FREE ENERGY PREDICTED BY IDOCK:   -3.49 KCAL/MOL
REMARK 923 INTER-LIGAND FREE ENERGY PREDICTED BY IDOCK:   -2.72 KCAL/MOL
REMARK 924 INTRA-LIGAND FREE ENERGY PREDICTED BY IDOCK:   -0.77 KCAL/MOL
REMARK 927      BINDING AFFINITY PREDICTED BY RF-SCORE:    0.00 PKD
ROOT
HETATM    1  C   UNL     1      -9.708   4.147  67.675  1.00  0.00    -0.122 C  
HETATM    2  C   UNL     1     -10.084   4.578  66.247  1.00  0.00    -0.280 C  
HETATM    3  C   UNL     1      -8.562   3.150  67.548  1.00  0.00    -0.121 C  
HETATM    4  C   UNL     1      -8.886   4.934  65.328  1.00  0.00    -0.152 C  
HETATM    5  N   UNL     1      -7.771   3.930  65.361  1.00  0.00    -0.082 NA 
HETATM    6  C   UNL     1      -7.365   3.745  66.770  1.00  0.00    -0.068 C  
HETATM    7  O   UNL     1      -5.495   6.582  64.381  1.00  0.00    -0.024 OA 
HETATM    8  C   UNL     1      -8.392   6.345  65.691  1.00  0.00    -0.147 C  
HETATM    9  C   UNL     1      -6.225   5.829  65.016  1.00  0.00    -0.036 C  
HETATM   10  C   UNL     1      -6.977   6.248  66.255  1.00  0.00    -0.066 C  
HETATM   11  C   UNL     1      -6.547   4.394  64.610  1.00  0.00    -0.043 C  
HETATM   12  C   UNL     1      -6.735   5.085  67.257  1.00  0.00    -0.055 C  
ENDROOT
BRANCH   1  13
HETATM   13  O   UNL     1      -9.176   5.111  68.605  1.00  0.00    -0.111 OA 
BRANCH  13  14
HETATM   14  C   UNL     1      -9.826   5.580  69.693  1.00  0.00    -0.193 C  
HETATM   15  O   UNL     1     -10.934   5.193  70.045  1.00  0.00    -0.050 OA 
BRANCH  14  16
HETATM   16  C   UNL     1      -9.103   6.684  70.333  1.00  0.00    -0.152 A  
HETATM   17  C   UNL     1      -8.052   7.979  71.903  1.00  0.00    -0.121 A  
HETATM   18  C   UNL     1      -8.712   6.761  71.710  1.00  0.00    -0.128 A  
HETATM   19  N   UNL     1      -8.075   8.650  70.698  1.00  0.00    -0.107 NA 
HETATM   20  C   UNL     1      -8.899   5.912  72.820  1.00  0.00    -0.124 A  
HETATM   21  C   UNL     1      -8.721   7.896  69.752  1.00  0.00    -0.137 A  
HETATM   22  C   UNL     1      -8.378   6.281  74.056  1.00  0.00    -0.113 A  
HETATM   23  C   UNL     1      -7.680   7.475  74.210  1.00  0.00    -0.178 A  
HETATM   24  H   UNL     1      -7.671   9.572  70.535  1.00  0.00     0.000 HD 
HETATM   25  C   UNL     1      -7.511   8.357  73.137  1.00  0.00    -0.107 A  
ENDBRANCH  14  16
ENDBRANCH  13  14
ENDBRANCH   1  13
TORSDOF 3
ENDMDL
MODEL      267
REMARK 921   NORMALIZED FREE ENERGY PREDICTED BY IDOCK:   -2.42 KCAL/MOL
REMARK 922        TOTAL FREE ENERGY PREDICTED BY IDOCK:   -3.48 KCAL/MOL
REMARK 923 INTER-LIGAND FREE ENERGY PREDICTED BY IDOCK:   -2.97 KCAL/MOL
REMARK 924 INTRA-LIGAND FREE ENERGY PREDICTED BY IDOCK:   -0.51 KCAL/MOL
REMARK 927      BINDING AFFINITY PREDICTED BY RF-SCORE:    0.00 PKD
ROOT
HETATM    1  C   UNL     1      -9.108  10.086  65.754  1.00  0.00    -0.163 C  
HETATM    2  C   UNL     1      -7.976   9.760  66.744  1.00  0.00    -0.105 C  
HETATM    3  C   UNL     1      -9.405   8.805  64.984  1.00  0.00     0.176 C  
HETATM    4  C   UNL     1      -8.153   8.439  67.537  1.00  0.00    -0.110 C  
HETATM    5  N   UNL     1      -8.546   7.265  66.689  1.00  0.00    -0.122 NA 
HETATM    6  C   UNL     1      -9.759   7.633  65.931  1.00  0.00     0.326 C  
HETATM    7  O   UNL     1     -10.058   5.777  69.635  1.00  0.00    -0.178 OA 
HETATM    8  C   UNL     1      -9.161   8.682  68.674  1.00  0.00    -0.138 C  
HETATM    9  C   UNL     1      -9.835   6.454  68.637  1.00  0.00    -0.142 C  
HETATM   10  C   UNL     1     -10.407   7.835  68.425  1.00  0.00    -0.231 C  
HETATM   11  C   UNL     1      -8.895   6.046  67.508  1.00  0.00    -0.109 C  
HETATM   12  C   UNL     1     -10.918   7.813  66.958  1.00  0.00     0.016 C  
ENDROOT
BRANCH   1  13
HETATM   13  O   UNL     1     -10.411  10.460  66.244  1.00  0.00    -0.222 OA 
BRANCH  13  14
HETATM   14  C   UNL     1     -11.226  11.371  65.666  1.00  0.00    -0.076 C  
HETATM   15  O   UNL     1     -11.400  11.458  64.457  1.00  0.00    -0.242 OA 
BRANCH  14  16
HETATM   16  C   UNL     1     -11.782  12.312  66.644  1.00  0.00    -0.417 A  
HETATM   17  C   UNL     1     -12.404  13.281  68.623  1.00  0.00     0.116 A  
HETATM   18  C   UNL     1     -11.766  12.166  68.069  1.00  0.00    -0.409 A  
HETATM   19  N   UNL     1     -12.839  14.064  67.575  1.00  0.00     0.165 NA 
HETATM   20  C   UNL     1     -11.295  11.158  68.936  1.00  0.00    -0.344 A  
HETATM   21  C   UNL     1     -12.493  13.486  66.381  1.00  0.00    -0.292 A  
HETATM   22  C   UNL     1     -11.429  11.325  70.312  1.00  0.00    -0.286 A  
HETATM   23  C   UNL     1     -12.022  12.468  70.839  1.00  0.00     0.056 A  
HETATM   24  H   UNL     1     -13.345  14.944  67.673  1.00  0.00     0.000 HD 
HETATM   25  C   UNL     1     -12.534  13.467  70.004  1.00  0.00    -0.231 A  
ENDBRANCH  14  16
ENDBRANCH  13  14
ENDBRANCH   1  13
TORSDOF 3
ENDMDL
MODEL      268
REMARK 921   NORMALIZED FREE ENERGY PREDICTED BY IDOCK:   -2.13 KCAL/MOL
REMARK 922        TOTAL FREE ENERGY PREDICTED BY IDOCK:   -3.13 KCAL/MOL
REMARK 923 INTER-LIGAND FREE ENERGY PREDICTED BY IDOCK:   -4.45 KCAL/MOL
REMARK 924 INTRA-LIGAND FREE ENERGY PREDICTED BY IDOCK:    1.32 KCAL/MOL
REMARK 927      BINDING AFFINITY PREDICTED BY RF-SCORE:    0.00 PKD
ROOT
HETATM    1  C   UNL     1      -8.618  11.826  67.789  1.00  0.00    -0.151 C  
HETATM    2  C   UNL     1      -8.347  12.594  66.483  1.00  0.00     0.182 C  
HETATM    3  C   UNL     1      -9.332  12.792  68.728  1.00  0.00     0.137 C  
HETATM    4  C   UNL     1      -9.545  13.413  65.937  1.00  0.00    -0.109 C  
HETATM    5  N   UNL     1     -10.237  14.249  66.974  1.00  0.00    -0.258 NA 
HETATM    6  C   UNL     1     -10.622  13.364  68.094  1.00  0.00    -0.245 C  
HETATM    7  O   UNL     1     -13.248  14.077  64.955  1.00  0.00    -0.720 OA 
HETATM    8  C   UNL     1     -10.522  12.448  65.241  1.00  0.00    -0.316 C  
HETATM    9  C   UNL     1     -12.332  13.827  65.731  1.00  0.00    -0.486 C  
HETATM   10  C   UNL     1     -11.839  12.429  66.014  1.00  0.00    -0.459 C  
HETATM   11  C   UNL     1     -11.507  14.882  66.460  1.00  0.00    -0.286 C  
HETATM   12  C   UNL     1     -11.706  12.379  67.561  1.00  0.00    -0.425 C  
ENDROOT
BRANCH   1  13
HETATM   13  O   UNL     1      -9.501  10.687  67.788  1.00  0.00    -0.151 OA 
BRANCH  13  14
HETATM   14  C   UNL     1      -9.177   9.454  68.238  1.00  0.00    -0.130 C  
HETATM   15  O   UNL     1      -9.788   8.436  67.937  1.00  0.00    -0.157 OA 
BRANCH  14  16
HETATM   16  C   UNL     1      -8.084   9.495  69.216  1.00  0.00    -0.103 A  
HETATM   17  C   UNL     1      -6.519   8.855  70.760  1.00  0.00    -0.052 A  
HETATM   18  C   UNL     1      -7.537   8.379  69.928  1.00  0.00    -0.076 A  
HETATM   19  N   UNL     1      -6.471  10.224  70.602  1.00  0.00    -0.280 NA 
HETATM   20  C   UNL     1      -7.849   7.004  69.962  1.00  0.00    -0.113 A  
HETATM   21  C   UNL     1      -7.418  10.626  69.695  1.00  0.00    -0.115 A  
HETATM   22  C   UNL     1      -7.104   6.156  70.778  1.00  0.00    -0.069 A  
HETATM   23  C   UNL     1      -6.063   6.648  71.558  1.00  0.00    -0.037 A  
HETATM   24  H   UNL     1      -5.826  10.846  71.088  1.00  0.00     0.000 HD 
HETATM   25  C   UNL     1      -5.754   8.013  71.575  1.00  0.00    -0.034 A  
ENDBRANCH  14  16
ENDBRANCH  13  14
ENDBRANCH   1  13
TORSDOF 3
ENDMDL
MODEL      269
REMARK 921   NORMALIZED FREE ENERGY PREDICTED BY IDOCK:   -2.03 KCAL/MOL
REMARK 922        TOTAL FREE ENERGY PREDICTED BY IDOCK:   -3.02 KCAL/MOL
REMARK 923 INTER-LIGAND FREE ENERGY PREDICTED BY IDOCK:   -2.50 KCAL/MOL
REMARK 924 INTRA-LIGAND FREE ENERGY PREDICTED BY IDOCK:   -0.51 KCAL/MOL
REMARK 927      BINDING AFFINITY PREDICTED BY RF-SCORE:    0.00 PKD
ROOT
HETATM    1  C   UNL     1      -7.448  10.349  65.947  1.00  0.00    -0.139 C  
HETATM    2  C   UNL     1      -6.031   9.859  66.295  1.00  0.00    -0.064 C  
HETATM    3  C   UNL     1      -7.496  10.522  64.433  1.00  0.00     0.084 C  
HETATM    4  C   UNL     1      -5.489   8.716  65.397  1.00  0.00    -0.035 C  
HETATM    5  N   UNL     1      -5.683   8.949  63.927  1.00  0.00    -0.070 NA 
HETATM    6  C   UNL     1      -7.117   9.218  63.692  1.00  0.00    -0.094 C  
HETATM    7  O   UNL     1      -5.620   5.351  63.454  1.00  0.00    -0.013 OA 
HETATM    8  C   UNL     1      -6.127   7.391  65.852  1.00  0.00    -0.038 C  
HETATM    9  C   UNL     1      -5.959   6.502  63.707  1.00  0.00    -0.030 C  
HETATM   10  C   UNL     1      -7.012   6.854  64.730  1.00  0.00    -0.051 C  
HETATM   11  C   UNL     1      -5.321   7.744  63.093  1.00  0.00    -0.049 C  
HETATM   12  C   UNL     1      -7.899   7.909  64.014  1.00  0.00    -0.138 C  
ENDROOT
BRANCH   1  13
HETATM   13  O   UNL     1      -8.587   9.502  66.196  1.00  0.00    -0.127 OA 
BRANCH  13  14
HETATM   14  C   UNL     1      -9.783   9.928  66.662  1.00  0.00    -0.198 C  
HETATM   15  O   UNL     1     -10.414  10.856  66.172  1.00  0.00    -0.247 OA 
BRANCH  14  16
HETATM   16  C   UNL     1     -10.178   9.225  67.887  1.00  0.00    -0.263 A  
HETATM   17  C   UNL     1     -10.185   7.778  69.662  1.00  0.00    -0.206 A  
HETATM   18  C   UNL     1      -9.460   8.165  68.530  1.00  0.00    -0.144 A  
HETATM   19  N   UNL     1     -11.333   8.541  69.691  1.00  0.00    -0.435 NA 
HETATM   20  C   UNL     1      -8.270   7.474  68.222  1.00  0.00    -0.125 A  
HETATM   21  C   UNL     1     -11.354   9.400  68.622  1.00  0.00     0.312 A  
HETATM   22  C   UNL     1      -7.825   6.469  69.076  1.00  0.00    -0.110 A  
HETATM   23  C   UNL     1      -8.539   6.138  70.224  1.00  0.00    -0.140 A  
HETATM   24  H   UNL     1     -12.060   8.477  70.403  1.00  0.00     0.000 HD 
HETATM   25  C   UNL     1      -9.743   6.779  70.536  1.00  0.00    -0.184 A  
ENDBRANCH  14  16
ENDBRANCH  13  14
ENDBRANCH   1  13
TORSDOF 3
ENDMDL
MODEL      270
REMARK 921   NORMALIZED FREE ENERGY PREDICTED BY IDOCK:   -1.92 KCAL/MOL
REMARK 922        TOTAL FREE ENERGY PREDICTED BY IDOCK:   -2.88 KCAL/MOL
REMARK 923 INTER-LIGAND FREE ENERGY PREDICTED BY IDOCK:   -3.12 KCAL/MOL
REMARK 924 INTRA-LIGAND FREE ENERGY PREDICTED BY IDOCK:    0.23 KCAL/MOL
REMARK 927      BINDING AFFINITY PREDICTED BY RF-SCORE:    0.00 PKD
ROOT
HETATM    1  C   UNL     1      -8.405   8.626  69.364  1.00  0.00    -0.114 C  
HETATM    2  C   UNL     1      -7.581   9.817  68.843  1.00  0.00    -0.081 C  
HETATM    3  C   UNL     1      -9.868   9.053  69.330  1.00  0.00    -0.179 C  
HETATM    4  C   UNL     1      -8.131  10.487  67.556  1.00  0.00    -0.107 C  
HETATM    5  N   UNL     1      -9.605  10.767  67.596  1.00  0.00    -0.157 NA 
HETATM    6  C   UNL     1     -10.302   9.504  67.916  1.00  0.00    -0.227 C  
HETATM    7  O   UNL     1      -9.625  10.610  63.969  1.00  0.00    -0.246 OA 
HETATM    8  C   UNL     1      -7.750   9.613  66.348  1.00  0.00    -0.101 C  
HETATM    9  C   UNL     1      -9.622  10.328  65.163  1.00  0.00    -0.277 C  
HETATM   10  C   UNL     1      -9.023   9.057  65.715  1.00  0.00    -0.242 C  
HETATM   11  C   UNL     1     -10.143  11.241  66.267  1.00  0.00    -0.230 C  
HETATM   12  C   UNL     1     -10.093   8.536  66.713  1.00  0.00    -0.369 C  
ENDROOT
BRANCH   1  13
HETATM   13  O   UNL     1      -8.427   7.386  68.631  1.00  0.00    -0.128 OA 
BRANCH  13  14
HETATM   14  C   UNL     1      -7.347   6.796  68.071  1.00  0.00    -0.097 C  
HETATM   15  O   UNL     1      -6.337   7.402  67.736  1.00  0.00    -0.045 OA 
BRANCH  14  16
HETATM   16  C   UNL     1      -7.574   5.372  67.806  1.00  0.00    -0.088 A  
HETATM   17  C   UNL     1      -8.324   3.215  67.987  1.00  0.00    -0.079 A  
HETATM   18  C   UNL     1      -8.384   4.480  68.582  1.00  0.00    -0.089 A  
HETATM   19  N   UNL     1      -7.470   3.312  66.909  1.00  0.00    -0.074 NA 
HETATM   20  C   UNL     1      -9.135   4.634  69.766  1.00  0.00    -0.162 A  
HETATM   21  C   UNL     1      -6.995   4.594  66.800  1.00  0.00    -0.060 A  
HETATM   22  C   UNL     1      -9.834   3.544  70.276  1.00  0.00    -0.043 A  
HETATM   23  C   UNL     1      -9.799   2.309  69.636  1.00  0.00     0.253 A  
HETATM   24  H   UNL     1      -7.227   2.544  66.285  1.00  0.00     0.000 HD 
HETATM   25  C   UNL     1      -9.032   2.114  68.482  1.00  0.00    -0.174 A  
ENDBRANCH  14  16
ENDBRANCH  13  14
ENDBRANCH   1  13
TORSDOF 3
ENDMDL
MODEL      271
REMARK 921   NORMALIZED FREE ENERGY PREDICTED BY IDOCK:   -0.93 KCAL/MOL
REMARK 922        TOTAL FREE ENERGY PREDICTED BY IDOCK:   -1.72 KCAL/MOL
REMARK 923 INTER-LIGAND FREE ENERGY PREDICTED BY IDOCK:   -2.62 KCAL/MOL
REMARK 924 INTRA-LIGAND FREE ENERGY PREDICTED BY IDOCK:    0.90 KCAL/MOL
REMARK 927      BINDING AFFINITY PREDICTED BY RF-SCORE:    0.00 PKD
ROOT
HETATM    1  C   UNL     1      -9.450  10.866  68.665  1.00  0.00    -0.190 C  
HETATM    2  C   UNL     1     -10.876  10.753  69.232  1.00  0.00    -0.287 C  
HETATM    3  C   UNL     1      -8.507  10.311  69.726  1.00  0.00    -0.082 C  
HETATM    4  C   UNL     1     -11.217   9.392  69.892  1.00  0.00    -0.155 C  
HETATM    5  N   UNL     1     -10.168   8.893  70.843  1.00  0.00    -0.221 NA 
HETATM    6  C   UNL     1      -8.877   8.863  70.124  1.00  0.00    -0.163 C  
HETATM    7  O   UNL     1     -11.339   5.518  70.201  1.00  0.00    -0.038 OA 
HETATM    8  C   UNL     1     -11.511   8.368  68.781  1.00  0.00     0.936 C  
HETATM    9  C   UNL     1     -10.786   6.610  70.123  1.00  0.00    -0.239 C  
HETATM   10  C   UNL     1     -10.443   7.277  68.814  1.00  0.00    -0.214 C  
HETATM   11  C   UNL     1     -10.436   7.487  71.321  1.00  0.00    -0.207 C  
HETATM   12  C   UNL     1      -8.985   7.775  69.013  1.00  0.00    -0.145 C  
ENDROOT
BRANCH   1  13
HETATM   13  O   UNL     1      -9.075  10.113  67.495  1.00  0.00    -0.134 OA 
BRANCH  13  14
HETATM   14  C   UNL     1      -7.866  10.164  66.893  1.00  0.00    -0.107 C  
HETATM   15  O   UNL     1      -7.445   9.299  66.135  1.00  0.00    -0.094 OA 
BRANCH  14  16
HETATM   16  C   UNL     1      -7.075  11.313  67.345  1.00  0.00    -0.109 A  
HETATM   17  C   UNL     1      -6.443  13.452  67.869  1.00  0.00    -0.151 A  
HETATM   18  C   UNL     1      -7.501  12.681  67.375  1.00  0.00    -0.146 A  
HETATM   19  N   UNL     1      -5.386  12.595  68.092  1.00  0.00    -0.066 NA 
HETATM   20  C   UNL     1      -8.689  13.335  66.987  1.00  0.00    -0.192 A  
HETATM   21  C   UNL     1      -5.741  11.313  67.763  1.00  0.00    -0.044 A  
HETATM   22  C   UNL     1      -8.794  14.713  67.155  1.00  0.00    -0.238 A  
HETATM   23  C   UNL     1      -7.744  15.450  67.696  1.00  0.00    -0.180 A  
HETATM   24  H   UNL     1      -4.472  12.875  68.449  1.00  0.00     0.000 HD 
HETATM   25  C   UNL     1      -6.540  14.835  68.055  1.00  0.00    -0.157 A  
ENDBRANCH  14  16
ENDBRANCH  13  14
ENDBRANCH   1  13
TORSDOF 3
ENDMDL
MODEL      272
REMARK 921   NORMALIZED FREE ENERGY PREDICTED BY IDOCK:   -0.17 KCAL/MOL
REMARK 922        TOTAL FREE ENERGY PREDICTED BY IDOCK:   -0.83 KCAL/MOL
REMARK 923 INTER-LIGAND FREE ENERGY PREDICTED BY IDOCK:   -3.15 KCAL/MOL
REMARK 924 INTRA-LIGAND FREE ENERGY PREDICTED BY IDOCK:    2.32 KCAL/MOL
REMARK 927      BINDING AFFINITY PREDICTED BY RF-SCORE:    0.00 PKD
ROOT
HETATM    1  C   UNL     1      -6.696  17.047  69.265  1.00  0.00    -0.234 C  
HETATM    2  C   UNL     1      -6.108  16.393  70.528  1.00  0.00     0.254 C  
HETATM    3  C   UNL     1      -5.911  16.501  68.078  1.00  0.00    -0.129 C  
HETATM    4  C   UNL     1      -5.875  14.862  70.430  1.00  0.00    -0.152 C  
HETATM    5  N   UNL     1      -5.184  14.429  69.170  1.00  0.00    -0.078 NA 
HETATM    6  C   UNL     1      -5.952  14.956  68.023  1.00  0.00    -0.148 C  
HETATM    7  O   UNL     1      -6.754  11.178  69.553  1.00  0.00    -0.107 OA 
HETATM    8  C   UNL     1      -7.225  14.148  70.613  1.00  0.00     1.117 C  
HETATM    9  C   UNL     1      -6.527  12.357  69.301  1.00  0.00    -0.107 C  
HETATM   10  C   UNL     1      -7.589  13.429  69.316  1.00  0.00     0.318 C  
HETATM   11  C   UNL     1      -5.142  12.928  69.016  1.00  0.00    -0.068 C  
HETATM   12  C   UNL     1      -7.333  14.234  68.012  1.00  0.00    -0.145 C  
ENDROOT
BRANCH   1  13
HETATM   13  O   UNL     1      -8.060  16.782  68.882  1.00  0.00    -0.243 OA 
BRANCH  13  14
HETATM   14  C   UNL     1      -8.492  16.627  67.611  1.00  0.00    -0.192 C  
HETATM   15  O   UNL     1      -7.886  17.037  66.629  1.00  0.00    -0.208 OA 
BRANCH  14  16
HETATM   16  C   UNL     1      -9.824  16.014  67.554  1.00  0.00    -0.235 A  
HETATM   17  C   UNL     1     -11.609  14.741  66.891  1.00  0.00    -0.327 A  
HETATM   18  C   UNL     1     -10.282  15.061  66.587  1.00  0.00    -0.271 A  
HETATM   19  N   UNL     1     -11.972  15.505  67.980  1.00  0.00    -0.372 NA 
HETATM   20  C   UNL     1      -9.688  14.470  65.452  1.00  0.00    -0.163 A  
HETATM   21  C   UNL     1     -10.920  16.290  68.376  1.00  0.00    -0.351 A  
HETATM   22  C   UNL     1     -10.418  13.550  64.703  1.00  0.00    -0.439 A  
HETATM   23  C   UNL     1     -11.720  13.211  65.058  1.00  0.00    -0.369 A  
HETATM   24  H   UNL     1     -12.889  15.489  68.425  1.00  0.00     0.000 HD 
HETATM   25  C   UNL     1     -12.349  13.809  66.155  1.00  0.00    -0.496 A  
ENDBRANCH  14  16
ENDBRANCH  13  14
ENDBRANCH   1  13
TORSDOF 3
ENDMDL
MODEL      273
REMARK 921   NORMALIZED FREE ENERGY PREDICTED BY IDOCK:    0.32 KCAL/MOL
REMARK 922        TOTAL FREE ENERGY PREDICTED BY IDOCK:   -0.25 KCAL/MOL
REMARK 923 INTER-LIGAND FREE ENERGY PREDICTED BY IDOCK:   -3.07 KCAL/MOL
REMARK 924 INTRA-LIGAND FREE ENERGY PREDICTED BY IDOCK:    2.81 KCAL/MOL
REMARK 927      BINDING AFFINITY PREDICTED BY RF-SCORE:    0.00 PKD
ROOT
HETATM    1  C   UNL     1      -8.905   7.698  73.874  1.00  0.00    -0.258 C  
HETATM    2  C   UNL     1      -9.101   6.307  74.503  1.00  0.00    -0.179 C  
HETATM    3  C   UNL     1      -7.406   7.969  73.859  1.00  0.00    -0.196 C  
HETATM    4  C   UNL     1      -8.150   5.203  73.972  1.00  0.00    -0.101 C  
HETATM    5  N   UNL     1      -6.709   5.617  73.904  1.00  0.00    -0.078 NA 
HETATM    6  C   UNL     1      -6.628   6.861  73.110  1.00  0.00    -0.066 C  
HETATM    7  O   UNL     1      -6.231   3.150  71.285  1.00  0.00    -0.017 OA 
HETATM    8  C   UNL     1      -8.670   4.726  72.604  1.00  0.00    -0.116 C  
HETATM    9  C   UNL     1      -6.519   4.163  71.914  1.00  0.00    -0.018 C  
HETATM   10  C   UNL     1      -7.648   5.088  71.529  1.00  0.00    -0.096 C  
HETATM   11  C   UNL     1      -5.841   4.596  73.210  1.00  0.00    -0.016 C  
HETATM   12  C   UNL     1      -7.030   6.509  71.646  1.00  0.00    -0.072 C  
ENDROOT
BRANCH   1  13
HETATM   13  O   UNL     1      -9.274   7.927  72.500  1.00  0.00    -0.154 OA 
BRANCH  13  14
HETATM   14  C   UNL     1     -10.119   7.153  71.784  1.00  0.00    -0.183 C  
HETATM   15  O   UNL     1     -10.696   6.172  72.238  1.00  0.00    -0.212 OA 
BRANCH  14  16
HETATM   16  C   UNL     1     -10.172   7.554  70.374  1.00  0.00    -0.202 A  
HETATM   17  C   UNL     1      -9.597   8.419  68.332  1.00  0.00    -0.148 A  
HETATM   18  C   UNL     1      -9.137   8.217  69.638  1.00  0.00    -0.151 A  
HETATM   19  N   UNL     1     -10.889   7.939  68.278  1.00  0.00    -0.430 NA 
HETATM   20  C   UNL     1      -7.857   8.698  69.984  1.00  0.00    -0.103 A  
HETATM   21  C   UNL     1     -11.256   7.436  69.499  1.00  0.00     0.008 A  
HETATM   22  C   UNL     1      -7.072   9.308  69.009  1.00  0.00    -0.067 A  
HETATM   23  C   UNL     1      -7.534   9.450  67.705  1.00  0.00    -0.087 A  
HETATM   24  H   UNL     1     -11.484   7.955  67.449  1.00  0.00     0.000 HD 
HETATM   25  C   UNL     1      -8.814   9.018  67.340  1.00  0.00    -0.125 A  
ENDBRANCH  14  16
ENDBRANCH  13  14
ENDBRANCH   1  13
TORSDOF 3
ENDMDL
MODEL      274
REMARK 921   NORMALIZED FREE ENERGY PREDICTED BY IDOCK:    1.13 KCAL/MOL
REMARK 922        TOTAL FREE ENERGY PREDICTED BY IDOCK:    0.69 KCAL/MOL
REMARK 923 INTER-LIGAND FREE ENERGY PREDICTED BY IDOCK:   -1.58 KCAL/MOL
REMARK 924 INTRA-LIGAND FREE ENERGY PREDICTED BY IDOCK:    2.28 KCAL/MOL
REMARK 927      BINDING AFFINITY PREDICTED BY RF-SCORE:    0.00 PKD
ROOT
HETATM    1  C   UNL     1      -6.698  17.047  69.270  1.00  0.00    -0.234 C  
HETATM    2  C   UNL     1      -6.130  16.399  70.544  1.00  0.00     0.254 C  
HETATM    3  C   UNL     1      -5.903  16.486  68.097  1.00  0.00    -0.124 C  
HETATM    4  C   UNL     1      -5.906  14.866  70.463  1.00  0.00    -0.143 C  
HETATM    5  N   UNL     1      -5.203  14.417  69.215  1.00  0.00    -0.079 NA 
HETATM    6  C   UNL     1      -5.954  14.940  68.054  1.00  0.00    -0.148 C  
HETATM    7  O   UNL     1      -6.800  11.181  69.605  1.00  0.00    -0.128 OA 
HETATM    8  C   UNL     1      -7.264  14.163  70.635  1.00  0.00     1.117 C  
HETATM    9  C   UNL     1      -6.563  12.356  69.347  1.00  0.00    -0.072 C  
HETATM   10  C   UNL     1      -7.617  13.436  69.339  1.00  0.00     0.452 C  
HETATM   11  C   UNL     1      -5.170  12.915  69.074  1.00  0.00    -0.068 C  
HETATM   12  C   UNL     1      -7.340  14.228  68.032  1.00  0.00    -0.145 C  
ENDROOT
BRANCH   1  13
HETATM   13  O   UNL     1      -8.059  16.788  68.872  1.00  0.00    -0.243 OA 
BRANCH  13  14
HETATM   14  C   UNL     1      -8.475  16.615  67.597  1.00  0.00    -0.192 C  
HETATM   15  O   UNL     1      -7.852  17.005  66.618  1.00  0.00    -0.208 OA 
BRANCH  14  16
HETATM   16  C   UNL     1      -9.811  16.013  67.532  1.00  0.00    -0.235 A  
HETATM   17  C   UNL     1     -11.832  15.126  68.142  1.00  0.00    -0.228 A  
HETATM   18  C   UNL     1     -10.651  15.682  68.644  1.00  0.00    -0.243 A  
HETATM   19  N   UNL     1     -11.706  15.074  66.770  1.00  0.00    -0.230 NA 
HETATM   20  C   UNL     1     -10.489  15.773  70.042  1.00  0.00    -0.313 A  
HETATM   21  C   UNL     1     -10.491  15.582  66.389  1.00  0.00    -0.306 A  
HETATM   22  C   UNL     1     -11.525  15.360  70.876  1.00  0.00    -0.396 A  
HETATM   23  C   UNL     1     -12.711  14.858  70.349  1.00  0.00    -0.370 A  
HETATM   24  H   UNL     1     -12.413  14.710  66.131  1.00  0.00     0.000 HD 
HETATM   25  C   UNL     1     -12.886  14.719  68.968  1.00  0.00     0.701 A  
ENDBRANCH  14  16
ENDBRANCH  13  14
ENDBRANCH   1  13
TORSDOF 3
ENDMDL
MODEL      275
REMARK 921   NORMALIZED FREE ENERGY PREDICTED BY IDOCK:    1.72 KCAL/MOL
REMARK 922        TOTAL FREE ENERGY PREDICTED BY IDOCK:    1.39 KCAL/MOL
REMARK 923 INTER-LIGAND FREE ENERGY PREDICTED BY IDOCK:    2.14 KCAL/MOL
REMARK 924 INTRA-LIGAND FREE ENERGY PREDICTED BY IDOCK:   -0.74 KCAL/MOL
REMARK 927      BINDING AFFINITY PREDICTED BY RF-SCORE:    0.00 PKD
ROOT
HETATM    1  C   UNL     1      -9.350  14.293  66.507  1.00  0.00    -0.271 C  
HETATM    2  C   UNL     1      -8.046  13.539  66.194  1.00  0.00     1.592 C  
HETATM    3  C   UNL     1     -10.255  14.135  65.291  1.00  0.00    -0.400 C  
HETATM    4  C   UNL     1      -8.231  12.126  65.584  1.00  0.00     1.064 C  
HETATM    5  N   UNL     1      -9.223  12.071  64.458  1.00  0.00     0.288 NA 
HETATM    6  C   UNL     1     -10.495  12.647  64.941  1.00  0.00    -0.309 C  
HETATM    7  O   UNL     1      -9.765   8.569  65.244  1.00  0.00     0.304 OA 
HETATM    8  C   UNL     1      -8.599  11.148  66.713  1.00  0.00    -0.157 C  
HETATM    9  C   UNL     1      -9.790   9.795  65.240  1.00  0.00    -0.265 C  
HETATM   10  C   UNL     1     -10.015  10.627  66.480  1.00  0.00    -0.265 C  
HETATM   11  C   UNL     1      -9.522  10.661  64.013  1.00  0.00    -0.285 C  
HETATM   12  C   UNL     1     -11.055  11.692  66.038  1.00  0.00    -0.325 C  
ENDROOT
BRANCH   1  13
HETATM   13  O   UNL     1     -10.201  13.851  67.583  1.00  0.00    -0.237 OA 
BRANCH  13  14
HETATM   14  C   UNL     1      -9.812  13.706  68.870  1.00  0.00     0.030 C  
HETATM   15  O   UNL     1      -8.882  14.322  69.374  1.00  0.00     0.189 OA 
BRANCH  14  16
HETATM   16  C   UNL     1     -10.558  12.644  69.554  1.00  0.00     0.381 A  
HETATM   17  C   UNL     1     -12.173  11.532  70.738  1.00  0.00    -0.363 A  
HETATM   18  C   UNL     1     -11.820  12.782  70.217  1.00  0.00    -0.292 A  
HETATM   19  N   UNL     1     -11.142  10.664  70.445  1.00  0.00    -0.440 NA 
HETATM   20  C   UNL     1     -12.677  13.877  70.453  1.00  0.00    -0.286 A  
HETATM   21  C   UNL     1     -10.156  11.320  69.754  1.00  0.00     0.590 A  
HETATM   22  C   UNL     1     -13.868  13.674  71.145  1.00  0.00     0.178 A  
HETATM   23  C   UNL     1     -14.219  12.410  71.608  1.00  0.00     1.518 A  
HETATM   24  H   UNL     1     -11.117   9.679  70.705  1.00  0.00     0.000 HD 
HETATM   25  C   UNL     1     -13.372  11.311  71.423  1.00  0.00    -0.105 A  
ENDBRANCH  14  16
ENDBRANCH  13  14
ENDBRANCH   1  13
TORSDOF 3
ENDMDL
MODEL      276
REMARK 921   NORMALIZED FREE ENERGY PREDICTED BY IDOCK:    7.75 KCAL/MOL
REMARK 922        TOTAL FREE ENERGY PREDICTED BY IDOCK:    8.48 KCAL/MOL
REMARK 923 INTER-LIGAND FREE ENERGY PREDICTED BY IDOCK:    1.52 KCAL/MOL
REMARK 924 INTRA-LIGAND FREE ENERGY PREDICTED BY IDOCK:    6.96 KCAL/MOL
REMARK 927      BINDING AFFINITY PREDICTED BY RF-SCORE:    0.00 PKD
ROOT
HETATM    1  C   UNL     1      -9.439  14.973  69.333  1.00  0.00    -0.127 C  
HETATM    2  C   UNL     1     -10.849  15.122  69.930  1.00  0.00    -0.287 C  
HETATM    3  C   UNL     1      -9.286  13.514  68.920  1.00  0.00     0.199 C  
HETATM    4  C   UNL     1     -11.986  14.458  69.109  1.00  0.00    -0.322 C  
HETATM    5  N   UNL     1     -11.682  13.056  68.668  1.00  0.00    -0.305 NA 
HETATM    6  C   UNL     1     -10.397  13.074  67.938  1.00  0.00    -0.231 C  
HETATM    7  O   UNL     1     -13.993  13.535  65.910  1.00  0.00     1.023 OA 
HETATM    8  C   UNL     1     -12.326  15.369  67.917  1.00  0.00     0.651 C  
HETATM    9  C   UNL     1     -13.007  13.546  66.639  1.00  0.00     0.905 C  
HETATM   10  C   UNL     1     -11.971  14.644  66.620  1.00  0.00    -0.293 C  
HETATM   11  C   UNL     1     -12.718  12.507  67.717  1.00  0.00     1.903 C  
HETATM   12  C   UNL     1     -10.615  13.887  66.626  1.00  0.00    -0.274 C  
ENDROOT
BRANCH   1  13
HETATM   13  O   UNL     1      -9.087  15.675  68.125  1.00  0.00    -0.179 OA 
BRANCH  13  14
HETATM   14  C   UNL     1      -8.345  15.162  67.118  1.00  0.00    -0.219 C  
HETATM   15  O   UNL     1      -8.620  15.295  65.932  1.00  0.00     0.081 OA 
BRANCH  14  16
HETATM   16  C   UNL     1      -7.241  14.333  67.615  1.00  0.00    -0.200 A  
HETATM   17  C   UNL     1      -5.968  12.518  68.189  1.00  0.00    -0.073 A  
HETATM   18  C   UNL     1      -7.191  12.902  67.629  1.00  0.00    -0.147 A  
HETATM   19  N   UNL     1      -5.306  13.673  68.549  1.00  0.00    -0.083 NA 
HETATM   20  C   UNL     1      -8.103  11.896  67.247  1.00  0.00    -0.171 A  
HETATM   21  C   UNL     1      -6.065  14.769  68.231  1.00  0.00    -0.123 A  
HETATM   22  C   UNL     1      -7.741  10.559  67.386  1.00  0.00    -0.102 A  
HETATM   23  C   UNL     1      -6.497  10.205  67.898  1.00  0.00    -0.062 A  
HETATM   24  H   UNL     1      -4.386  13.706  68.988  1.00  0.00     0.000 HD 
HETATM   25  C   UNL     1      -5.586  11.179  68.322  1.00  0.00    -0.045 A  
ENDBRANCH  14  16
ENDBRANCH  13  14
ENDBRANCH   1  13
TORSDOF 3
ENDMDL
MODEL      277
REMARK 921   NORMALIZED FREE ENERGY PREDICTED BY IDOCK:   10.25 KCAL/MOL
REMARK 922        TOTAL FREE ENERGY PREDICTED BY IDOCK:   11.42 KCAL/MOL
REMARK 923 INTER-LIGAND FREE ENERGY PREDICTED BY IDOCK:    1.75 KCAL/MOL
REMARK 924 INTRA-LIGAND FREE ENERGY PREDICTED BY IDOCK:    9.66 KCAL/MOL
REMARK 927      BINDING AFFINITY PREDICTED BY RF-SCORE:    0.00 PKD
ROOT
HETATM    1  C   UNL     1      -8.332  15.791  66.796  1.00  0.00    -0.274 C  
HETATM    2  C   UNL     1      -8.454  14.412  67.467  1.00  0.00    -0.202 C  
HETATM    3  C   UNL     1      -8.725  16.828  67.842  1.00  0.00    -0.203 C  
HETATM    4  C   UNL     1      -7.833  14.311  68.885  1.00  0.00    -0.097 C  
HETATM    5  N   UNL     1      -8.208  15.441  69.798  1.00  0.00    -0.139 NA 
HETATM    6  C   UNL     1      -7.864  16.709  69.122  1.00  0.00    -0.170 C  
HETATM    7  O   UNL     1      -5.135  14.839  71.634  1.00  0.00    -0.144 OA 
HETATM    8  C   UNL     1      -6.307  14.176  68.743  1.00  0.00    -0.088 C  
HETATM    9  C   UNL     1      -5.962  15.202  70.804  1.00  0.00     0.025 C  
HETATM   10  C   UNL     1      -5.640  15.411  69.345  1.00  0.00    -0.100 C  
HETATM   11  C   UNL     1      -7.443  15.417  71.099  1.00  0.00     2.431 C  
HETATM   12  C   UNL     1      -6.312  16.769  68.999  1.00  0.00    -0.187 C  
ENDROOT
BRANCH   1  13
HETATM   13  O   UNL     1      -7.046  16.270  66.355  1.00  0.00    -0.148 OA 
BRANCH  13  14
HETATM   14  C   UNL     1      -6.705  17.571  66.227  1.00  0.00    -0.274 C  
HETATM   15  O   UNL     1      -5.555  17.962  66.069  1.00  0.00    -0.172 OA 
BRANCH  14  16
HETATM   16  C   UNL     1      -7.855  18.462  66.415  1.00  0.00    -0.291 A  
HETATM   17  C   UNL     1      -9.398  19.852  67.380  1.00  0.00    -0.355 A  
HETATM   18  C   UNL     1      -8.251  19.095  67.638  1.00  0.00    -0.316 A  
HETATM   19  N   UNL     1      -9.725  19.657  66.054  1.00  0.00    -0.380 NA 
HETATM   20  C   UNL     1      -7.751  19.055  68.956  1.00  0.00    -0.288 A  
HETATM   21  C   UNL     1      -8.822  18.809  65.467  1.00  0.00     1.055 A  
HETATM   22  C   UNL     1      -8.377  19.810  69.945  1.00  0.00     0.793 A  
HETATM   23  C   UNL     1      -9.486  20.595  69.650  1.00  0.00     1.210 A  
HETATM   24  H   UNL     1     -10.522  20.081  65.580  1.00  0.00     0.000 HD 
HETATM   25  C   UNL     1     -10.029  20.625  68.361  1.00  0.00     0.063 A  
ENDBRANCH  14  16
ENDBRANCH  13  14
ENDBRANCH   1  13
TORSDOF 3
ENDMDL
MODEL      278
REMARK 921   NORMALIZED FREE ENERGY PREDICTED BY IDOCK:   15.11 KCAL/MOL
REMARK 922        TOTAL FREE ENERGY PREDICTED BY IDOCK:   17.13 KCAL/MOL
REMARK 923 INTER-LIGAND FREE ENERGY PREDICTED BY IDOCK:   16.76 KCAL/MOL
REMARK 924 INTRA-LIGAND FREE ENERGY PREDICTED BY IDOCK:    0.37 KCAL/MOL
REMARK 927      BINDING AFFINITY PREDICTED BY RF-SCORE:    0.00 PKD
ROOT
HETATM    1  C   UNL     1      -8.101  14.194  68.436  1.00  0.00    -0.144 C  
HETATM    2  C   UNL     1      -8.329  12.829  69.110  1.00  0.00     0.603 C  
HETATM    3  C   UNL     1      -8.495  15.259  69.452  1.00  0.00    -0.231 C  
HETATM    4  C   UNL     1      -7.791  12.710  70.559  1.00  0.00     4.661 C  
HETATM    5  N   UNL     1      -8.154  13.868  71.443  1.00  0.00     5.042 NA 
HETATM    6  C   UNL     1      -7.710  15.110  70.777  1.00  0.00     1.572 C  
HETATM    7  O   UNL     1      -5.218  13.127  73.444  1.00  0.00    -0.382 OA 
HETATM    8  C   UNL     1      -6.268  12.497  70.500  1.00  0.00     0.230 C  
HETATM    9  C   UNL     1      -5.980  13.524  72.569  1.00  0.00     0.910 C  
HETATM   10  C   UNL     1      -5.571  13.702  71.127  1.00  0.00    -0.214 C  
HETATM   11  C   UNL     1      -7.461  13.818  72.783  1.00  0.00     7.079 C  
HETATM   12  C   UNL     1      -6.152  15.088  70.736  1.00  0.00     0.029 C  
ENDROOT
BRANCH   1  13
HETATM   13  O   UNL     1      -6.770  14.601  68.061  1.00  0.00    -0.112 OA 
BRANCH  13  14
HETATM   14  C   UNL     1      -6.479  15.537  67.131  1.00  0.00     0.124 C  
HETATM   15  O   UNL     1      -5.369  15.682  66.634  1.00  0.00     0.292 OA 
BRANCH  14  16
HETATM   16  C   UNL     1      -7.614  16.429  66.873  1.00  0.00    -0.275 A  
HETATM   17  C   UNL     1      -8.974  18.272  66.846  1.00  0.00    -0.279 A  
HETATM   18  C   UNL     1      -7.738  17.793  67.294  1.00  0.00    -0.222 A  
HETATM   19  N   UNL     1      -9.609  17.227  66.210  1.00  0.00    -0.373 NA 
HETATM   20  C   UNL     1      -6.917  18.651  68.055  1.00  0.00    -0.247 A  
HETATM   21  C   UNL     1      -8.816  16.108  66.237  1.00  0.00    -0.336 A  
HETATM   22  C   UNL     1      -7.332  19.959  68.291  1.00  0.00    -0.327 A  
HETATM   23  C   UNL     1      -8.543  20.426  67.789  1.00  0.00    -0.226 A  
HETATM   24  H   UNL     1     -10.534  17.278  65.783  1.00  0.00     0.000 HD 
HETATM   25  C   UNL     1      -9.397  19.588  67.064  1.00  0.00    -0.416 A  
ENDBRANCH  14  16
ENDBRANCH  13  14
ENDBRANCH   1  13
TORSDOF 3
ENDMDL
MODEL      279
REMARK 921   NORMALIZED FREE ENERGY PREDICTED BY IDOCK:   15.63 KCAL/MOL
REMARK 922        TOTAL FREE ENERGY PREDICTED BY IDOCK:   17.74 KCAL/MOL
REMARK 923 INTER-LIGAND FREE ENERGY PREDICTED BY IDOCK:   16.26 KCAL/MOL
REMARK 924 INTRA-LIGAND FREE ENERGY PREDICTED BY IDOCK:    1.48 KCAL/MOL
REMARK 927      BINDING AFFINITY PREDICTED BY RF-SCORE:    0.00 PKD
ROOT
HETATM    1  C   UNL     1     -10.145  11.006  67.955  1.00  0.00    -0.178 C  
HETATM    2  C   UNL     1     -11.162  11.387  69.045  1.00  0.00    -0.319 C  
HETATM    3  C   UNL     1      -9.000  10.283  68.653  1.00  0.00    -0.144 C  
HETATM    4  C   UNL     1     -11.500  10.260  70.055  1.00  0.00    -0.296 C  
HETATM    5  N   UNL     1     -10.297   9.547  70.601  1.00  0.00    -0.284 NA 
HETATM    6  C   UNL     1      -9.497   9.059  69.458  1.00  0.00    -0.164 C  
HETATM    7  O   UNL     1     -12.407   6.653  71.190  1.00  0.00    -0.353 OA 
HETATM    8  C   UNL     1     -12.485   9.283  69.389  1.00  0.00     1.899 C  
HETATM    9  C   UNL     1     -11.697   7.511  70.676  1.00  0.00    -0.215 C  
HETATM   10  C   UNL     1     -11.808   7.924  69.229  1.00  0.00     1.256 C  
HETATM   11  C   UNL     1     -10.661   8.339  71.428  1.00  0.00    -0.223 C  
HETATM   12  C   UNL     1     -10.337   7.965  68.732  1.00  0.00    -0.220 C  
ENDROOT
BRANCH   1  13
HETATM   13  O   UNL     1     -10.512  10.075  66.917  1.00  0.00    -0.236 OA 
BRANCH  13  14
HETATM   14  C   UNL     1      -9.772   9.808  65.818  1.00  0.00    -0.273 C  
HETATM   15  O   UNL     1      -9.725   8.710  65.278  1.00  0.00     0.208 OA 
BRANCH  14  16
HETATM   16  C   UNL     1      -8.947  10.954  65.418  1.00  0.00    -0.209 A  
HETATM   17  C   UNL     1      -7.269  12.511  65.351  1.00  0.00     4.496 A  
HETATM   18  C   UNL     1      -7.727  11.380  66.037  1.00  0.00     0.155 A  
HETATM   19  N   UNL     1      -8.198  12.798  64.374  1.00  0.00     3.452 NA 
HETATM   20  C   UNL     1      -6.992  10.921  67.149  1.00  0.00    -0.098 A  
HETATM   21  C   UNL     1      -9.222  11.887  64.415  1.00  0.00     0.336 A  
HETATM   22  C   UNL     1      -5.810  11.569  67.498  1.00  0.00    -0.067 A  
HETATM   23  C   UNL     1      -5.349  12.660  66.768  1.00  0.00     0.621 A  
HETATM   24  H   UNL     1      -8.134  13.576  63.717  1.00  0.00     0.000 HD 
HETATM   25  C   UNL     1      -6.076  13.163  65.683  1.00  0.00     7.112 A  
ENDBRANCH  14  16
ENDBRANCH  13  14
ENDBRANCH   1  13
TORSDOF 3
ENDMDL
MODEL      280
REMARK 921   NORMALIZED FREE ENERGY PREDICTED BY IDOCK:   23.81 KCAL/MOL
REMARK 922        TOTAL FREE ENERGY PREDICTED BY IDOCK:   27.36 KCAL/MOL
REMARK 923 INTER-LIGAND FREE ENERGY PREDICTED BY IDOCK:   17.63 KCAL/MOL
REMARK 924 INTRA-LIGAND FREE ENERGY PREDICTED BY IDOCK:    9.73 KCAL/MOL
REMARK 927      BINDING AFFINITY PREDICTED BY RF-SCORE:    0.00 PKD
ROOT
HETATM    1  C   UNL     1     -11.412  13.115  64.527  1.00  0.00    -0.353 C  
HETATM    2  C   UNL     1     -12.441  11.975  64.626  1.00  0.00    -0.193 C  
HETATM    3  C   UNL     1     -11.793  14.147  65.583  1.00  0.00    -0.377 C  
HETATM    4  C   UNL     1     -12.750  11.487  66.065  1.00  0.00     3.569 C  
HETATM    5  N   UNL     1     -13.009  12.596  67.043  1.00  0.00     1.558 NA 
HETATM    6  C   UNL     1     -11.861  13.525  66.998  1.00  0.00    -0.402 C  
HETATM    7  O   UNL     1     -11.927  10.367  69.696  1.00  0.00    -0.222 OA 
HETATM    8  C   UNL     1     -11.601  10.575  66.531  1.00  0.00     1.055 C  
HETATM    9  C   UNL     1     -11.960  11.155  68.757  1.00  0.00    -0.268 C  
HETATM   10  C   UNL     1     -10.882  11.239  67.703  1.00  0.00    -0.286 C  
HETATM   11  C   UNL     1     -13.118  12.104  68.466  1.00  0.00     3.447 C  
HETATM   12  C   UNL     1     -10.619  12.762  67.550  1.00  0.00    -0.240 C  
ENDROOT
BRANCH   1  13
HETATM   13  O   UNL     1     -10.025  12.865  64.828  1.00  0.00    -0.229 OA 
BRANCH  13  14
HETATM   14  C   UNL     1      -9.097  13.820  65.060  1.00  0.00     1.688 C  
HETATM   15  O   UNL     1      -8.443  14.364  64.179  1.00  0.00     6.831 OA 
BRANCH  14  16
HETATM   16  C   UNL     1      -8.884  14.044  66.494  1.00  0.00    -0.048 A  
HETATM   17  C   UNL     1      -8.415  13.689  68.708  1.00  0.00     0.056 A  
HETATM   18  C   UNL     1      -8.503  13.058  67.462  1.00  0.00    -0.190 A  
HETATM   19  N   UNL     1      -8.775  15.007  68.523  1.00  0.00    -0.168 NA 
HETATM   20  C   UNL     1      -8.261  11.671  67.389  1.00  0.00    -0.153 A  
HETATM   21  C   UNL     1      -9.080  15.231  67.205  1.00  0.00    -0.210 A  
HETATM   22  C   UNL     1      -7.892  10.982  68.542  1.00  0.00    -0.129 A  
HETATM   23  C   UNL     1      -7.762  11.644  69.759  1.00  0.00     0.866 A  
HETATM   24  H   UNL     1      -8.809  15.712  69.259  1.00  0.00     0.000 HD 
HETATM   25  C   UNL     1      -8.032  13.012  69.871  1.00  0.00     2.027 A  
ENDBRANCH  14  16
ENDBRANCH  13  14
ENDBRANCH   1  13
TORSDOF 3
ENDMDL
