MODEL        1
REMARK 921   NORMALIZED FREE ENERGY PREDICTED BY IDOCK:   -9.02 KCAL/MOL
REMARK 922        TOTAL FREE ENERGY PREDICTED BY IDOCK:  -10.93 KCAL/MOL
REMARK 923 INTER-LIGAND FREE ENERGY PREDICTED BY IDOCK:  -10.61 KCAL/MOL
REMARK 924 INTRA-LIGAND FREE ENERGY PREDICTED BY IDOCK:   -0.32 KCAL/MOL
REMARK 927      BINDING AFFINITY PREDICTED BY RF-SCORE:    0.00 PKD
ROOT
HETATM    1  C   UNL     1      -8.794  17.152  67.275  1.00  0.00    -0.217 C  
HETATM    2  C   UNL     1      -8.981  15.701  67.746  1.00  0.00    -0.176 C  
HETATM    3  N   UNL     1      -9.569  14.825  66.723  1.00  0.00    -0.242 NA 
HETATM    4  C   UNL     1      -9.598  13.449  66.953  1.00  0.00    -0.257 C  
HETATM    5  C   UNL     1     -10.290  12.554  66.234  1.00  0.00    -0.269 C  
HETATM    6  C   UNL     1     -11.066  13.092  65.100  1.00  0.00    -0.287 C  
HETATM    7  C   UNL     1     -10.642  19.965  65.751  1.00  0.00    -0.490 C  
HETATM    8  C   UNL     1     -11.089  14.569  64.867  1.00  0.00    -0.394 C  
HETATM    9  C   UNL     1     -10.017  19.628  68.153  1.00  0.00    -0.547 C  
HETATM   10  O   UNL     1     -11.738  12.373  64.356  1.00  0.00    -0.331 OA 
HETATM   11  C   UNL     1     -10.585  18.952  66.906  1.00  0.00    -0.421 C  
HETATM   12  O   UNL     1     -11.253  17.370  64.705  1.00  0.00    -0.992 OA 
HETATM   13  C   UNL     1     -10.368  15.362  65.695  1.00  0.00    -0.372 C  
HETATM   14  O   UNL     1     -11.914  15.001  63.848  1.00  0.00    -0.866 OA 
HETATM   15  N   UNL     1      -9.974  17.651  66.589  1.00  0.00    -0.313 N  
HETATM   16  C   UNL     1     -10.548  16.872  65.578  1.00  0.00    -0.202 C  
HETATM   17  O   UNL     1      -8.465  17.872  68.465  1.00  0.00    -0.296 OA 
HETATM   18  H   UNL     1     -11.928  15.939  63.700  1.00  0.00     0.000 HD 
HETATM   19  C   UNL     1      -8.568  19.275  68.366  1.00  0.00    -0.354 C  
ENDROOT
BRANCH   5  20
HETATM   20  C   UNL     1     -10.264  11.120  66.634  1.00  0.00    -0.232 C  
HETATM   21  H   UNL     1      -9.897  11.671  68.588  1.00  0.00     0.000 HD 
HETATM   22  N   UNL     1     -10.082  10.881  67.970  1.00  0.00    -0.173 N  
HETATM   23  O   UNL     1     -10.397  10.217  65.797  1.00  0.00    -0.239 OA 
BRANCH  22  24
HETATM   24  C   UNL     1     -10.143   9.554  68.541  1.00  0.00    -0.178 C  
BRANCH  24  25
HETATM   25  C   UNL     1     -11.104   9.488  69.696  1.00  0.00    -0.196 A  
HETATM   26  C   UNL     1     -12.829   9.364  71.887  1.00  0.00    -0.412 A  
HETATM   27  F   UNL     1     -13.639   9.313  72.954  1.00  0.00    -0.466 F  
HETATM   28  C   UNL     1     -12.165   8.217  71.479  1.00  0.00    -0.332 A  
HETATM   29  C   UNL     1     -11.806  10.630  70.110  1.00  0.00    -0.421 A  
HETATM   30  C   UNL     1     -12.663  10.570  71.211  1.00  0.00    -0.532 A  
HETATM   31  C   UNL     1     -11.312   8.287  70.382  1.00  0.00    -0.175 A  
HETATM   32  F   UNL     1     -10.669   7.178  69.994  1.00  0.00    -0.225 F  
ENDBRANCH  24  25
ENDBRANCH  22  24
ENDBRANCH   5  20
TORSDOF 3
ENDMDL
MODEL        2
REMARK 921   NORMALIZED FREE ENERGY PREDICTED BY IDOCK:   -8.80 KCAL/MOL
REMARK 922        TOTAL FREE ENERGY PREDICTED BY IDOCK:  -10.67 KCAL/MOL
REMARK 923 INTER-LIGAND FREE ENERGY PREDICTED BY IDOCK:  -10.21 KCAL/MOL
REMARK 924 INTRA-LIGAND FREE ENERGY PREDICTED BY IDOCK:   -0.46 KCAL/MOL
REMARK 927      BINDING AFFINITY PREDICTED BY RF-SCORE:    0.00 PKD
ROOT
HETATM    1  C   UNL     1      -8.669  16.675  66.552  1.00  0.00    -0.282 C  
HETATM    2  C   UNL     1      -8.759  15.192  66.944  1.00  0.00    -0.259 C  
HETATM    3  N   UNL     1      -9.498  14.375  65.971  1.00  0.00    -0.254 NA 
HETATM    4  C   UNL     1      -9.473  12.986  66.104  1.00  0.00    -0.150 C  
HETATM    5  C   UNL     1     -10.265  12.127  65.447  1.00  0.00    -0.299 C  
HETATM    6  C   UNL     1     -11.223  12.723  64.495  1.00  0.00    -0.333 C  
HETATM    7  C   UNL     1     -10.774  19.543  65.555  1.00  0.00    -0.300 C  
HETATM    8  C   UNL     1     -11.300  14.212  64.376  1.00  0.00    -0.299 C  
HETATM    9  C   UNL     1      -9.758  19.057  67.793  1.00  0.00    -0.383 C  
HETATM   10  O   UNL     1     -12.001  12.042  63.823  1.00  0.00    -0.445 OA 
HETATM   11  C   UNL     1     -10.516  18.455  66.611  1.00  0.00    -0.385 C  
HETATM   12  O   UNL     1     -11.520  17.013  64.442  1.00  0.00    -1.048 OA 
HETATM   13  C   UNL     1     -10.462  14.962  65.128  1.00  0.00    -0.417 C  
HETATM   14  O   UNL     1     -12.287  14.693  63.538  1.00  0.00    -1.059 OA 
HETATM   15  N   UNL     1      -9.952  17.194  66.107  1.00  0.00    -0.295 N  
HETATM   16  C   UNL     1     -10.675  16.472  65.150  1.00  0.00    -0.244 C  
HETATM   17  O   UNL     1      -8.157  17.319  67.721  1.00  0.00    -0.193 OA 
HETATM   18  H   UNL     1     -12.335  15.638  63.462  1.00  0.00     0.000 HD 
HETATM   19  C   UNL     1      -8.290  18.723  67.741  1.00  0.00    -0.271 C  
ENDROOT
BRANCH   5  20
HETATM   20  C   UNL     1     -10.157  10.670  65.734  1.00  0.00    -0.266 C  
HETATM   21  H   UNL     1     -10.683  11.017  67.697  1.00  0.00     0.000 HD 
HETATM   22  N   UNL     1     -10.476  10.292  67.011  1.00  0.00    -0.242 N  
HETATM   23  O   UNL     1      -9.798   9.868  64.861  1.00  0.00    -0.315 OA 
BRANCH  22  24
HETATM   24  C   UNL     1     -10.531   8.908  67.425  1.00  0.00    -0.277 C  
BRANCH  24  25
HETATM   25  C   UNL     1     -10.771   8.778  68.904  1.00  0.00    -0.114 A  
HETATM   26  C   UNL     1     -11.141   8.527  71.659  1.00  0.00    -0.290 A  
HETATM   27  F   UNL     1     -11.295   8.413  72.985  1.00  0.00    -0.398 F  
HETATM   28  C   UNL     1     -10.914   7.391  70.898  1.00  0.00    -0.271 A  
HETATM   29  C   UNL     1     -11.028   9.912  69.689  1.00  0.00    -0.285 A  
HETATM   30  C   UNL     1     -11.206   9.787  71.069  1.00  0.00    -0.451 A  
HETATM   31  C   UNL     1     -10.736   7.525  69.524  1.00  0.00    -0.217 A  
HETATM   32  F   UNL     1     -10.512   6.426  68.793  1.00  0.00    -0.166 F  
ENDBRANCH  24  25
ENDBRANCH  22  24
ENDBRANCH   5  20
TORSDOF 3
ENDMDL
MODEL        3
REMARK 921   NORMALIZED FREE ENERGY PREDICTED BY IDOCK:   -8.75 KCAL/MOL
REMARK 922        TOTAL FREE ENERGY PREDICTED BY IDOCK:  -10.61 KCAL/MOL
REMARK 923 INTER-LIGAND FREE ENERGY PREDICTED BY IDOCK:  -10.34 KCAL/MOL
REMARK 924 INTRA-LIGAND FREE ENERGY PREDICTED BY IDOCK:   -0.27 KCAL/MOL
REMARK 927      BINDING AFFINITY PREDICTED BY RF-SCORE:    0.00 PKD
ROOT
HETATM    1  C   UNL     1      -8.649  17.234  67.252  1.00  0.00    -0.203 C  
HETATM    2  C   UNL     1      -8.939  15.744  67.493  1.00  0.00    -0.194 C  
HETATM    3  N   UNL     1      -9.623  15.092  66.367  1.00  0.00    -0.264 NA 
HETATM    4  C   UNL     1      -9.756  13.703  66.374  1.00  0.00    -0.292 C  
HETATM    5  C   UNL     1     -10.537  12.991  65.550  1.00  0.00    -0.297 C  
HETATM    6  C   UNL     1     -11.298  13.763  64.547  1.00  0.00    -0.380 C  
HETATM    7  C   UNL     1     -10.307  20.387  66.272  1.00  0.00    -0.245 C  
HETATM    8  C   UNL     1     -11.208  15.256  64.555  1.00  0.00    -0.280 C  
HETATM    9  C   UNL     1      -9.646  19.618  68.563  1.00  0.00    -0.467 C  
HETATM   10  O   UNL     1     -12.045  13.227  63.726  1.00  0.00    -0.470 OA 
HETATM   11  C   UNL     1     -10.300  19.198  67.248  1.00  0.00    -0.432 C  
HETATM   12  O   UNL     1     -11.152  18.050  64.850  1.00  0.00    -0.738 OA 
HETATM   13  C   UNL     1     -10.404  15.847  65.470  1.00  0.00    -0.400 C  
HETATM   14  O   UNL     1     -12.023  15.908  63.652  1.00  0.00    -1.239 OA 
HETATM   15  N   UNL     1      -9.804  17.925  66.703  1.00  0.00    -0.325 N  
HETATM   16  C   UNL     1     -10.466  17.365  65.603  1.00  0.00    -0.165 C  
HETATM   17  O   UNL     1      -8.232  17.724  68.528  1.00  0.00    -0.286 OA 
HETATM   18  H   UNL     1     -11.966  16.855  63.657  1.00  0.00     0.000 HD 
HETATM   19  C   UNL     1      -8.225  19.128  68.660  1.00  0.00    -0.369 C  
ENDROOT
BRANCH   5  20
HETATM   20  C   UNL     1     -10.615  11.514  65.714  1.00  0.00    -0.263 C  
HETATM   21  H   UNL     1     -10.635  11.741  67.763  1.00  0.00     0.000 HD 
HETATM   22  N   UNL     1     -10.707  11.064  67.004  1.00  0.00    -0.257 N  
HETATM   23  O   UNL     1     -10.594  10.757  64.734  1.00  0.00    -0.310 OA 
BRANCH  22  24
HETATM   24  C   UNL     1     -10.902   9.670  67.333  1.00  0.00    -0.172 C  
BRANCH  24  25
HETATM   25  C   UNL     1     -10.633   9.399  68.788  1.00  0.00    -0.234 A  
HETATM   26  C   UNL     1     -10.194   8.852  71.489  1.00  0.00    -0.328 A  
HETATM   27  F   UNL     1      -9.996   8.568  72.784  1.00  0.00    -0.345 F  
HETATM   28  C   UNL     1     -11.199   9.737  71.130  1.00  0.00    -0.444 A  
HETATM   29  C   UNL     1      -9.604   8.527  69.175  1.00  0.00    -0.167 A  
HETATM   30  C   UNL     1      -9.390   8.247  70.527  1.00  0.00    -0.169 A  
HETATM   31  C   UNL     1     -11.406  10.008  69.781  1.00  0.00    -0.228 A  
HETATM   32  F   UNL     1     -12.381  10.859  69.438  1.00  0.00    -0.378 F  
ENDBRANCH  24  25
ENDBRANCH  22  24
ENDBRANCH   5  20
TORSDOF 3
ENDMDL
MODEL        4
REMARK 921   NORMALIZED FREE ENERGY PREDICTED BY IDOCK:   -8.71 KCAL/MOL
REMARK 922        TOTAL FREE ENERGY PREDICTED BY IDOCK:  -10.56 KCAL/MOL
REMARK 923 INTER-LIGAND FREE ENERGY PREDICTED BY IDOCK:  -10.18 KCAL/MOL
REMARK 924 INTRA-LIGAND FREE ENERGY PREDICTED BY IDOCK:   -0.39 KCAL/MOL
REMARK 927      BINDING AFFINITY PREDICTED BY RF-SCORE:    0.00 PKD
ROOT
HETATM    1  C   UNL     1      -8.477  16.983  67.086  1.00  0.00    -0.202 C  
HETATM    2  C   UNL     1      -8.684  15.477  67.311  1.00  0.00    -0.195 C  
HETATM    3  N   UNL     1      -9.446  14.826  66.236  1.00  0.00    -0.299 NA 
HETATM    4  C   UNL     1      -9.523  13.433  66.217  1.00  0.00    -0.183 C  
HETATM    5  C   UNL     1     -10.351  12.709  65.449  1.00  0.00    -0.311 C  
HETATM    6  C   UNL     1     -11.232  13.473  64.545  1.00  0.00    -0.375 C  
HETATM    7  C   UNL     1     -10.340  20.089  66.355  1.00  0.00    -0.573 C  
HETATM    8  C   UNL     1     -11.200  14.968  64.586  1.00  0.00    -0.332 C  
HETATM    9  C   UNL     1      -9.437  19.292  68.551  1.00  0.00    -0.447 C  
HETATM   10  O   UNL     1     -12.033  12.927  63.782  1.00  0.00    -0.435 OA 
HETATM   11  C   UNL     1     -10.195  18.878  67.291  1.00  0.00    -0.390 C  
HETATM   12  O   UNL     1     -11.225  17.754  64.952  1.00  0.00    -0.705 OA 
HETATM   13  C   UNL     1     -10.337  15.569  65.438  1.00  0.00    -0.394 C  
HETATM   14  O   UNL     1     -12.122  15.607  63.781  1.00  0.00    -1.013 OA 
HETATM   15  N   UNL     1      -9.704  17.640  66.667  1.00  0.00    -0.288 N  
HETATM   16  C   UNL     1     -10.444  17.080  65.619  1.00  0.00    -0.216 C  
HETATM   17  O   UNL     1      -7.960  17.459  68.331  1.00  0.00    -0.239 OA 
HETATM   18  H   UNL     1     -12.101  16.556  63.808  1.00  0.00     0.000 HD 
HETATM   19  C   UNL     1      -7.994  18.859  68.500  1.00  0.00    -0.346 C  
ENDROOT
BRANCH   5  20
HETATM   20  C   UNL     1     -10.355  11.226  65.578  1.00  0.00    -0.266 C  
HETATM   21  H   UNL     1     -10.340  11.404  67.633  1.00  0.00     0.000 HD 
HETATM   22  N   UNL     1     -10.397  10.743  66.858  1.00  0.00    -0.231 N  
HETATM   23  O   UNL     1     -10.321  10.494  64.580  1.00  0.00    -0.348 OA 
BRANCH  22  24
HETATM   24  C   UNL     1     -10.519   9.333  67.157  1.00  0.00    -0.249 C  
BRANCH  24  25
HETATM   25  C   UNL     1     -10.765   9.094  68.622  1.00  0.00    -0.156 A  
HETATM   26  C   UNL     1     -11.147   8.649  71.350  1.00  0.00    -0.274 A  
HETATM   27  F   UNL     1     -11.307   8.445  72.666  1.00  0.00    -0.415 F  
HETATM   28  C   UNL     1     -10.745   7.598  70.540  1.00  0.00    -0.241 A  
HETATM   29  C   UNL     1     -11.196  10.137  69.455  1.00  0.00    -0.288 A  
HETATM   30  C   UNL     1     -11.379   9.916  70.822  1.00  0.00    -0.430 A  
HETATM   31  C   UNL     1     -10.563   7.828  69.180  1.00  0.00    -0.183 A  
HETATM   32  F   UNL     1     -10.171   6.811  68.402  1.00  0.00    -0.151 F  
ENDBRANCH  24  25
ENDBRANCH  22  24
ENDBRANCH   5  20
TORSDOF 3
ENDMDL
MODEL        5
REMARK 921   NORMALIZED FREE ENERGY PREDICTED BY IDOCK:   -8.64 KCAL/MOL
REMARK 922        TOTAL FREE ENERGY PREDICTED BY IDOCK:  -10.48 KCAL/MOL
REMARK 923 INTER-LIGAND FREE ENERGY PREDICTED BY IDOCK:  -10.11 KCAL/MOL
REMARK 924 INTRA-LIGAND FREE ENERGY PREDICTED BY IDOCK:   -0.37 KCAL/MOL
REMARK 927      BINDING AFFINITY PREDICTED BY RF-SCORE:    0.00 PKD
ROOT
HETATM    1  C   UNL     1      -9.149  17.180  67.641  1.00  0.00    -0.227 C  
HETATM    2  C   UNL     1      -9.606  15.828  68.210  1.00  0.00    -0.201 C  
HETATM    3  N   UNL     1     -10.155  14.921  67.192  1.00  0.00    -0.238 NA 
HETATM    4  C   UNL     1     -10.412  13.595  67.542  1.00  0.00    -0.241 C  
HETATM    5  C   UNL     1     -11.111  12.717  66.808  1.00  0.00    -0.314 C  
HETATM    6  C   UNL     1     -11.627  13.215  65.518  1.00  0.00    -0.335 C  
HETATM    7  C   UNL     1     -10.335  20.009  65.582  1.00  0.00    -0.395 C  
HETATM    8  C   UNL     1     -11.406  14.646  65.148  1.00  0.00    -0.375 C  
HETATM    9  C   UNL     1     -10.125  19.874  68.075  1.00  0.00    -0.572 C  
HETATM   10  O   UNL     1     -12.277  12.505  64.746  1.00  0.00    -0.432 OA 
HETATM   11  C   UNL     1     -10.593  19.136  66.822  1.00  0.00    -0.439 C  
HETATM   12  O   UNL     1     -11.146  17.409  64.699  1.00  0.00    -1.029 OA 
HETATM   13  C   UNL     1     -10.710  15.432  66.003  1.00  0.00    -0.322 C  
HETATM   14  O   UNL     1     -12.002  15.058  63.973  1.00  0.00    -0.820 OA 
HETATM   15  N   UNL     1     -10.132  17.742  66.731  1.00  0.00    -0.333 N  
HETATM   16  C   UNL     1     -10.655  16.929  65.717  1.00  0.00    -0.230 C  
HETATM   17  O   UNL     1      -8.900  17.984  68.797  1.00  0.00    -0.282 OA 
HETATM   18  H   UNL     1     -11.861  15.968  63.738  1.00  0.00     0.000 HD 
HETATM   19  C   UNL     1      -8.788  19.369  68.552  1.00  0.00    -0.366 C  
ENDROOT
BRANCH   5  20
HETATM   20  C   UNL     1     -11.347  11.347  67.340  1.00  0.00    -0.288 C  
HETATM   21  H   UNL     1      -9.809  10.627  66.170  1.00  0.00     0.000 HD 
HETATM   22  N   UNL     1     -10.489  10.380  66.888  1.00  0.00    -0.243 N  
HETATM   23  O   UNL     1     -12.266  11.116  68.137  1.00  0.00    -0.612 OA 
BRANCH  22  24
HETATM   24  C   UNL     1     -10.508   9.023  67.388  1.00  0.00    -0.269 C  
BRANCH  24  25
HETATM   25  C   UNL     1      -9.961   8.938  68.786  1.00  0.00    -0.195 A  
HETATM   26  C   UNL     1      -8.928   8.853  71.378  1.00  0.00    -0.229 A  
HETATM   27  F   UNL     1      -8.437   8.836  72.625  1.00  0.00    -0.230 F  
HETATM   28  C   UNL     1      -8.057   8.916  70.301  1.00  0.00    -0.125 A  
HETATM   29  C   UNL     1     -10.823   8.847  69.889  1.00  0.00    -0.219 A  
HETATM   30  C   UNL     1     -10.307   8.813  71.186  1.00  0.00    -0.315 A  
HETATM   31  C   UNL     1      -8.580   8.952  69.013  1.00  0.00    -0.138 A  
HETATM   32  F   UNL     1      -7.735   9.018  67.976  1.00  0.00    -0.092 F  
ENDBRANCH  24  25
ENDBRANCH  22  24
ENDBRANCH   5  20
TORSDOF 3
ENDMDL
MODEL        6
REMARK 921   NORMALIZED FREE ENERGY PREDICTED BY IDOCK:   -8.45 KCAL/MOL
REMARK 922        TOTAL FREE ENERGY PREDICTED BY IDOCK:  -10.25 KCAL/MOL
REMARK 923 INTER-LIGAND FREE ENERGY PREDICTED BY IDOCK:   -9.79 KCAL/MOL
REMARK 924 INTRA-LIGAND FREE ENERGY PREDICTED BY IDOCK:   -0.46 KCAL/MOL
REMARK 927      BINDING AFFINITY PREDICTED BY RF-SCORE:    0.00 PKD
ROOT
HETATM    1  C   UNL     1      -9.247  17.227  67.683  1.00  0.00    -0.229 C  
HETATM    2  C   UNL     1      -9.726  15.905  68.302  1.00  0.00    -0.209 C  
HETATM    3  N   UNL     1     -10.248  14.952  67.313  1.00  0.00    -0.240 NA 
HETATM    4  C   UNL     1     -10.520  13.644  67.719  1.00  0.00    -0.240 C  
HETATM    5  C   UNL     1     -11.200  12.734  67.007  1.00  0.00    -0.336 C  
HETATM    6  C   UNL     1     -11.676  13.170  65.680  1.00  0.00    -0.364 C  
HETATM    7  C   UNL     1     -10.363  19.957  65.457  1.00  0.00    -0.297 C  
HETATM    8  C   UNL     1     -11.439  14.582  65.248  1.00  0.00    -0.355 C  
HETATM    9  C   UNL     1     -10.227  19.941  67.958  1.00  0.00    -0.572 C  
HETATM   10  O   UNL     1     -12.306  12.426  64.924  1.00  0.00    -0.456 OA 
HETATM   11  C   UNL     1     -10.660  19.145  66.729  1.00  0.00    -0.439 C  
HETATM   12  O   UNL     1     -11.157  17.319  64.676  1.00  0.00    -1.052 OA 
HETATM   13  C   UNL     1     -10.766  15.406  66.085  1.00  0.00    -0.314 C  
HETATM   14  O   UNL     1     -11.999  14.938  64.038  1.00  0.00    -0.791 OA 
HETATM   15  N   UNL     1     -10.202  17.747  66.718  1.00  0.00    -0.338 N  
HETATM   16  C   UNL     1     -10.698  16.888  65.730  1.00  0.00    -0.160 C  
HETATM   17  O   UNL     1      -9.030  18.086  68.805  1.00  0.00    -0.289 OA 
HETATM   18  H   UNL     1     -11.848  15.835  63.764  1.00  0.00     0.000 HD 
HETATM   19  C   UNL     1      -8.905  19.457  68.498  1.00  0.00    -0.366 C  
ENDROOT
BRANCH   5  20
HETATM   20  C   UNL     1     -11.456  11.391  67.596  1.00  0.00    -0.273 C  
HETATM   21  H   UNL     1     -10.026  10.573  66.356  1.00  0.00     0.000 HD 
HETATM   22  N   UNL     1     -10.669  10.376  67.123  1.00  0.00    -0.266 N  
HETATM   23  O   UNL     1     -12.331  11.224  68.457  1.00  0.00    -0.543 OA 
BRANCH  22  24
HETATM   24  C   UNL     1     -10.710   9.037  67.667  1.00  0.00    -0.163 C  
BRANCH  24  25
HETATM   25  C   UNL     1      -9.927   8.069  66.824  1.00  0.00    -0.344 A  
HETATM   26  C   UNL     1      -8.528   6.275  65.207  1.00  0.00    -0.111 A  
HETATM   27  F   UNL     1      -7.868   5.421  64.411  1.00  0.00    -0.080 F  
HETATM   28  C   UNL     1      -9.619   5.825  65.934  1.00  0.00    -0.023 A  
HETATM   29  C   UNL     1      -8.803   8.496  66.100  1.00  0.00    -0.200 A  
HETATM   30  C   UNL     1      -8.108   7.600  65.285  1.00  0.00    -0.133 A  
HETATM   31  C   UNL     1     -10.307   6.725  66.742  1.00  0.00    -0.215 A  
HETATM   32  F   UNL     1     -11.364   6.288  67.439  1.00  0.00    -0.395 F  
ENDBRANCH  24  25
ENDBRANCH  22  24
ENDBRANCH   5  20
TORSDOF 3
ENDMDL
MODEL        7
REMARK 921   NORMALIZED FREE ENERGY PREDICTED BY IDOCK:   -8.30 KCAL/MOL
REMARK 922        TOTAL FREE ENERGY PREDICTED BY IDOCK:  -10.07 KCAL/MOL
REMARK 923 INTER-LIGAND FREE ENERGY PREDICTED BY IDOCK:   -9.60 KCAL/MOL
REMARK 924 INTRA-LIGAND FREE ENERGY PREDICTED BY IDOCK:   -0.47 KCAL/MOL
REMARK 927      BINDING AFFINITY PREDICTED BY RF-SCORE:    0.00 PKD
ROOT
HETATM    1  C   UNL     1     -11.873  10.253  69.546  1.00  0.00    -0.077 C  
HETATM    2  C   UNL     1     -11.889  11.685  68.988  1.00  0.00    -0.328 C  
HETATM    3  N   UNL     1     -11.670  11.749  67.536  1.00  0.00    -0.573 NA 
HETATM    4  C   UNL     1     -11.867  12.965  66.880  1.00  0.00    -0.379 C  
HETATM    5  C   UNL     1     -11.497  13.238  65.621  1.00  0.00    -0.342 C  
HETATM    6  C   UNL     1     -10.843  12.140  64.882  1.00  0.00    -0.308 C  
HETATM    7  C   UNL     1      -9.814   7.185  69.597  1.00  0.00    -0.162 C  
HETATM    8  C   UNL     1     -10.578  10.847  65.583  1.00  0.00    -0.164 C  
HETATM    9  C   UNL     1     -10.061   8.928  71.378  1.00  0.00    -0.379 C  
HETATM   10  O   UNL     1     -10.463  12.261  63.715  1.00  0.00    -0.382 OA 
HETATM   11  C   UNL     1      -9.862   8.696  69.882  1.00  0.00    -0.183 C  
HETATM   12  O   UNL     1      -9.908   8.573  67.093  1.00  0.00    -0.170 OA 
HETATM   13  C   UNL     1     -10.976  10.720  66.871  1.00  0.00    -0.190 C  
HETATM   14  O   UNL     1      -9.877   9.906  64.856  1.00  0.00    -0.345 OA 
HETATM   15  N   UNL     1     -10.758   9.483  69.021  1.00  0.00    -0.221 N  
HETATM   16  C   UNL     1     -10.531   9.479  67.639  1.00  0.00    -0.263 C  
HETATM   17  O   UNL     1     -11.843  10.426  70.964  1.00  0.00    -0.343 OA 
HETATM   18  H   UNL     1      -9.709   9.084  65.301  1.00  0.00     0.000 HD 
HETATM   19  C   UNL     1     -11.490   9.277  71.703  1.00  0.00    -0.398 C  
ENDROOT
BRANCH   5  20
HETATM   20  C   UNL     1     -11.728  14.603  65.073  1.00  0.00    -0.385 C  
HETATM   21  H   UNL     1     -10.394  15.379  66.440  1.00  0.00     0.000 HD 
HETATM   22  N   UNL     1     -10.986  15.604  65.641  1.00  0.00    -0.304 N  
HETATM   23  O   UNL     1     -12.546  14.801  64.164  1.00  0.00    -0.784 OA 
BRANCH  22  24
HETATM   24  C   UNL     1     -11.006  16.965  65.153  1.00  0.00    -0.053 C  
BRANCH  24  25
HETATM   25  C   UNL     1     -10.123  17.863  65.974  1.00  0.00    -0.258 A  
HETATM   26  C   UNL     1      -8.539  19.540  67.546  1.00  0.00    -0.307 A  
HETATM   27  F   UNL     1      -7.793  20.340  68.321  1.00  0.00    -0.318 F  
HETATM   28  C   UNL     1      -9.536  20.092  66.756  1.00  0.00    -0.543 A  
HETATM   29  C   UNL     1      -9.091  17.330  66.760  1.00  0.00    -0.269 A  
HETATM   30  C   UNL     1      -8.303  18.168  67.553  1.00  0.00    -0.237 A  
HETATM   31  C   UNL     1     -10.317  19.249  65.972  1.00  0.00    -0.475 A  
HETATM   32  F   UNL     1     -11.282  19.785  65.214  1.00  0.00    -0.464 F  
ENDBRANCH  24  25
ENDBRANCH  22  24
ENDBRANCH   5  20
TORSDOF 3
ENDMDL
MODEL        8
REMARK 921   NORMALIZED FREE ENERGY PREDICTED BY IDOCK:   -8.28 KCAL/MOL
REMARK 922        TOTAL FREE ENERGY PREDICTED BY IDOCK:  -10.05 KCAL/MOL
REMARK 923 INTER-LIGAND FREE ENERGY PREDICTED BY IDOCK:   -9.57 KCAL/MOL
REMARK 924 INTRA-LIGAND FREE ENERGY PREDICTED BY IDOCK:   -0.48 KCAL/MOL
REMARK 927      BINDING AFFINITY PREDICTED BY RF-SCORE:    0.00 PKD
ROOT
HETATM    1  C   UNL     1     -11.756   9.924  69.680  1.00  0.00     0.034 C  
HETATM    2  C   UNL     1     -11.733  11.365  69.147  1.00  0.00    -0.342 C  
HETATM    3  N   UNL     1     -11.538  11.446  67.692  1.00  0.00    -0.541 NA 
HETATM    4  C   UNL     1     -11.704  12.679  67.060  1.00  0.00    -0.369 C  
HETATM    5  C   UNL     1     -11.348  12.962  65.799  1.00  0.00    -0.349 C  
HETATM    6  C   UNL     1     -10.746  11.855  65.030  1.00  0.00    -0.292 C  
HETATM    7  C   UNL     1      -9.804   6.787  69.641  1.00  0.00    -0.173 C  
HETATM    8  C   UNL     1     -10.513  10.541  65.705  1.00  0.00    -0.143 C  
HETATM    9  C   UNL     1      -9.957   8.506  71.456  1.00  0.00    -0.314 C  
HETATM   10  O   UNL     1     -10.384  11.983  63.858  1.00  0.00    -0.333 OA 
HETATM   11  C   UNL     1      -9.794   8.293  69.953  1.00  0.00    -0.186 C  
HETATM   12  O   UNL     1      -9.895   8.220  67.164  1.00  0.00    -0.177 OA 
HETATM   13  C   UNL     1     -10.892  10.406  66.997  1.00  0.00    -0.203 C  
HETATM   14  O   UNL     1      -9.859   9.590  64.948  1.00  0.00    -0.434 OA 
HETATM   15  N   UNL     1     -10.677   9.125  69.122  1.00  0.00    -0.207 N  
HETATM   16  C   UNL     1     -10.477   9.137  67.736  1.00  0.00    -0.247 C  
HETATM   17  O   UNL     1     -11.694  10.071  71.101  1.00  0.00    -0.345 OA 
HETATM   18  H   UNL     1      -9.711   8.755  65.377  1.00  0.00     0.000 HD 
HETATM   19  C   UNL     1     -11.368   8.898  71.813  1.00  0.00    -0.361 C  
ENDROOT
BRANCH   5  20
HETATM   20  C   UNL     1     -11.542  14.343  65.279  1.00  0.00    -0.353 C  
HETATM   21  H   UNL     1     -10.153  15.049  66.630  1.00  0.00     0.000 HD 
HETATM   22  N   UNL     1     -10.753  15.307  65.847  1.00  0.00    -0.322 N  
HETATM   23  O   UNL     1     -12.371  14.585  64.391  1.00  0.00    -0.568 OA 
BRANCH  22  24
HETATM   24  C   UNL     1     -10.736  16.676  65.382  1.00  0.00    -0.215 C  
BRANCH  24  25
HETATM   25  C   UNL     1     -10.523  17.645  66.513  1.00  0.00    -0.283 A  
HETATM   26  C   UNL     1     -10.203  19.454  68.614  1.00  0.00    -0.371 A  
HETATM   27  F   UNL     1     -10.073  20.318  69.631  1.00  0.00    -0.336 F  
HETATM   28  C   UNL     1     -10.498  19.931  67.346  1.00  0.00    -0.542 A  
HETATM   29  C   UNL     1     -10.198  17.186  67.798  1.00  0.00    -0.324 A  
HETATM   30  C   UNL     1     -10.046  18.091  68.851  1.00  0.00    -0.352 A  
HETATM   31  C   UNL     1     -10.650  19.023  66.304  1.00  0.00    -0.412 A  
HETATM   32  F   UNL     1     -10.940  19.487  65.081  1.00  0.00    -0.508 F  
ENDBRANCH  24  25
ENDBRANCH  22  24
ENDBRANCH   5  20
TORSDOF 3
ENDMDL
MODEL        9
REMARK 921   NORMALIZED FREE ENERGY PREDICTED BY IDOCK:   -8.25 KCAL/MOL
REMARK 922        TOTAL FREE ENERGY PREDICTED BY IDOCK:  -10.01 KCAL/MOL
REMARK 923 INTER-LIGAND FREE ENERGY PREDICTED BY IDOCK:   -9.80 KCAL/MOL
REMARK 924 INTRA-LIGAND FREE ENERGY PREDICTED BY IDOCK:   -0.21 KCAL/MOL
REMARK 927      BINDING AFFINITY PREDICTED BY RF-SCORE:    0.00 PKD
ROOT
HETATM    1  C   UNL     1      -9.101  17.474  67.912  1.00  0.00    -0.261 C  
HETATM    2  C   UNL     1      -9.583  16.231  68.676  1.00  0.00    -0.237 C  
HETATM    3  N   UNL     1     -10.127  15.182  67.801  1.00  0.00    -0.230 NA 
HETATM    4  C   UNL     1     -10.404  13.929  68.348  1.00  0.00    -0.249 C  
HETATM    5  C   UNL     1     -11.102  12.954  67.748  1.00  0.00    -0.291 C  
HETATM    6  C   UNL     1     -11.592  13.250  66.387  1.00  0.00    -0.347 C  
HETATM    7  C   UNL     1     -10.222  19.960  65.419  1.00  0.00    -0.019 C  
HETATM    8  C   UNL     1     -11.349  14.605  65.803  1.00  0.00    -0.340 C  
HETATM    9  C   UNL     1     -10.052  20.211  67.905  1.00  0.00    -0.533 C  
HETATM   10  O   UNL     1     -12.239  12.436  65.724  1.00  0.00    -0.620 OA 
HETATM   11  C   UNL     1     -10.509  19.292  66.774  1.00  0.00    -0.448 C  
HETATM   12  O   UNL     1     -11.050  17.262  64.936  1.00  0.00    -0.807 OA 
HETATM   13  C   UNL     1     -10.657  15.507  66.538  1.00  0.00    -0.307 C  
HETATM   14  O   UNL     1     -11.922  14.835  64.569  1.00  0.00    -0.445 OA 
HETATM   15  N   UNL     1     -10.064  17.897  66.908  1.00  0.00    -0.332 N  
HETATM   16  C   UNL     1     -10.580  16.942  66.025  1.00  0.00    -0.218 C  
HETATM   17  O   UNL     1      -8.861  18.446  68.932  1.00  0.00    -0.256 OA 
HETATM   18  H   UNL     1     -11.767  15.695  64.198  1.00  0.00     0.000 HD 
HETATM   19  C   UNL     1      -8.728  19.775  68.477  1.00  0.00    -0.227 C  
ENDROOT
BRANCH   5  20
HETATM   20  C   UNL     1     -11.362  11.685  68.481  1.00  0.00    -0.274 C  
HETATM   21  H   UNL     1      -9.345  11.494  68.868  1.00  0.00     0.000 HD 
HETATM   22  N   UNL     1     -10.265  11.092  69.046  1.00  0.00    -0.213 N  
HETATM   23  O   UNL     1     -12.503  11.213  68.562  1.00  0.00    -0.452 OA 
BRANCH  22  24
HETATM   24  C   UNL     1     -10.358   9.918  69.885  1.00  0.00    -0.258 C  
BRANCH  24  25
HETATM   25  C   UNL     1     -10.495   8.661  69.070  1.00  0.00    -0.216 A  
HETATM   26  C   UNL     1     -10.826   6.336  67.561  1.00  0.00    -0.349 A  
HETATM   27  F   UNL     1     -11.007   5.228  66.829  1.00  0.00    -0.303 F  
HETATM   28  C   UNL     1     -11.066   6.300  68.926  1.00  0.00    -0.434 A  
HETATM   29  C   UNL     1     -10.233   8.669  67.692  1.00  0.00    -0.300 A  
HETATM   30  C   UNL     1     -10.406   7.507  66.935  1.00  0.00    -0.379 A  
HETATM   31  C   UNL     1     -10.893   7.462  69.671  1.00  0.00    -0.210 A  
HETATM   32  F   UNL     1     -11.130   7.424  70.988  1.00  0.00    -0.246 F  
ENDBRANCH  24  25
ENDBRANCH  22  24
ENDBRANCH   5  20
TORSDOF 3
ENDMDL
MODEL       10
REMARK 921   NORMALIZED FREE ENERGY PREDICTED BY IDOCK:   -8.07 KCAL/MOL
REMARK 922        TOTAL FREE ENERGY PREDICTED BY IDOCK:   -9.81 KCAL/MOL
REMARK 923 INTER-LIGAND FREE ENERGY PREDICTED BY IDOCK:   -9.31 KCAL/MOL
REMARK 924 INTRA-LIGAND FREE ENERGY PREDICTED BY IDOCK:   -0.50 KCAL/MOL
REMARK 927      BINDING AFFINITY PREDICTED BY RF-SCORE:    0.00 PKD
ROOT
HETATM    1  C   UNL     1     -11.262  13.999  66.973  1.00  0.00    -0.313 C  
HETATM    2  C   UNL     1     -11.216  12.675  67.751  1.00  0.00    -0.274 C  
HETATM    3  N   UNL     1     -11.947  12.720  69.025  1.00  0.00    -0.277 NA 
HETATM    4  C   UNL     1     -12.155  11.530  69.723  1.00  0.00    -0.306 C  
HETATM    5  C   UNL     1     -12.596  11.434  70.985  1.00  0.00    -0.487 C  
HETATM    6  C   UNL     1     -12.897  12.709  71.667  1.00  0.00    -0.264 C  
HETATM    7  C   UNL     1     -10.607  17.615  67.362  1.00  0.00    -0.320 C  
HETATM    8  C   UNL     1     -12.633  13.996  70.954  1.00  0.00    -0.361 C  
HETATM    9  C   UNL     1      -9.175  15.880  66.261  1.00  0.00    -0.372 C  
HETATM   10  O   UNL     1     -13.317  12.758  72.825  1.00  0.00    -0.346 OA 
HETATM   11  C   UNL     1     -10.034  16.193  67.484  1.00  0.00    -0.243 C  
HETATM   12  O   UNL     1     -11.848  16.332  69.602  1.00  0.00    -0.197 OA 
HETATM   13  C   UNL     1     -12.152  13.945  69.690  1.00  0.00    -0.349 C  
HETATM   14  O   UNL     1     -12.847  15.143  71.693  1.00  0.00    -0.315 OA 
HETATM   15  N   UNL     1     -10.999  15.140  67.834  1.00  0.00    -0.292 N  
HETATM   16  C   UNL     1     -11.701  15.250  69.041  1.00  0.00    -0.347 C  
HETATM   17  O   UNL     1     -10.302  13.829  65.927  1.00  0.00    -0.293 OA 
HETATM   18  H   UNL     1     -12.680  15.960  71.240  1.00  0.00     0.000 HD 
HETATM   19  C   UNL     1      -9.911  15.014  65.271  1.00  0.00    -0.290 C  
ENDROOT
BRANCH   5  20
HETATM   20  C   UNL     1     -12.719  10.091  71.615  1.00  0.00    -0.435 C  
HETATM   21  H   UNL     1     -10.676   9.841  71.483  1.00  0.00     0.000 HD 
HETATM   22  N   UNL     1     -11.541   9.428  71.831  1.00  0.00    -0.355 N  
HETATM   23  O   UNL     1     -13.825   9.621  71.915  1.00  0.00    -0.309 OA 
BRANCH  22  24
HETATM   24  C   UNL     1     -11.473   8.165  72.533  1.00  0.00    -0.404 C  
BRANCH  24  25
HETATM   25  C   UNL     1     -11.011   7.053  71.632  1.00  0.00    -0.258 A  
HETATM   26  C   UNL     1     -10.203   4.942  69.994  1.00  0.00    -0.243 A  
HETATM   27  F   UNL     1      -9.838   3.918  69.210  1.00  0.00    -0.255 F  
HETATM   28  C   UNL     1      -9.819   4.953  71.326  1.00  0.00    -0.253 A  
HETATM   29  C   UNL     1     -11.365   7.035  70.275  1.00  0.00    -0.339 A  
HETATM   30  C   UNL     1     -10.968   5.975  69.457  1.00  0.00    -0.467 A  
HETATM   31  C   UNL     1     -10.222   6.012  72.134  1.00  0.00    -0.192 A  
HETATM   32  F   UNL     1      -9.853   6.016  73.421  1.00  0.00    -0.152 F  
ENDBRANCH  24  25
ENDBRANCH  22  24
ENDBRANCH   5  20
TORSDOF 3
ENDMDL
MODEL       11
REMARK 921   NORMALIZED FREE ENERGY PREDICTED BY IDOCK:   -8.06 KCAL/MOL
REMARK 922        TOTAL FREE ENERGY PREDICTED BY IDOCK:   -9.80 KCAL/MOL
REMARK 923 INTER-LIGAND FREE ENERGY PREDICTED BY IDOCK:   -9.24 KCAL/MOL
REMARK 924 INTRA-LIGAND FREE ENERGY PREDICTED BY IDOCK:   -0.56 KCAL/MOL
REMARK 927      BINDING AFFINITY PREDICTED BY RF-SCORE:    0.00 PKD
ROOT
HETATM    1  C   UNL     1      -9.839   8.468  69.545  1.00  0.00    -0.187 C  
HETATM    2  C   UNL     1      -9.966   9.556  68.467  1.00  0.00    -0.167 C  
HETATM    3  N   UNL     1     -10.540  10.813  68.970  1.00  0.00    -0.207 NA 
HETATM    4  C   UNL     1     -10.516  11.939  68.147  1.00  0.00    -0.207 C  
HETATM    5  C   UNL     1     -11.188  13.078  68.366  1.00  0.00    -0.304 C  
HETATM    6  C   UNL     1     -12.001  13.126  69.598  1.00  0.00    -0.306 C  
HETATM    7  C   UNL     1     -11.811   6.685  72.111  1.00  0.00    -0.337 C  
HETATM    8  C   UNL     1     -12.080  11.912  70.467  1.00  0.00    -0.331 C  
HETATM    9  C   UNL     1     -11.135   5.892  69.833  1.00  0.00    -0.417 C  
HETATM   10  O   UNL     1     -12.659  14.119  69.919  1.00  0.00    -0.311 OA 
HETATM   11  C   UNL     1     -11.699   7.070  70.626  1.00  0.00    -0.338 C  
HETATM   12  O   UNL     1     -12.346   9.487  71.863  1.00  0.00    -0.373 OA 
HETATM   13  C   UNL     1     -11.374  10.815  70.105  1.00  0.00    -0.309 C  
HETATM   14  O   UNL     1     -12.936  12.005  71.545  1.00  0.00    -0.397 OA 
HETATM   15  N   UNL     1     -11.048   8.359  70.345  1.00  0.00    -0.244 N  
HETATM   16  C   UNL     1     -11.610   9.523  70.881  1.00  0.00    -0.326 C  
HETATM   17  O   UNL     1      -9.517   7.283  68.814  1.00  0.00    -0.143 OA 
HETATM   18  H   UNL     1     -12.986  11.234  72.097  1.00  0.00     0.000 HD 
HETATM   19  C   UNL     1      -9.671   6.076  69.529  1.00  0.00    -0.147 C  
ENDROOT
BRANCH   5  20
HETATM   20  C   UNL     1     -11.104  14.178  67.367  1.00  0.00    -0.306 C  
HETATM   21  H   UNL     1      -9.132  14.495  67.879  1.00  0.00     0.000 HD 
HETATM   22  N   UNL     1      -9.877  14.773  67.242  1.00  0.00    -0.229 N  
HETATM   23  O   UNL     1     -12.092  14.520  66.703  1.00  0.00    -0.393 OA 
BRANCH  22  24
HETATM   24  C   UNL     1      -9.595  15.778  66.242  1.00  0.00    -0.313 C  
BRANCH  24  25
HETATM   25  C   UNL     1      -9.734  17.169  66.796  1.00  0.00    -0.277 A  
HETATM   26  C   UNL     1     -10.063  19.734  67.846  1.00  0.00    -0.430 A  
HETATM   27  F   UNL     1     -10.240  20.958  68.365  1.00  0.00    -0.292 F  
HETATM   28  C   UNL     1     -10.650  19.418  66.630  1.00  0.00    -0.566 A  
HETATM   29  C   UNL     1      -9.128  17.520  68.012  1.00  0.00    -0.269 A  
HETATM   30  C   UNL     1      -9.299  18.801  68.541  1.00  0.00    -0.390 A  
HETATM   31  C   UNL     1     -10.476  18.138  66.112  1.00  0.00    -0.364 A  
HETATM   32  F   UNL     1     -11.048  17.835  64.940  1.00  0.00    -0.363 F  
ENDBRANCH  24  25
ENDBRANCH  22  24
ENDBRANCH   5  20
TORSDOF 3
ENDMDL
MODEL       12
REMARK 921   NORMALIZED FREE ENERGY PREDICTED BY IDOCK:   -8.00 KCAL/MOL
REMARK 922        TOTAL FREE ENERGY PREDICTED BY IDOCK:   -9.72 KCAL/MOL
REMARK 923 INTER-LIGAND FREE ENERGY PREDICTED BY IDOCK:   -9.20 KCAL/MOL
REMARK 924 INTRA-LIGAND FREE ENERGY PREDICTED BY IDOCK:   -0.53 KCAL/MOL
REMARK 927      BINDING AFFINITY PREDICTED BY RF-SCORE:    0.00 PKD
ROOT
HETATM    1  C   UNL     1      -9.940  17.719  68.315  1.00  0.00    -0.355 C  
HETATM    2  C   UNL     1     -10.949  16.569  68.466  1.00  0.00    -0.350 C  
HETATM    3  N   UNL     1     -10.323  15.240  68.479  1.00  0.00    -0.227 NA 
HETATM    4  C   UNL     1     -11.103  14.133  68.817  1.00  0.00    -0.262 C  
HETATM    5  C   UNL     1     -10.745  12.851  68.657  1.00  0.00    -0.273 C  
HETATM    6  C   UNL     1      -9.402  12.616  68.091  1.00  0.00    -0.210 C  
HETATM    7  C   UNL     1      -7.159  18.871  66.171  1.00  0.00    -0.284 C  
HETATM    8  C   UNL     1      -8.571  13.788  67.676  1.00  0.00    -0.187 C  
HETATM    9  C   UNL     1      -9.539  19.653  66.195  1.00  0.00    -0.464 C  
HETATM   10  O   UNL     1      -8.951  11.484  67.903  1.00  0.00    -0.148 OA 
HETATM   11  C   UNL     1      -8.630  18.426  66.224  1.00  0.00    -0.194 C  
HETATM   12  O   UNL     1      -7.230  16.058  66.702  1.00  0.00    -0.169 OA 
HETATM   13  C   UNL     1      -9.073  15.031  67.863  1.00  0.00    -0.180 C  
HETATM   14  O   UNL     1      -7.371  13.482  67.066  1.00  0.00    -0.345 OA 
HETATM   15  N   UNL     1      -8.966  17.447  67.270  1.00  0.00    -0.233 N  
HETATM   16  C   UNL     1      -8.312  16.209  67.263  1.00  0.00    -0.180 C  
HETATM   17  O   UNL     1     -10.749  18.871  68.069  1.00  0.00    -0.337 OA 
HETATM   18  H   UNL     1      -6.843  14.227  66.803  1.00  0.00     0.000 HD 
HETATM   19  C   UNL     1     -10.060  19.994  67.567  1.00  0.00    -0.425 C  
ENDROOT
BRANCH   5  20
HETATM   20  C   UNL     1     -11.709  11.775  69.018  1.00  0.00    -0.328 C  
HETATM   21  H   UNL     1     -11.362  12.132  71.019  1.00  0.00     0.000 HD 
HETATM   22  N   UNL     1     -11.921  11.594  70.358  1.00  0.00    -0.370 N  
HETATM   23  O   UNL     1     -12.272  11.099  68.146  1.00  0.00    -0.612 OA 
BRANCH  22  24
HETATM   24  C   UNL     1     -12.907  10.670  70.874  1.00  0.00    -0.382 C  
BRANCH  24  25
HETATM   25  C   UNL     1     -12.281   9.373  71.308  1.00  0.00    -0.425 A  
HETATM   26  C   UNL     1     -11.131   6.939  72.043  1.00  0.00    -0.245 A  
HETATM   27  F   UNL     1     -10.573   5.764  72.372  1.00  0.00    -0.219 F  
HETATM   28  C   UNL     1     -12.509   7.031  71.927  1.00  0.00    -0.346 A  
HETATM   29  C   UNL     1     -10.890   9.264  71.457  1.00  0.00    -0.442 A  
HETATM   30  C   UNL     1     -10.314   8.043  71.817  1.00  0.00    -0.275 A  
HETATM   31  C   UNL     1     -13.074   8.250  71.566  1.00  0.00    -0.293 A  
HETATM   32  F   UNL     1     -14.405   8.334  71.450  1.00  0.00    -0.435 F  
ENDBRANCH  24  25
ENDBRANCH  22  24
ENDBRANCH   5  20
TORSDOF 3
ENDMDL
MODEL       13
REMARK 921   NORMALIZED FREE ENERGY PREDICTED BY IDOCK:   -7.99 KCAL/MOL
REMARK 922        TOTAL FREE ENERGY PREDICTED BY IDOCK:   -9.71 KCAL/MOL
REMARK 923 INTER-LIGAND FREE ENERGY PREDICTED BY IDOCK:   -9.25 KCAL/MOL
REMARK 924 INTRA-LIGAND FREE ENERGY PREDICTED BY IDOCK:   -0.46 KCAL/MOL
REMARK 927      BINDING AFFINITY PREDICTED BY RF-SCORE:    0.00 PKD
ROOT
HETATM    1  C   UNL     1      -9.999   8.615  69.763  1.00  0.00    -0.190 C  
HETATM    2  C   UNL     1     -10.249   9.823  68.845  1.00  0.00    -0.200 C  
HETATM    3  N   UNL     1     -10.901  10.950  69.528  1.00  0.00    -0.247 NA 
HETATM    4  C   UNL     1     -10.994  12.174  68.864  1.00  0.00    -0.224 C  
HETATM    5  C   UNL     1     -11.744  13.214  69.252  1.00  0.00    -0.376 C  
HETATM    6  C   UNL     1     -12.514  13.032  70.498  1.00  0.00    -0.231 C  
HETATM    7  C   UNL     1     -11.732   6.352  72.114  1.00  0.00    -0.366 C  
HETATM    8  C   UNL     1     -12.466  11.711  71.197  1.00  0.00    -0.307 C  
HETATM    9  C   UNL     1     -11.079   5.926  69.734  1.00  0.00    -0.422 C  
HETATM   10  O   UNL     1     -13.235  13.916  70.967  1.00  0.00    -0.284 OA 
HETATM   11  C   UNL     1     -11.704   6.938  70.692  1.00  0.00    -0.367 C  
HETATM   12  O   UNL     1     -12.493   9.109  72.260  1.00  0.00    -0.368 OA 
HETATM   13  C   UNL     1     -11.691  10.733  70.673  1.00  0.00    -0.342 C  
HETATM   14  O   UNL     1     -13.288  11.590  72.300  1.00  0.00    -0.624 OA 
HETATM   15  N   UNL     1     -11.165   8.302  70.571  1.00  0.00    -0.255 N  
HETATM   16  C   UNL     1     -11.797   9.335  71.274  1.00  0.00    -0.343 C  
HETATM   17  O   UNL     1      -9.612   7.567  68.871  1.00  0.00    -0.149 OA 
HETATM   18  H   UNL     1     -13.257  10.751  72.744  1.00  0.00     0.000 HD 
HETATM   19  C   UNL     1      -9.646   6.268  69.419  1.00  0.00    -0.141 C  
ENDROOT
BRANCH   5  20
HETATM   20  C   UNL     1     -11.782  14.440  68.408  1.00  0.00    -0.332 C  
HETATM   21  H   UNL     1     -10.968  15.533  69.956  1.00  0.00     0.000 HD 
HETATM   22  N   UNL     1     -11.265  15.571  68.981  1.00  0.00    -0.281 N  
HETATM   23  O   UNL     1     -12.257  14.419  67.264  1.00  0.00    -0.383 OA 
BRANCH  22  24
HETATM   24  C   UNL     1     -11.124  16.817  68.262  1.00  0.00    -0.259 C  
BRANCH  24  25
HETATM   25  C   UNL     1      -9.750  17.405  68.433  1.00  0.00    -0.304 A  
HETATM   26  C   UNL     1      -7.221  18.520  68.821  1.00  0.00    -0.296 A  
HETATM   27  F   UNL     1      -6.009  19.053  69.032  1.00  0.00    -0.206 F  
HETATM   28  C   UNL     1      -8.300  19.355  68.573  1.00  0.00    -0.399 A  
HETATM   29  C   UNL     1      -8.640  16.579  68.660  1.00  0.00    -0.243 A  
HETATM   30  C   UNL     1      -7.375  17.137  68.862  1.00  0.00    -0.241 A  
HETATM   31  C   UNL     1      -9.556  18.790  68.375  1.00  0.00    -0.365 A  
HETATM   32  F   UNL     1     -10.597  19.599  68.140  1.00  0.00    -0.504 F  
ENDBRANCH  24  25
ENDBRANCH  22  24
ENDBRANCH   5  20
TORSDOF 3
ENDMDL
MODEL       14
REMARK 921   NORMALIZED FREE ENERGY PREDICTED BY IDOCK:   -7.98 KCAL/MOL
REMARK 922        TOTAL FREE ENERGY PREDICTED BY IDOCK:   -9.70 KCAL/MOL
REMARK 923 INTER-LIGAND FREE ENERGY PREDICTED BY IDOCK:   -9.24 KCAL/MOL
REMARK 924 INTRA-LIGAND FREE ENERGY PREDICTED BY IDOCK:   -0.45 KCAL/MOL
REMARK 927      BINDING AFFINITY PREDICTED BY RF-SCORE:    0.00 PKD
ROOT
HETATM    1  C   UNL     1     -10.165   8.711  69.148  1.00  0.00    -0.208 C  
HETATM    2  C   UNL     1     -10.461   9.690  68.001  1.00  0.00    -0.229 C  
HETATM    3  N   UNL     1     -10.843  11.032  68.462  1.00  0.00    -0.196 NA 
HETATM    4  C   UNL     1     -10.935  12.063  67.525  1.00  0.00    -0.253 C  
HETATM    5  C   UNL     1     -11.480  13.268  67.745  1.00  0.00    -0.354 C  
HETATM    6  C   UNL     1     -12.006  13.505  69.104  1.00  0.00    -0.333 C  
HETATM    7  C   UNL     1     -11.634   7.362  72.258  1.00  0.00    -0.333 C  
HETATM    8  C   UNL     1     -11.963  12.397  70.106  1.00  0.00    -0.298 C  
HETATM    9  C   UNL     1     -11.508   6.289  69.998  1.00  0.00    -0.460 C  
HETATM   10  O   UNL     1     -12.524  14.574  69.436  1.00  0.00    -0.230 OA 
HETATM   11  C   UNL     1     -11.823   7.582  70.748  1.00  0.00    -0.228 C  
HETATM   12  O   UNL     1     -12.056  10.157  71.801  1.00  0.00    -0.349 OA 
HETATM   13  C   UNL     1     -11.413  11.217  69.736  1.00  0.00    -0.312 C  
HETATM   14  O   UNL     1     -12.561  12.667  71.320  1.00  0.00    -0.350 OA 
HETATM   15  N   UNL     1     -11.177   8.780  70.189  1.00  0.00    -0.203 N  
HETATM   16  C   UNL     1     -11.546  10.034  70.690  1.00  0.00    -0.340 C  
HETATM   17  O   UNL     1     -10.073   7.436  68.511  1.00  0.00    -0.164 OA 
HETATM   18  H   UNL     1     -12.533  11.963  71.957  1.00  0.00     0.000 HD 
HETATM   19  C   UNL     1     -10.136   6.325  69.377  1.00  0.00    -0.176 C  
ENDROOT
BRANCH   5  20
HETATM   20  C   UNL     1     -11.552  14.249  66.628  1.00  0.00    -0.383 C  
HETATM   21  H   UNL     1      -9.916  15.244  67.394  1.00  0.00     0.000 HD 
HETATM   22  N   UNL     1     -10.573  15.206  66.615  1.00  0.00    -0.298 N  
HETATM   23  O   UNL     1     -12.450  14.189  65.776  1.00  0.00    -0.466 OA 
BRANCH  22  24
HETATM   24  C   UNL     1     -10.432  16.165  65.542  1.00  0.00    -0.386 C  
BRANCH  24  25
HETATM   25  C   UNL     1      -9.849  17.463  66.029  1.00  0.00    -0.201 A  
HETATM   26  C   UNL     1      -8.732  19.880  66.865  1.00  0.00    -0.340 A  
HETATM   27  F   UNL     1      -8.194  21.048  67.243  1.00  0.00    -0.373 F  
HETATM   28  C   UNL     1      -7.936  18.747  66.813  1.00  0.00    -0.265 A  
HETATM   29  C   UNL     1     -10.642  18.616  66.115  1.00  0.00    -0.409 A  
HETATM   30  C   UNL     1     -10.081  19.828  66.526  1.00  0.00    -0.589 A  
HETATM   31  C   UNL     1      -8.503  17.545  66.400  1.00  0.00    -0.252 A  
HETATM   32  F   UNL     1      -7.729  16.453  66.346  1.00  0.00    -0.267 F  
ENDBRANCH  24  25
ENDBRANCH  22  24
ENDBRANCH   5  20
TORSDOF 3
ENDMDL
MODEL       15
REMARK 921   NORMALIZED FREE ENERGY PREDICTED BY IDOCK:   -7.81 KCAL/MOL
REMARK 922        TOTAL FREE ENERGY PREDICTED BY IDOCK:   -9.51 KCAL/MOL
REMARK 923 INTER-LIGAND FREE ENERGY PREDICTED BY IDOCK:   -9.00 KCAL/MOL
REMARK 924 INTRA-LIGAND FREE ENERGY PREDICTED BY IDOCK:   -0.50 KCAL/MOL
REMARK 927      BINDING AFFINITY PREDICTED BY RF-SCORE:    0.00 PKD
ROOT
HETATM    1  C   UNL     1     -11.695   9.240  70.492  1.00  0.00    -0.176 C  
HETATM    2  C   UNL     1     -11.721  10.687  69.975  1.00  0.00    -0.324 C  
HETATM    3  N   UNL     1     -11.552  10.790  68.518  1.00  0.00    -0.375 NA 
HETATM    4  C   UNL     1     -11.764  12.024  67.903  1.00  0.00    -0.323 C  
HETATM    5  C   UNL     1     -11.436  12.330  66.639  1.00  0.00    -0.431 C  
HETATM    6  C   UNL     1     -10.817  11.249  65.848  1.00  0.00    -0.202 C  
HETATM    7  C   UNL     1      -9.656   6.161  70.387  1.00  0.00    -0.188 C  
HETATM    8  C   UNL     1     -10.535   9.935  66.504  1.00  0.00    -0.143 C  
HETATM    9  C   UNL     1      -9.829   7.855  72.223  1.00  0.00    -0.276 C  
HETATM   10  O   UNL     1     -10.477  11.399  64.672  1.00  0.00    -0.278 OA 
HETATM   11  C   UNL     1      -9.684   7.663  70.715  1.00  0.00    -0.173 C  
HETATM   12  O   UNL     1      -9.828   7.617  67.927  1.00  0.00    -0.147 OA 
HETATM   13  C   UNL     1     -10.889   9.775  67.801  1.00  0.00    -0.246 C  
HETATM   14  O   UNL     1      -9.867   9.011  65.727  1.00  0.00    -0.426 OA 
HETATM   15  N   UNL     1     -10.604   8.479  69.908  1.00  0.00    -0.227 N  
HETATM   16  C   UNL     1     -10.426   8.511  68.519  1.00  0.00    -0.167 C  
HETATM   17  O   UNL     1     -11.614   9.374  71.913  1.00  0.00    -0.378 OA 
HETATM   18  H   UNL     1      -9.689   8.176  66.144  1.00  0.00     0.000 HD 
HETATM   19  C   UNL     1     -11.244   8.203  72.607  1.00  0.00    -0.378 C  
ENDROOT
BRANCH   5  20
HETATM   20  C   UNL     1     -11.678  13.711  66.138  1.00  0.00    -0.364 C  
HETATM   21  H   UNL     1      -9.764  14.247  66.688  1.00  0.00     0.000 HD 
HETATM   22  N   UNL     1     -10.613  14.567  66.223  1.00  0.00    -0.297 N  
HETATM   23  O   UNL     1     -12.779  14.044  65.679  1.00  0.00    -0.526 OA 
BRANCH  22  24
HETATM   24  C   UNL     1     -10.643  15.907  65.680  1.00  0.00    -0.378 C  
BRANCH  24  25
HETATM   25  C   UNL     1     -10.009  16.900  66.614  1.00  0.00    -0.302 A  
HETATM   26  C   UNL     1      -8.803  18.686  68.388  1.00  0.00    -0.339 A  
HETATM   27  F   UNL     1      -8.207  19.526  69.246  1.00  0.00    -0.381 F  
HETATM   28  C   UNL     1      -9.949  18.011  68.779  1.00  0.00    -0.380 A  
HETATM   29  C   UNL     1      -8.864  17.614  66.231  1.00  0.00    -0.209 A  
HETATM   30  C   UNL     1      -8.256  18.502  67.121  1.00  0.00    -0.256 A  
HETATM   31  C   UNL     1     -10.546  17.127  67.886  1.00  0.00    -0.376 A  
HETATM   32  F   UNL     1     -11.650  16.472  68.269  1.00  0.00    -0.334 F  
ENDBRANCH  24  25
ENDBRANCH  22  24
ENDBRANCH   5  20
TORSDOF 3
ENDMDL
MODEL       16
REMARK 921   NORMALIZED FREE ENERGY PREDICTED BY IDOCK:   -7.81 KCAL/MOL
REMARK 922        TOTAL FREE ENERGY PREDICTED BY IDOCK:   -9.50 KCAL/MOL
REMARK 923 INTER-LIGAND FREE ENERGY PREDICTED BY IDOCK:   -8.99 KCAL/MOL
REMARK 924 INTRA-LIGAND FREE ENERGY PREDICTED BY IDOCK:   -0.51 KCAL/MOL
REMARK 927      BINDING AFFINITY PREDICTED BY RF-SCORE:    0.00 PKD
ROOT
HETATM    1  C   UNL     1      -8.668  16.742  66.585  1.00  0.00    -0.248 C  
HETATM    2  C   UNL     1      -8.807  15.275  67.019  1.00  0.00    -0.237 C  
HETATM    3  N   UNL     1      -9.564  14.452  66.065  1.00  0.00    -0.292 NA 
HETATM    4  C   UNL     1      -9.583  13.068  66.239  1.00  0.00    -0.238 C  
HETATM    5  C   UNL     1     -10.396  12.214  65.600  1.00  0.00    -0.289 C  
HETATM    6  C   UNL     1     -11.328  12.812  64.623  1.00  0.00    -0.321 C  
HETATM    7  C   UNL     1     -10.675  19.643  65.485  1.00  0.00    -0.323 C  
HETATM    8  C   UNL     1     -11.358  14.297  64.459  1.00  0.00    -0.334 C  
HETATM    9  C   UNL     1      -9.692  19.193  67.744  1.00  0.00    -0.391 C  
HETATM   10  O   UNL     1     -12.121  12.135  63.965  1.00  0.00    -0.414 OA 
HETATM   11  C   UNL     1     -10.459  18.580  66.574  1.00  0.00    -0.398 C  
HETATM   12  O   UNL     1     -11.491  17.105  64.440  1.00  0.00    -1.013 OA 
HETATM   13  C   UNL     1     -10.502  15.044  65.196  1.00  0.00    -0.412 C  
HETATM   14  O   UNL     1     -12.322  14.784  63.599  1.00  0.00    -1.046 OA 
HETATM   15  N   UNL     1      -9.930  17.287  66.112  1.00  0.00    -0.293 N  
HETATM   16  C   UNL     1     -10.669  16.559  65.171  1.00  0.00    -0.244 C  
HETATM   17  O   UNL     1      -8.145  17.405  67.738  1.00  0.00    -0.207 OA 
HETATM   18  H   UNL     1     -12.340  15.728  63.495  1.00  0.00     0.000 HD 
HETATM   19  C   UNL     1      -8.234  18.812  67.715  1.00  0.00    -0.263 C  
ENDROOT
BRANCH   5  20
HETATM   20  C   UNL     1     -10.336  10.764  65.931  1.00  0.00    -0.238 C  
HETATM   21  H   UNL     1     -10.954  11.176  67.855  1.00  0.00     0.000 HD 
HETATM   22  N   UNL     1     -10.728  10.429  67.199  1.00  0.00    -0.266 N  
HETATM   23  O   UNL     1      -9.951   9.931  65.100  1.00  0.00    -0.318 OA 
BRANCH  22  24
HETATM   24  C   UNL     1     -10.836   9.058  67.647  1.00  0.00    -0.063 C  
BRANCH  24  25
HETATM   25  C   UNL     1      -9.792   8.725  68.677  1.00  0.00    -0.180 A  
HETATM   26  C   UNL     1      -7.861   8.035  70.570  1.00  0.00    -0.094 A  
HETATM   27  F   UNL     1      -6.928   7.682  71.466  1.00  0.00    -0.054 F  
HETATM   28  C   UNL     1      -9.195   7.765  70.832  1.00  0.00    -0.155 A  
HETATM   29  C   UNL     1      -8.439   9.012  68.444  1.00  0.00    -0.129 A  
HETATM   30  C   UNL     1      -7.471   8.659  69.388  1.00  0.00    -0.080 A  
HETATM   31  C   UNL     1     -10.152   8.118  69.885  1.00  0.00    -0.195 A  
HETATM   32  F   UNL     1     -11.439   7.852  70.140  1.00  0.00    -0.253 F  
ENDBRANCH  24  25
ENDBRANCH  22  24
ENDBRANCH   5  20
TORSDOF 3
ENDMDL
MODEL       17
REMARK 921   NORMALIZED FREE ENERGY PREDICTED BY IDOCK:   -7.75 KCAL/MOL
REMARK 922        TOTAL FREE ENERGY PREDICTED BY IDOCK:   -9.44 KCAL/MOL
REMARK 923 INTER-LIGAND FREE ENERGY PREDICTED BY IDOCK:   -8.99 KCAL/MOL
REMARK 924 INTRA-LIGAND FREE ENERGY PREDICTED BY IDOCK:   -0.45 KCAL/MOL
REMARK 927      BINDING AFFINITY PREDICTED BY RF-SCORE:    0.00 PKD
ROOT
HETATM    1  C   UNL     1     -11.924  10.277  69.668  1.00  0.00    -0.060 C  
HETATM    2  C   UNL     1     -11.831  11.723  69.157  1.00  0.00    -0.326 C  
HETATM    3  N   UNL     1     -11.623  11.818  67.705  1.00  0.00    -0.481 NA 
HETATM    4  C   UNL     1     -11.729  13.066  67.091  1.00  0.00    -0.382 C  
HETATM    5  C   UNL     1     -11.352  13.351  65.836  1.00  0.00    -0.327 C  
HETATM    6  C   UNL     1     -10.797  12.229  65.054  1.00  0.00    -0.298 C  
HETATM    7  C   UNL     1     -10.118   7.054  69.593  1.00  0.00    -0.194 C  
HETATM    8  C   UNL     1     -10.629  10.896  65.709  1.00  0.00    -0.163 C  
HETATM    9  C   UNL     1     -10.203   8.752  71.432  1.00  0.00    -0.350 C  
HETATM   10  O   UNL     1     -10.422  12.357  63.886  1.00  0.00    -0.381 OA 
HETATM   11  C   UNL     1     -10.040   8.554  69.927  1.00  0.00    -0.195 C  
HETATM   12  O   UNL     1     -10.127   8.527  67.137  1.00  0.00    -0.210 OA 
HETATM   13  C   UNL     1     -11.021  10.759  66.998  1.00  0.00    -0.227 C  
HETATM   14  O   UNL     1     -10.014   9.927  64.942  1.00  0.00    -0.380 OA 
HETATM   15  N   UNL     1     -10.880   9.438  69.104  1.00  0.00    -0.196 N  
HETATM   16  C   UNL     1     -10.670   9.462  67.719  1.00  0.00    -0.229 C  
HETATM   17  O   UNL     1     -11.864  10.400  71.091  1.00  0.00    -0.356 OA 
HETATM   18  H   UNL     1      -9.908   9.080  65.359  1.00  0.00     0.000 HD 
HETATM   19  C   UNL     1     -11.597   9.203  71.787  1.00  0.00    -0.387 C  
ENDROOT
BRANCH   5  20
HETATM   20  C   UNL     1     -11.479  14.747  65.336  1.00  0.00    -0.341 C  
HETATM   21  H   UNL     1     -10.348  15.420  66.924  1.00  0.00     0.000 HD 
HETATM   22  N   UNL     1     -10.813  15.699  66.060  1.00  0.00    -0.305 N  
HETATM   23  O   UNL     1     -12.151  15.011  64.330  1.00  0.00    -0.471 OA 
BRANCH  22  24
HETATM   24  C   UNL     1     -10.740  17.084  65.649  1.00  0.00    -0.144 C  
BRANCH  24  25
HETATM   25  C   UNL     1      -9.933  17.909  66.614  1.00  0.00    -0.355 A  
HETATM   26  C   UNL     1      -8.419  19.487  68.347  1.00  0.00    -0.350 A  
HETATM   27  F   UNL     1      -7.695  20.265  69.165  1.00  0.00    -0.121 F  
HETATM   28  C   UNL     1      -7.772  18.669  67.434  1.00  0.00    -0.237 A  
HETATM   29  C   UNL     1     -10.566  18.724  67.563  1.00  0.00    -0.497 A  
HETATM   30  C   UNL     1      -9.808  19.521  68.425  1.00  0.00    -0.521 A  
HETATM   31  C   UNL     1      -8.535  17.881  66.578  1.00  0.00    -0.258 A  
HETATM   32  F   UNL     1      -7.906  17.095  65.695  1.00  0.00    -0.248 F  
ENDBRANCH  24  25
ENDBRANCH  22  24
ENDBRANCH   5  20
TORSDOF 3
ENDMDL
MODEL       18
REMARK 921   NORMALIZED FREE ENERGY PREDICTED BY IDOCK:   -7.69 KCAL/MOL
REMARK 922        TOTAL FREE ENERGY PREDICTED BY IDOCK:   -9.36 KCAL/MOL
REMARK 923 INTER-LIGAND FREE ENERGY PREDICTED BY IDOCK:   -8.99 KCAL/MOL
REMARK 924 INTRA-LIGAND FREE ENERGY PREDICTED BY IDOCK:   -0.38 KCAL/MOL
REMARK 927      BINDING AFFINITY PREDICTED BY RF-SCORE:    0.00 PKD
ROOT
HETATM    1  C   UNL     1      -9.336  17.213  66.122  1.00  0.00    -0.192 C  
HETATM    2  C   UNL     1      -9.039  15.733  65.834  1.00  0.00    -0.265 C  
HETATM    3  N   UNL     1     -10.046  14.816  66.387  1.00  0.00    -0.269 NA 
HETATM    4  C   UNL     1     -10.003  13.471  66.020  1.00  0.00    -0.299 C  
HETATM    5  C   UNL     1     -10.697  12.482  66.602  1.00  0.00    -0.261 C  
HETATM    6  C   UNL     1     -11.587  12.879  67.711  1.00  0.00    -0.343 C  
HETATM    7  C   UNL     1     -10.101  19.529  68.898  1.00  0.00    -0.486 C  
HETATM    8  C   UNL     1     -11.609  14.307  68.153  1.00  0.00    -0.332 C  
HETATM    9  C   UNL     1      -7.922  19.180  67.712  1.00  0.00    -0.305 C  
HETATM   10  O   UNL     1     -12.285  12.067  68.324  1.00  0.00    -0.398 OA 
HETATM   11  C   UNL     1      -9.123  18.479  68.344  1.00  0.00    -0.322 C  
HETATM   12  O   UNL     1     -11.358  16.961  69.046  1.00  0.00    -0.094 OA 
HETATM   13  C   UNL     1     -10.828  15.196  67.495  1.00  0.00    -0.301 C  
HETATM   14  O   UNL     1     -12.392  14.579  69.257  1.00  0.00    -0.524 OA 
HETATM   15  N   UNL     1      -9.720  17.425  67.508  1.00  0.00    -0.260 N  
HETATM   16  C   UNL     1     -10.705  16.604  68.069  1.00  0.00    -0.350 C  
HETATM   17  O   UNL     1      -8.140  17.895  65.739  1.00  0.00    -0.537 OA 
HETATM   18  H   UNL     1     -12.406  15.486  69.537  1.00  0.00     0.000 HD 
HETATM   19  C   UNL     1      -8.027  19.220  66.209  1.00  0.00    -0.308 C  
ENDROOT
BRANCH   5  20
HETATM   20  C   UNL     1     -10.506  11.083  66.132  1.00  0.00    -0.244 C  
HETATM   21  H   UNL     1      -9.756  10.563  67.981  1.00  0.00     0.000 HD 
HETATM   22  N   UNL     1     -10.027  10.204  67.066  1.00  0.00    -0.190 N  
HETATM   23  O   UNL     1     -10.769  10.755  64.967  1.00  0.00    -0.229 OA 
BRANCH  22  24
HETATM   24  C   UNL     1      -9.890   8.788  66.808  1.00  0.00    -0.247 C  
BRANCH  24  25
HETATM   25  C   UNL     1     -10.232   7.966  68.020  1.00  0.00    -0.256 A  
HETATM   26  C   UNL     1     -10.806   6.396  70.255  1.00  0.00    -0.293 A  
HETATM   27  F   UNL     1     -11.058   5.634  71.330  1.00  0.00    -0.317 F  
HETATM   28  C   UNL     1     -11.099   5.909  68.990  1.00  0.00    -0.295 A  
HETATM   29  C   UNL     1      -9.968   8.448  69.310  1.00  0.00    -0.195 A  
HETATM   30  C   UNL     1     -10.248   7.659  70.429  1.00  0.00    -0.203 A  
HETATM   31  C   UNL     1     -10.815   6.701  67.882  1.00  0.00    -0.277 A  
HETATM   32  F   UNL     1     -11.095   6.226  66.662  1.00  0.00    -0.393 F  
ENDBRANCH  24  25
ENDBRANCH  22  24
ENDBRANCH   5  20
TORSDOF 3
ENDMDL
MODEL       19
REMARK 921   NORMALIZED FREE ENERGY PREDICTED BY IDOCK:   -7.66 KCAL/MOL
REMARK 922        TOTAL FREE ENERGY PREDICTED BY IDOCK:   -9.32 KCAL/MOL
REMARK 923 INTER-LIGAND FREE ENERGY PREDICTED BY IDOCK:   -8.74 KCAL/MOL
REMARK 924 INTRA-LIGAND FREE ENERGY PREDICTED BY IDOCK:   -0.58 KCAL/MOL
REMARK 927      BINDING AFFINITY PREDICTED BY RF-SCORE:    0.00 PKD
ROOT
HETATM    1  C   UNL     1     -11.028   6.806  69.856  1.00  0.00    -0.291 C  
HETATM    2  C   UNL     1     -10.883   8.313  70.122  1.00  0.00    -0.237 C  
HETATM    3  N   UNL     1     -10.854   9.122  68.895  1.00  0.00    -0.131 NA 
HETATM    4  C   UNL     1     -10.934  10.511  69.005  1.00  0.00    -0.243 C  
HETATM    5  C   UNL     1     -10.697  11.384  68.016  1.00  0.00    -0.240 C  
HETATM    6  C   UNL     1     -10.339  10.803  66.707  1.00  0.00    -0.243 C  
HETATM    7  C   UNL     1      -9.517   4.044  67.922  1.00  0.00    -0.225 C  
HETATM    8  C   UNL     1     -10.199   9.320  66.582  1.00  0.00    -0.253 C  
HETATM    9  C   UNL     1      -9.229   4.588  70.350  1.00  0.00    -0.194 C  
HETATM   10  O   UNL     1     -10.106  11.498  65.715  1.00  0.00    -0.219 OA 
HETATM   11  C   UNL     1      -9.275   5.172  68.939  1.00  0.00    -0.118 C  
HETATM   12  O   UNL     1      -9.717   6.551  66.553  1.00  0.00    -0.167 OA 
HETATM   13  C   UNL     1     -10.435   8.557  67.675  1.00  0.00    -0.241 C  
HETATM   14  O   UNL     1      -9.768   8.863  65.352  1.00  0.00    -0.455 OA 
HETATM   15  N   UNL     1     -10.137   6.356  68.800  1.00  0.00    -0.150 N  
HETATM   16  C   UNL     1     -10.103   7.071  67.596  1.00  0.00    -0.172 C  
HETATM   17  O   UNL     1     -10.779   6.197  71.125  1.00  0.00    -0.235 OA 
HETATM   18  H   UNL     1      -9.680   7.920  65.273  1.00  0.00     0.000 HD 
HETATM   19  C   UNL     1     -10.525   4.810  71.087  1.00  0.00    -0.051 C  
ENDROOT
BRANCH   5  20
HETATM   20  C   UNL     1     -10.771  12.844  68.299  1.00  0.00    -0.244 C  
HETATM   21  H   UNL     1     -12.822  12.708  68.464  1.00  0.00     0.000 HD 
HETATM   22  N   UNL     1     -12.023  13.334  68.559  1.00  0.00    -0.340 N  
HETATM   23  O   UNL     1      -9.755  13.552  68.295  1.00  0.00    -0.218 OA 
BRANCH  22  24
HETATM   24  C   UNL     1     -12.257  14.703  68.962  1.00  0.00    -0.164 C  
BRANCH  24  25
HETATM   25  C   UNL     1     -12.326  14.838  70.458  1.00  0.00    -0.398 A  
HETATM   26  C   UNL     1     -12.504  15.145  73.227  1.00  0.00    -0.483 A  
HETATM   27  F   UNL     1     -12.613  15.302  74.554  1.00  0.00    -0.630 F  
HETATM   28  C   UNL     1     -11.808  16.085  72.483  1.00  0.00    -0.630 A  
HETATM   29  C   UNL     1     -13.004  13.886  71.233  1.00  0.00    -0.414 A  
HETATM   30  C   UNL     1     -13.100  14.043  72.618  1.00  0.00    -0.553 A  
HETATM   31  C   UNL     1     -11.719  15.921  71.104  1.00  0.00    -0.442 A  
HETATM   32  F   UNL     1     -11.049  16.833  70.389  1.00  0.00    -0.363 F  
ENDBRANCH  24  25
ENDBRANCH  22  24
ENDBRANCH   5  20
TORSDOF 3
ENDMDL
MODEL       20
REMARK 921   NORMALIZED FREE ENERGY PREDICTED BY IDOCK:   -7.59 KCAL/MOL
REMARK 922        TOTAL FREE ENERGY PREDICTED BY IDOCK:   -9.24 KCAL/MOL
REMARK 923 INTER-LIGAND FREE ENERGY PREDICTED BY IDOCK:   -8.66 KCAL/MOL
REMARK 924 INTRA-LIGAND FREE ENERGY PREDICTED BY IDOCK:   -0.57 KCAL/MOL
REMARK 927      BINDING AFFINITY PREDICTED BY RF-SCORE:    0.00 PKD
ROOT
HETATM    1  C   UNL     1     -11.826  13.184  69.192  1.00  0.00    -0.314 C  
HETATM    2  C   UNL     1     -11.022  11.879  69.080  1.00  0.00    -0.219 C  
HETATM    3  N   UNL     1     -11.634  10.752  69.797  1.00  0.00    -0.289 NA 
HETATM    4  C   UNL     1     -11.115   9.471  69.603  1.00  0.00    -0.171 C  
HETATM    5  C   UNL     1     -11.409   8.392  70.342  1.00  0.00    -0.178 C  
HETATM    6  C   UNL     1     -12.377   8.598  71.436  1.00  0.00    -0.304 C  
HETATM    7  C   UNL     1     -13.356  15.440  71.687  1.00  0.00    -0.578 C  
HETATM    8  C   UNL     1     -12.906   9.973  71.693  1.00  0.00    -0.440 C  
HETATM    9  C   UNL     1     -11.200  15.722  70.442  1.00  0.00    -0.383 C  
HETATM   10  O   UNL     1     -12.737   7.684  72.183  1.00  0.00    -0.258 OA 
HETATM   11  C   UNL     1     -12.070  14.737  71.220  1.00  0.00    -0.341 C  
HETATM   12  O   UNL     1     -13.614  12.640  72.226  1.00  0.00    -0.547 OA 
HETATM   13  C   UNL     1     -12.496  10.980  70.887  1.00  0.00    -0.410 C  
HETATM   14  O   UNL     1     -13.730  10.100  72.793  1.00  0.00    -0.465 OA 
HETATM   15  N   UNL     1     -12.255  13.436  70.558  1.00  0.00    -0.365 N  
HETATM   16  C   UNL     1     -12.880  12.405  71.270  1.00  0.00    -0.240 C  
HETATM   17  O   UNL     1     -10.953  14.185  68.663  1.00  0.00    -0.241 OA 
HETATM   18  H   UNL     1     -14.066  10.973  72.956  1.00  0.00     0.000 HD 
HETATM   19  C   UNL     1     -11.319  15.515  68.954  1.00  0.00    -0.324 C  
ENDROOT
BRANCH   5  20
HETATM   20  C   UNL     1     -10.733   7.099  70.044  1.00  0.00    -0.248 C  
HETATM   21  H   UNL     1      -9.486   7.376  71.663  1.00  0.00     0.000 HD 
HETATM   22  N   UNL     1      -9.751   6.727  70.923  1.00  0.00    -0.178 N  
HETATM   23  O   UNL     1     -11.053   6.419  69.060  1.00  0.00    -0.327 OA 
BRANCH  22  24
HETATM   24  C   UNL     1      -9.075   5.452  70.844  1.00  0.00    -0.139 C  
BRANCH  24  25
HETATM   25  C   UNL     1      -9.770   4.401  71.666  1.00  0.00    -0.238 A  
HETATM   26  C   UNL     1     -10.993   2.434  73.223  1.00  0.00    -0.169 A  
HETATM   27  F   UNL     1     -11.562   1.491  73.987  1.00  0.00    -0.214 F  
HETATM   28  C   UNL     1     -10.243   2.058  72.119  1.00  0.00    -0.214 A  
HETATM   29  C   UNL     1     -10.554   4.761  72.772  1.00  0.00    -0.272 A  
HETATM   30  C   UNL     1     -11.160   3.776  73.556  1.00  0.00    -0.328 A  
HETATM   31  C   UNL     1      -9.642   3.046  71.345  1.00  0.00    -0.157 A  
HETATM   32  F   UNL     1      -8.915   2.678  70.283  1.00  0.00    -0.112 F  
ENDBRANCH  24  25
ENDBRANCH  22  24
ENDBRANCH   5  20
TORSDOF 3
ENDMDL
MODEL       21
REMARK 921   NORMALIZED FREE ENERGY PREDICTED BY IDOCK:   -7.57 KCAL/MOL
REMARK 922        TOTAL FREE ENERGY PREDICTED BY IDOCK:   -9.22 KCAL/MOL
REMARK 923 INTER-LIGAND FREE ENERGY PREDICTED BY IDOCK:   -8.94 KCAL/MOL
REMARK 924 INTRA-LIGAND FREE ENERGY PREDICTED BY IDOCK:   -0.28 KCAL/MOL
REMARK 927      BINDING AFFINITY PREDICTED BY RF-SCORE:    0.00 PKD
ROOT
HETATM    1  C   UNL     1     -12.895  10.586  70.838  1.00  0.00    -0.394 C  
HETATM    2  C   UNL     1     -12.574  12.087  70.892  1.00  0.00    -0.253 C  
HETATM    3  N   UNL     1     -11.811  12.564  69.730  1.00  0.00    -0.328 NA 
HETATM    4  C   UNL     1     -11.637  13.938  69.558  1.00  0.00    -0.301 C  
HETATM    5  C   UNL     1     -10.792  14.513  68.691  1.00  0.00    -0.259 C  
HETATM    6  C   UNL     1     -10.003  13.595  67.847  1.00  0.00    -0.244 C  
HETATM    7  C   UNL     1     -11.284   7.291  70.387  1.00  0.00    -0.302 C  
HETATM    8  C   UNL     1     -10.138  12.120  68.050  1.00  0.00    -0.204 C  
HETATM    9  C   UNL     1     -12.042   8.379  72.512  1.00  0.00    -0.403 C  
HETATM   10  O   UNL     1      -9.197  13.998  67.004  1.00  0.00    -0.233 OA 
HETATM   11  C   UNL     1     -11.307   8.602  71.192  1.00  0.00    -0.275 C  
HETATM   12  O   UNL     1     -10.294   9.394  68.714  1.00  0.00    -0.198 OA 
HETATM   13  C   UNL     1     -11.007  11.677  68.989  1.00  0.00    -0.233 C  
HETATM   14  O   UNL     1      -9.296  11.333  67.290  1.00  0.00    -0.164 OA 
HETATM   15  N   UNL     1     -11.734   9.800  70.453  1.00  0.00    -0.254 N  
HETATM   16  C   UNL     1     -10.998  10.190  69.328  1.00  0.00    -0.240 C  
HETATM   17  O   UNL     1     -13.394  10.283  72.143  1.00  0.00    -0.443 OA 
HETATM   18  H   UNL     1      -9.382  10.396  67.419  1.00  0.00     0.000 HD 
HETATM   19  C   UNL     1     -13.451   8.910  72.461  1.00  0.00    -0.412 C  
ENDROOT
BRANCH   5  20
HETATM   20  C   UNL     1     -10.679  15.997  68.659  1.00  0.00    -0.281 C  
HETATM   21  H   UNL     1     -10.579  15.947  66.600  1.00  0.00     0.000 HD 
HETATM   22  N   UNL     1     -10.623  16.561  67.413  1.00  0.00    -0.317 N  
HETATM   23  O   UNL     1     -10.638  16.661  69.704  1.00  0.00    -0.316 OA 
BRANCH  22  24
HETATM   24  C   UNL     1     -10.624  17.992  67.202  1.00  0.00    -0.325 C  
BRANCH  24  25
HETATM   25  C   UNL     1      -9.283  18.487  66.737  1.00  0.00    -0.297 A  
HETATM   26  C   UNL     1      -6.775  19.422  65.944  1.00  0.00    -0.246 A  
HETATM   27  F   UNL     1      -5.562  19.866  65.587  1.00  0.00    -0.166 F  
HETATM   28  C   UNL     1      -7.758  20.332  66.299  1.00  0.00    -0.238 A  
HETATM   29  C   UNL     1      -8.281  17.584  66.348  1.00  0.00    -0.305 A  
HETATM   30  C   UNL     1      -7.024  18.052  65.959  1.00  0.00    -0.340 A  
HETATM   31  C   UNL     1      -9.007  19.857  66.687  1.00  0.00    -0.372 A  
HETATM   32  F   UNL     1      -9.952  20.740  67.034  1.00  0.00    -0.598 F  
ENDBRANCH  24  25
ENDBRANCH  22  24
ENDBRANCH   5  20
TORSDOF 3
ENDMDL
MODEL       22
REMARK 921   NORMALIZED FREE ENERGY PREDICTED BY IDOCK:   -7.53 KCAL/MOL
REMARK 922        TOTAL FREE ENERGY PREDICTED BY IDOCK:   -9.18 KCAL/MOL
REMARK 923 INTER-LIGAND FREE ENERGY PREDICTED BY IDOCK:   -9.16 KCAL/MOL
REMARK 924 INTRA-LIGAND FREE ENERGY PREDICTED BY IDOCK:   -0.02 KCAL/MOL
REMARK 927      BINDING AFFINITY PREDICTED BY RF-SCORE:    0.00 PKD
ROOT
HETATM    1  C   UNL     1      -8.504  10.996  67.476  1.00  0.00    -0.127 C  
HETATM    2  C   UNL     1      -8.579  12.499  67.165  1.00  0.00    -0.200 C  
HETATM    3  N   UNL     1      -9.675  12.852  66.250  1.00  0.00    -0.272 NA 
HETATM    4  C   UNL     1      -9.978  14.200  66.054  1.00  0.00    -0.322 C  
HETATM    5  C   UNL     1     -10.782  14.685  65.098  1.00  0.00    -0.430 C  
HETATM    6  C   UNL     1     -11.401  13.690  64.201  1.00  0.00    -0.304 C  
HETATM    7  C   UNL     1      -8.350   7.697  65.819  1.00  0.00    -0.144 C  
HETATM    8  C   UNL     1     -11.049  12.245  64.363  1.00  0.00    -0.330 C  
HETATM    9  C   UNL     1      -6.487   9.008  66.860  1.00  0.00    -0.064 C  
HETATM   10  O   UNL     1     -12.166  14.006  63.287  1.00  0.00    -0.588 OA 
HETATM   11  C   UNL     1      -7.712   9.090  65.951  1.00  0.00    -0.094 C  
HETATM   12  O   UNL     1     -10.104   9.610  64.609  1.00  0.00     0.067 OA 
HETATM   13  C   UNL     1     -10.193  11.899  65.352  1.00  0.00    -0.263 C  
HETATM   14  O   UNL     1     -11.592  11.390  63.425  1.00  0.00    -0.752 OA 
HETATM   15  N   UNL     1      -8.634  10.189  66.273  1.00  0.00    -0.129 N  
HETATM   16  C   UNL     1      -9.687  10.460  65.390  1.00  0.00    -0.265 C  
HETATM   17  O   UNL     1      -7.253  10.836  68.149  1.00  0.00    -0.080 OA 
HETATM   18  H   UNL     1     -11.369  10.473  63.528  1.00  0.00     0.000 HD 
HETATM   19  C   UNL     1      -6.790   9.507  68.249  1.00  0.00    -0.062 C  
ENDROOT
BRANCH   5  20
HETATM   20  C   UNL     1     -10.969  16.158  64.981  1.00  0.00    -0.344 C  
HETATM   21  H   UNL     1     -10.036  16.422  66.801  1.00  0.00     0.000 HD 
HETATM   22  N   UNL     1     -10.442  16.905  66.000  1.00  0.00    -0.324 N  
HETATM   23  O   UNL     1     -11.567  16.655  64.017  1.00  0.00    -1.197 OA 
BRANCH  22  24
HETATM   24  C   UNL     1     -10.437  18.351  65.987  1.00  0.00    -0.374 C  
BRANCH  24  25
HETATM   25  C   UNL     1      -9.316  18.911  66.818  1.00  0.00    -0.343 A  
HETATM   26  C   UNL     1      -7.199  19.886  68.354  1.00  0.00    -0.296 A  
HETATM   27  F   UNL     1      -6.166  20.337  69.080  1.00  0.00    -0.311 F  
HETATM   28  C   UNL     1      -8.085  18.980  68.916  1.00  0.00    -0.310 A  
HETATM   29  C   UNL     1      -8.423  19.848  66.278  1.00  0.00    -0.373 A  
HETATM   30  C   UNL     1      -7.358  20.330  67.044  1.00  0.00    -0.327 A  
HETATM   31  C   UNL     1      -9.141  18.504  68.145  1.00  0.00    -0.309 A  
HETATM   32  F   UNL     1      -9.992  17.626  68.691  1.00  0.00    -0.290 F  
ENDBRANCH  24  25
ENDBRANCH  22  24
ENDBRANCH   5  20
TORSDOF 3
ENDMDL
MODEL       23
REMARK 921   NORMALIZED FREE ENERGY PREDICTED BY IDOCK:   -7.52 KCAL/MOL
REMARK 922        TOTAL FREE ENERGY PREDICTED BY IDOCK:   -9.16 KCAL/MOL
REMARK 923 INTER-LIGAND FREE ENERGY PREDICTED BY IDOCK:   -8.93 KCAL/MOL
REMARK 924 INTRA-LIGAND FREE ENERGY PREDICTED BY IDOCK:   -0.23 KCAL/MOL
REMARK 927      BINDING AFFINITY PREDICTED BY RF-SCORE:    0.00 PKD
ROOT
HETATM    1  C   UNL     1      -8.647   6.862  69.750  1.00  0.00    -0.141 C  
HETATM    2  C   UNL     1      -9.170   8.208  69.223  1.00  0.00    -0.151 C  
HETATM    3  N   UNL     1     -10.136   8.853  70.124  1.00  0.00    -0.183 NA 
HETATM    4  C   UNL     1     -10.525  10.167  69.862  1.00  0.00    -0.275 C  
HETATM    5  C   UNL     1     -11.548  10.807  70.445  1.00  0.00    -0.431 C  
HETATM    6  C   UNL     1     -12.300  10.041  71.459  1.00  0.00    -0.419 C  
HETATM    7  C   UNL     1      -9.815   3.601  71.035  1.00  0.00    -0.186 C  
HETATM    8  C   UNL     1     -11.931   8.616  71.718  1.00  0.00    -0.336 C  
HETATM    9  C   UNL     1      -8.953   4.160  68.750  1.00  0.00    -0.160 C  
HETATM   10  O   UNL     1     -13.257  10.518  72.074  1.00  0.00    -0.464 OA 
HETATM   11  C   UNL     1      -9.876   4.614  69.879  1.00  0.00    -0.226 C  
HETATM   12  O   UNL     1     -11.302   5.884  71.916  1.00  0.00    -0.276 OA 
HETATM   13  C   UNL     1     -10.894   8.085  71.029  1.00  0.00    -0.235 C  
HETATM   14  O   UNL     1     -12.742   7.941  72.608  1.00  0.00    -0.555 OA 
HETATM   15  N   UNL     1      -9.723   6.027  70.257  1.00  0.00    -0.162 N  
HETATM   16  C   UNL     1     -10.646   6.585  71.151  1.00  0.00    -0.229 C  
HETATM   17  O   UNL     1      -7.946   6.296  68.641  1.00  0.00    -0.103 OA 
HETATM   18  H   UNL     1     -12.507   7.036  72.773  1.00  0.00     0.000 HD 
HETATM   19  C   UNL     1      -7.653   4.921  68.754  1.00  0.00    -0.069 C  
ENDROOT
BRANCH   5  20
HETATM   20  C   UNL     1     -11.875  12.196  70.022  1.00  0.00    -0.306 C  
HETATM   21  H   UNL     1     -10.425  12.094  68.560  1.00  0.00     0.000 HD 
HETATM   22  N   UNL     1     -11.172  12.670  68.948  1.00  0.00    -0.266 N  
HETATM   23  O   UNL     1     -12.731  12.864  70.618  1.00  0.00    -0.201 OA 
BRANCH  22  24
HETATM   24  C   UNL     1     -11.444  13.954  68.341  1.00  0.00    -0.311 C  
BRANCH  24  25
HETATM   25  C   UNL     1     -11.673  13.831  66.859  1.00  0.00    -0.424 A  
HETATM   26  C   UNL     1     -12.024  13.599  64.100  1.00  0.00    -0.443 A  
HETATM   27  F   UNL     1     -12.171  13.476  62.773  1.00  0.00    -0.469 F  
HETATM   28  C   UNL     1     -11.576  14.800  64.629  1.00  0.00    -0.401 A  
HETATM   29  C   UNL     1     -12.151  12.634  66.305  1.00  0.00    -0.358 A  
HETATM   30  C   UNL     1     -12.319  12.516  64.923  1.00  0.00    -0.539 A  
HETATM   31  C   UNL     1     -11.410  14.908  66.006  1.00  0.00    -0.306 A  
HETATM   32  F   UNL     1     -10.972  16.068  66.512  1.00  0.00    -0.305 F  
ENDBRANCH  24  25
ENDBRANCH  22  24
ENDBRANCH   5  20
TORSDOF 3
ENDMDL
MODEL       24
REMARK 921   NORMALIZED FREE ENERGY PREDICTED BY IDOCK:   -7.46 KCAL/MOL
REMARK 922        TOTAL FREE ENERGY PREDICTED BY IDOCK:   -9.08 KCAL/MOL
REMARK 923 INTER-LIGAND FREE ENERGY PREDICTED BY IDOCK:   -8.58 KCAL/MOL
REMARK 924 INTRA-LIGAND FREE ENERGY PREDICTED BY IDOCK:   -0.50 KCAL/MOL
REMARK 927      BINDING AFFINITY PREDICTED BY RF-SCORE:    0.00 PKD
ROOT
HETATM    1  C   UNL     1     -11.003  14.057  67.049  1.00  0.00    -0.297 C  
HETATM    2  C   UNL     1     -11.034  12.681  67.733  1.00  0.00    -0.234 C  
HETATM    3  N   UNL     1     -11.828  12.661  68.970  1.00  0.00    -0.304 NA 
HETATM    4  C   UNL     1     -12.104  11.432  69.571  1.00  0.00    -0.302 C  
HETATM    5  C   UNL     1     -12.612  11.264  70.800  1.00  0.00    -0.425 C  
HETATM    6  C   UNL     1     -12.911  12.496  71.554  1.00  0.00    -0.280 C  
HETATM    7  C   UNL     1     -10.269  17.615  67.726  1.00  0.00    -0.354 C  
HETATM    8  C   UNL     1     -12.576  13.821  70.949  1.00  0.00    -0.356 C  
HETATM    9  C   UNL     1      -8.832  15.917  66.576  1.00  0.00    -0.340 C  
HETATM   10  O   UNL     1     -13.389  12.478  72.691  1.00  0.00    -0.354 OA 
HETATM   11  C   UNL     1      -9.742  16.171  67.775  1.00  0.00    -0.229 C  
HETATM   12  O   UNL     1     -11.658  16.219  69.805  1.00  0.00    -0.272 OA 
HETATM   13  C   UNL     1     -12.032  13.843  69.709  1.00  0.00    -0.338 C  
HETATM   14  O   UNL     1     -12.796  14.920  71.755  1.00  0.00    -0.300 OA 
HETATM   15  N   UNL     1     -10.754  15.127  68.002  1.00  0.00    -0.258 N  
HETATM   16  C   UNL     1     -11.513  15.175  69.177  1.00  0.00    -0.306 C  
HETATM   17  O   UNL     1      -9.997  13.930  66.042  1.00  0.00    -0.298 OA 
HETATM   18  H   UNL     1     -12.583  15.761  71.370  1.00  0.00     0.000 HD 
HETATM   19  C   UNL     1      -9.540  15.145  65.492  1.00  0.00    -0.188 C  
ENDROOT
BRANCH   5  20
HETATM   20  C   UNL     1     -12.804   9.884  71.326  1.00  0.00    -0.390 C  
HETATM   21  H   UNL     1     -10.764   9.685  71.553  1.00  0.00     0.000 HD 
HETATM   22  N   UNL     1     -11.664   9.235  71.717  1.00  0.00    -0.380 N  
HETATM   23  O   UNL     1     -13.931   9.374  71.396  1.00  0.00    -0.284 OA 
BRANCH  22  24
HETATM   24  C   UNL     1     -11.684   7.936  72.352  1.00  0.00    -0.367 C  
BRANCH  24  25
HETATM   25  C   UNL     1     -10.345   7.583  72.939  1.00  0.00    -0.349 A  
HETATM   26  C   UNL     1      -7.849   6.880  73.972  1.00  0.00    -0.106 A  
HETATM   27  F   UNL     1      -6.643   6.536  74.445  1.00  0.00    -0.077 F  
HETATM   28  C   UNL     1      -8.914   6.004  74.114  1.00  0.00    -0.128 A  
HETATM   29  C   UNL     1      -9.260   8.466  72.831  1.00  0.00    -0.288 A  
HETATM   30  C   UNL     1      -8.009   8.111  73.341  1.00  0.00    -0.240 A  
HETATM   31  C   UNL     1     -10.156   6.365  73.601  1.00  0.00    -0.241 A  
HETATM   32  F   UNL     1     -11.181   5.514  73.736  1.00  0.00    -0.296 F  
ENDBRANCH  24  25
ENDBRANCH  22  24
ENDBRANCH   5  20
TORSDOF 3
ENDMDL
MODEL       25
REMARK 921   NORMALIZED FREE ENERGY PREDICTED BY IDOCK:   -7.42 KCAL/MOL
REMARK 922        TOTAL FREE ENERGY PREDICTED BY IDOCK:   -9.04 KCAL/MOL
REMARK 923 INTER-LIGAND FREE ENERGY PREDICTED BY IDOCK:   -8.60 KCAL/MOL
REMARK 924 INTRA-LIGAND FREE ENERGY PREDICTED BY IDOCK:   -0.45 KCAL/MOL
REMARK 927      BINDING AFFINITY PREDICTED BY RF-SCORE:    0.00 PKD
ROOT
HETATM    1  C   UNL     1     -11.618   8.853  70.953  1.00  0.00    -0.283 C  
HETATM    2  C   UNL     1     -11.716  10.361  70.678  1.00  0.00    -0.351 C  
HETATM    3  N   UNL     1     -11.545  10.709  69.260  1.00  0.00    -0.278 NA 
HETATM    4  C   UNL     1     -11.817  12.015  68.851  1.00  0.00    -0.299 C  
HETATM    5  C   UNL     1     -11.499  12.539  67.659  1.00  0.00    -0.392 C  
HETATM    6  C   UNL     1     -10.821  11.634  66.710  1.00  0.00    -0.277 C  
HETATM    7  C   UNL     1      -9.424   5.936  70.374  1.00  0.00    -0.192 C  
HETATM    8  C   UNL     1     -10.476  10.246  67.147  1.00  0.00    -0.254 C  
HETATM    9  C   UNL     1      -9.692   7.297  72.459  1.00  0.00    -0.189 C  
HETATM   10  O   UNL     1     -10.484  11.991  65.579  1.00  0.00    -0.251 OA 
HETATM   11  C   UNL     1      -9.530   7.361  70.942  1.00  0.00    -0.165 C  
HETATM   12  O   UNL     1      -9.659   7.765  68.182  1.00  0.00    -0.147 OA 
HETATM   13  C   UNL     1     -10.827   9.859  68.396  1.00  0.00    -0.221 C  
HETATM   14  O   UNL     1      -9.758   9.496  66.238  1.00  0.00    -0.205 OA 
HETATM   15  N   UNL     1     -10.487   8.252  70.266  1.00  0.00    -0.214 N  
HETATM   16  C   UNL     1     -10.304   8.520  68.904  1.00  0.00    -0.210 C  
HETATM   17  O   UNL     1     -11.551   8.756  72.378  1.00  0.00    -0.352 OA 
HETATM   18  H   UNL     1      -9.539   8.614  66.516  1.00  0.00     0.000 HD 
HETATM   19  C   UNL     1     -11.125   7.507  72.876  1.00  0.00    -0.375 C  
ENDROOT
BRANCH   5  20
HETATM   20  C   UNL     1     -11.808  13.970  67.386  1.00  0.00    -0.409 C  
HETATM   21  H   UNL     1     -10.776  14.519  69.085  1.00  0.00     0.000 HD 
HETATM   22  N   UNL     1     -11.273  14.871  68.267  1.00  0.00    -0.280 N  
HETATM   23  O   UNL     1     -12.508  14.303  66.420  1.00  0.00    -0.441 OA 
BRANCH  22  24
HETATM   24  C   UNL     1     -11.382  16.301  68.085  1.00  0.00    -0.248 C  
BRANCH  24  25
HETATM   25  C   UNL     1     -10.161  16.872  67.417  1.00  0.00    -0.298 A  
HETATM   26  C   UNL     1      -7.874  17.961  66.246  1.00  0.00    -0.261 A  
HETATM   27  F   UNL     1      -6.764  18.483  65.705  1.00  0.00    -0.242 F  
HETATM   28  C   UNL     1      -8.933  18.794  66.570  1.00  0.00    -0.320 A  
HETATM   29  C   UNL     1      -9.088  16.044  67.057  1.00  0.00    -0.234 A  
HETATM   30  C   UNL     1      -7.940  16.590  66.478  1.00  0.00    -0.345 A  
HETATM   31  C   UNL     1     -10.072  18.242  67.148  1.00  0.00    -0.356 A  
HETATM   32  F   UNL     1     -11.091  19.051  67.464  1.00  0.00    -0.508 F  
ENDBRANCH  24  25
ENDBRANCH  22  24
ENDBRANCH   5  20
TORSDOF 3
ENDMDL
MODEL       26
REMARK 921   NORMALIZED FREE ENERGY PREDICTED BY IDOCK:   -7.33 KCAL/MOL
REMARK 922        TOTAL FREE ENERGY PREDICTED BY IDOCK:   -8.94 KCAL/MOL
REMARK 923 INTER-LIGAND FREE ENERGY PREDICTED BY IDOCK:   -8.46 KCAL/MOL
REMARK 924 INTRA-LIGAND FREE ENERGY PREDICTED BY IDOCK:   -0.48 KCAL/MOL
REMARK 927      BINDING AFFINITY PREDICTED BY RF-SCORE:    0.00 PKD
ROOT
HETATM    1  C   UNL     1      -9.651   8.342  67.582  1.00  0.00    -0.153 C  
HETATM    2  C   UNL     1     -10.161   9.549  66.779  1.00  0.00    -0.245 C  
HETATM    3  N   UNL     1     -10.544  10.691  67.621  1.00  0.00    -0.227 NA 
HETATM    4  C   UNL     1     -10.825  11.913  67.007  1.00  0.00    -0.259 C  
HETATM    5  C   UNL     1     -11.397  12.969  67.602  1.00  0.00    -0.342 C  
HETATM    6  C   UNL     1     -11.734  12.807  69.030  1.00  0.00    -0.323 C  
HETATM    7  C   UNL     1     -10.583   6.123  70.386  1.00  0.00    -0.317 C  
HETATM    8  C   UNL     1     -11.488  11.490  69.693  1.00  0.00    -0.301 C  
HETATM    9  C   UNL     1     -10.725   5.673  67.926  1.00  0.00    -0.241 C  
HETATM   10  O   UNL     1     -12.256  13.706  69.694  1.00  0.00    -0.314 OA 
HETATM   11  C   UNL     1     -10.998   6.701  69.023  1.00  0.00    -0.279 C  
HETATM   12  O   UNL     1     -11.215   8.894  70.736  1.00  0.00    -0.256 OA 
HETATM   13  C   UNL     1     -10.934  10.495  68.960  1.00  0.00    -0.243 C  
HETATM   14  O   UNL     1     -11.919  11.388  71.000  1.00  0.00    -0.312 OA 
HETATM   15  N   UNL     1     -10.505   8.054  68.722  1.00  0.00    -0.200 N  
HETATM   16  C   UNL     1     -10.865   9.103  69.578  1.00  0.00    -0.180 C  
HETATM   17  O   UNL     1      -9.583   7.283  66.625  1.00  0.00    -0.175 OA 
HETATM   18  H   UNL     1     -11.762  10.552  71.420  1.00  0.00     0.000 HD 
HETATM   19  C   UNL     1      -9.460   5.988  67.170  1.00  0.00    -0.118 C  
ENDROOT
BRANCH   5  20
HETATM   20  C   UNL     1     -11.682  14.191  66.801  1.00  0.00    -0.410 C  
HETATM   21  H   UNL     1      -9.972  15.075  67.539  1.00  0.00     0.000 HD 
HETATM   22  N   UNL     1     -10.747  15.187  66.886  1.00  0.00    -0.303 N  
HETATM   23  O   UNL     1     -12.706  14.282  66.110  1.00  0.00    -0.401 OA 
BRANCH  22  24
HETATM   24  C   UNL     1     -10.813  16.391  66.088  1.00  0.00    -0.075 C  
BRANCH  24  25
HETATM   25  C   UNL     1      -9.889  17.457  66.610  1.00  0.00    -0.300 A  
HETATM   26  C   UNL     1      -8.229  19.458  67.625  1.00  0.00    -0.294 A  
HETATM   27  F   UNL     1      -7.446  20.420  68.134  1.00  0.00    -0.324 F  
HETATM   28  C   UNL     1      -9.236  19.798  66.734  1.00  0.00    -0.457 A  
HETATM   29  C   UNL     1      -8.848  17.132  67.492  1.00  0.00    -0.218 A  
HETATM   30  C   UNL     1      -8.022  18.135  68.007  1.00  0.00    -0.269 A  
HETATM   31  C   UNL     1     -10.055  18.793  66.229  1.00  0.00    -0.409 A  
HETATM   32  F   UNL     1     -11.029  19.125  65.372  1.00  0.00    -0.516 F  
ENDBRANCH  24  25
ENDBRANCH  22  24
ENDBRANCH   5  20
TORSDOF 3
ENDMDL
MODEL       27
REMARK 921   NORMALIZED FREE ENERGY PREDICTED BY IDOCK:   -7.28 KCAL/MOL
REMARK 922        TOTAL FREE ENERGY PREDICTED BY IDOCK:   -8.87 KCAL/MOL
REMARK 923 INTER-LIGAND FREE ENERGY PREDICTED BY IDOCK:   -8.40 KCAL/MOL
REMARK 924 INTRA-LIGAND FREE ENERGY PREDICTED BY IDOCK:   -0.47 KCAL/MOL
REMARK 927      BINDING AFFINITY PREDICTED BY RF-SCORE:    0.00 PKD
ROOT
HETATM    1  C   UNL     1      -8.531   6.536  72.143  1.00  0.00    -0.113 C  
HETATM    2  C   UNL     1      -8.826   7.772  71.278  1.00  0.00    -0.133 C  
HETATM    3  N   UNL     1     -10.182   8.307  71.465  1.00  0.00    -0.202 NA 
HETATM    4  C   UNL     1     -10.502   9.541  70.897  1.00  0.00    -0.312 C  
HETATM    5  C   UNL     1     -11.737  10.050  70.788  1.00  0.00    -0.437 C  
HETATM    6  C   UNL     1     -12.831   9.225  71.336  1.00  0.00    -0.328 C  
HETATM    7  C   UNL     1      -9.869   3.194  72.974  1.00  0.00    -0.184 C  
HETATM    8  C   UNL     1     -12.515   7.878  71.903  1.00  0.00    -0.321 C  
HETATM    9  C   UNL     1      -7.986   3.781  71.431  1.00  0.00    -0.064 C  
HETATM   10  O   UNL     1     -14.011   9.584  71.305  1.00  0.00    -0.240 OA 
HETATM   11  C   UNL     1      -9.408   4.142  71.855  1.00  0.00    -0.132 C  
HETATM   12  O   UNL     1     -11.817   5.274  72.696  1.00  0.00    -0.208 OA 
HETATM   13  C   UNL     1     -11.223   7.474  71.919  1.00  0.00    -0.248 C  
HETATM   14  O   UNL     1     -13.603   7.130  72.306  1.00  0.00    -0.511 OA 
HETATM   15  N   UNL     1      -9.622   5.577  72.101  1.00  0.00    -0.149 N  
HETATM   16  C   UNL     1     -10.929   6.031  72.315  1.00  0.00    -0.265 C  
HETATM   17  O   UNL     1      -7.295   6.033  71.632  1.00  0.00    -0.088 OA 
HETATM   18  H   UNL     1     -13.402   6.275  72.666  1.00  0.00     0.000 HD 
HETATM   19  C   UNL     1      -6.970   4.719  72.030  1.00  0.00    -0.060 C  
ENDROOT
BRANCH   5  20
HETATM   20  C   UNL     1     -11.927  11.361  70.108  1.00  0.00    -0.377 C  
HETATM   21  H   UNL     1     -11.281  10.535  68.332  1.00  0.00     0.000 HD 
HETATM   22  N   UNL     1     -11.663  11.376  68.764  1.00  0.00    -0.319 N  
HETATM   23  O   UNL     1     -12.299  12.362  70.735  1.00  0.00    -0.377 OA 
BRANCH  22  24
HETATM   24  C   UNL     1     -11.903  12.535  67.934  1.00  0.00    -0.323 C  
BRANCH  24  25
HETATM   25  C   UNL     1     -11.418  12.321  66.526  1.00  0.00    -0.438 A  
HETATM   26  C   UNL     1     -10.467  11.977  63.925  1.00  0.00    -0.402 A  
HETATM   27  F   UNL     1      -9.988  11.821  62.682  1.00  0.00    -0.322 F  
HETATM   28  C   UNL     1     -11.240  13.089  64.224  1.00  0.00    -0.411 A  
HETATM   29  C   UNL     1     -10.657  11.190  66.195  1.00  0.00    -0.305 A  
HETATM   30  C   UNL     1     -10.174  11.022  64.895  1.00  0.00    -0.373 A  
HETATM   31  C   UNL     1     -11.715  13.248  65.522  1.00  0.00    -0.346 A  
HETATM   32  F   UNL     1     -12.457  14.326  65.808  1.00  0.00    -0.416 F  
ENDBRANCH  24  25
ENDBRANCH  22  24
ENDBRANCH   5  20
TORSDOF 3
ENDMDL
MODEL       28
REMARK 921   NORMALIZED FREE ENERGY PREDICTED BY IDOCK:   -7.23 KCAL/MOL
REMARK 922        TOTAL FREE ENERGY PREDICTED BY IDOCK:   -8.82 KCAL/MOL
REMARK 923 INTER-LIGAND FREE ENERGY PREDICTED BY IDOCK:   -8.27 KCAL/MOL
REMARK 924 INTRA-LIGAND FREE ENERGY PREDICTED BY IDOCK:   -0.55 KCAL/MOL
REMARK 927      BINDING AFFINITY PREDICTED BY RF-SCORE:    0.00 PKD
ROOT
HETATM    1  C   UNL     1     -11.052   6.639  70.605  1.00  0.00    -0.298 C  
HETATM    2  C   UNL     1     -10.880   8.152  70.399  1.00  0.00    -0.236 C  
HETATM    3  N   UNL     1     -10.802   8.544  68.984  1.00  0.00    -0.078 NA 
HETATM    4  C   UNL     1     -10.855   9.900  68.659  1.00  0.00    -0.209 C  
HETATM    5  C   UNL     1     -10.574  10.423  67.457  1.00  0.00    -0.312 C  
HETATM    6  C   UNL     1     -10.195   9.463  66.402  1.00  0.00    -0.230 C  
HETATM    7  C   UNL     1      -9.552   3.397  69.662  1.00  0.00    -0.160 C  
HETATM    8  C   UNL     1     -10.084   8.011  66.743  1.00  0.00    -0.287 C  
HETATM    9  C   UNL     1      -9.315   4.658  71.812  1.00  0.00    -0.190 C  
HETATM   10  O   UNL     1      -9.921   9.815  65.252  1.00  0.00    -0.318 OA 
HETATM   11  C   UNL     1      -9.312   4.780  70.290  1.00  0.00    -0.151 C  
HETATM   12  O   UNL     1      -9.662   5.362  67.582  1.00  0.00    -0.122 OA 
HETATM   13  C   UNL     1     -10.365   7.625  68.010  1.00  0.00    -0.205 C  
HETATM   14  O   UNL     1      -9.632   7.192  65.729  1.00  0.00    -0.383 OA 
HETATM   15  N   UNL     1     -10.143   5.875  69.766  1.00  0.00    -0.182 N  
HETATM   16  C   UNL     1     -10.063   6.183  68.403  1.00  0.00    -0.158 C  
HETATM   17  O   UNL     1     -10.848   6.447  72.007  1.00  0.00    -0.224 OA 
HETATM   18  H   UNL     1      -9.562   6.270  65.945  1.00  0.00     0.000 HD 
HETATM   19  C   UNL     1     -10.624   5.113  72.405  1.00  0.00    -0.221 C  
ENDROOT
BRANCH   5  20
HETATM   20  C   UNL     1     -10.624  11.900  67.276  1.00  0.00    -0.228 C  
HETATM   21  H   UNL     1     -12.640  11.886  67.709  1.00  0.00     0.000 HD 
HETATM   22  N   UNL     1     -11.839  12.485  67.511  1.00  0.00    -0.367 N  
HETATM   23  O   UNL     1      -9.620  12.540  66.933  1.00  0.00    -0.216 OA 
BRANCH  22  24
HETATM   24  C   UNL     1     -12.033  13.918  67.489  1.00  0.00    -0.386 C  
BRANCH  24  25
HETATM   25  C   UNL     1     -11.877  14.522  68.857  1.00  0.00    -0.359 A  
HETATM   26  C   UNL     1     -11.647  15.687  71.383  1.00  0.00    -0.433 A  
HETATM   27  F   UNL     1     -11.561  16.253  72.595  1.00  0.00    -0.535 F  
HETATM   28  C   UNL     1     -11.218  16.392  70.269  1.00  0.00    -0.259 A  
HETATM   29  C   UNL     1     -12.280  13.817  70.001  1.00  0.00    -0.407 A  
HETATM   30  C   UNL     1     -12.172  14.403  71.265  1.00  0.00    -0.429 A  
HETATM   31  C   UNL     1     -11.331  15.800  69.014  1.00  0.00    -0.354 A  
HETATM   32  F   UNL     1     -10.921  16.486  67.940  1.00  0.00    -0.329 F  
ENDBRANCH  24  25
ENDBRANCH  22  24
ENDBRANCH   5  20
TORSDOF 3
ENDMDL
MODEL       29
REMARK 921   NORMALIZED FREE ENERGY PREDICTED BY IDOCK:   -7.21 KCAL/MOL
REMARK 922        TOTAL FREE ENERGY PREDICTED BY IDOCK:   -8.80 KCAL/MOL
REMARK 923 INTER-LIGAND FREE ENERGY PREDICTED BY IDOCK:   -8.21 KCAL/MOL
REMARK 924 INTRA-LIGAND FREE ENERGY PREDICTED BY IDOCK:   -0.58 KCAL/MOL
REMARK 927      BINDING AFFINITY PREDICTED BY RF-SCORE:    0.00 PKD
ROOT
HETATM    1  C   UNL     1      -8.938  16.559  66.229  1.00  0.00    -0.324 C  
HETATM    2  C   UNL     1      -8.494  15.113  66.501  1.00  0.00    -0.114 C  
HETATM    3  N   UNL     1      -9.555  14.274  67.075  1.00  0.00    -0.248 NA 
HETATM    4  C   UNL     1      -9.344  12.898  67.174  1.00  0.00    -0.229 C  
HETATM    5  C   UNL     1     -10.107  12.041  67.868  1.00  0.00    -0.199 C  
HETATM    6  C   UNL     1     -11.271  12.624  68.563  1.00  0.00    -0.279 C  
HETATM    7  C   UNL     1     -10.517  19.465  67.876  1.00  0.00    -0.536 C  
HETATM    8  C   UNL     1     -11.487  14.103  68.510  1.00  0.00    -0.300 C  
HETATM    9  C   UNL     1      -8.091  19.077  67.387  1.00  0.00    -0.287 C  
HETATM   10  O   UNL     1     -12.056  11.943  69.227  1.00  0.00    -0.282 OA 
HETATM   11  C   UNL     1      -9.372  18.439  67.920  1.00  0.00    -0.280 C  
HETATM   12  O   UNL     1     -11.623  16.910  68.545  1.00  0.00    -0.017 OA 
HETATM   13  C   UNL     1     -10.615  14.855  67.798  1.00  0.00    -0.262 C  
HETATM   14  O   UNL     1     -12.540  14.580  69.264  1.00  0.00    -0.566 OA 
HETATM   15  N   UNL     1      -9.675  17.116  67.351  1.00  0.00    -0.249 N  
HETATM   16  C   UNL     1     -10.722  16.372  67.907  1.00  0.00    -0.332 C  
HETATM   17  O   UNL     1      -7.724  17.252  65.929  1.00  0.00    -0.480 OA 
HETATM   18  H   UNL     1     -12.677  15.519  69.230  1.00  0.00     0.000 HD 
HETATM   19  C   UNL     1      -7.811  18.659  65.966  1.00  0.00    -0.156 C  
ENDROOT
BRANCH   5  20
HETATM   20  C   UNL     1      -9.723  10.604  67.923  1.00  0.00    -0.161 C  
HETATM   21  H   UNL     1      -8.971  10.876  69.824  1.00  0.00     0.000 HD 
HETATM   22  N   UNL     1      -9.165  10.184  69.100  1.00  0.00    -0.186 N  
HETATM   23  O   UNL     1      -9.905   9.853  66.955  1.00  0.00    -0.180 OA 
BRANCH  22  24
HETATM   24  C   UNL     1      -8.840   8.799  69.360  1.00  0.00    -0.143 C  
BRANCH  24  25
HETATM   25  C   UNL     1      -9.935   8.104  70.120  1.00  0.00    -0.187 A  
HETATM   26  C   UNL     1     -12.010   6.875  71.526  1.00  0.00    -0.344 A  
HETATM   27  F   UNL     1     -13.023   6.301  72.190  1.00  0.00    -0.350 F  
HETATM   28  C   UNL     1     -11.220   7.816  72.167  1.00  0.00    -0.348 A  
HETATM   29  C   UNL     1     -10.730   7.129  69.500  1.00  0.00    -0.255 A  
HETATM   30  C   UNL     1     -11.774   6.520  70.201  1.00  0.00    -0.419 A  
HETATM   31  C   UNL     1     -10.184   8.419  71.460  1.00  0.00    -0.228 A  
HETATM   32  F   UNL     1      -9.426   9.332  72.082  1.00  0.00    -0.273 F  
ENDBRANCH  24  25
ENDBRANCH  22  24
ENDBRANCH   5  20
TORSDOF 3
ENDMDL
MODEL       30
REMARK 921   NORMALIZED FREE ENERGY PREDICTED BY IDOCK:   -7.19 KCAL/MOL
REMARK 922        TOTAL FREE ENERGY PREDICTED BY IDOCK:   -8.78 KCAL/MOL
REMARK 923 INTER-LIGAND FREE ENERGY PREDICTED BY IDOCK:   -8.62 KCAL/MOL
REMARK 924 INTRA-LIGAND FREE ENERGY PREDICTED BY IDOCK:   -0.16 KCAL/MOL
REMARK 927      BINDING AFFINITY PREDICTED BY RF-SCORE:    0.00 PKD
ROOT
HETATM    1  C   UNL     1     -10.622   6.844  72.456  1.00  0.00    -0.222 C  
HETATM    2  C   UNL     1     -10.473   8.344  72.161  1.00  0.00    -0.326 C  
HETATM    3  N   UNL     1     -10.727   8.692  70.755  1.00  0.00    -0.208 NA 
HETATM    4  C   UNL     1     -10.827  10.039  70.404  1.00  0.00    -0.318 C  
HETATM    5  C   UNL     1     -10.830  10.518  69.152  1.00  0.00    -0.277 C  
HETATM    6  C   UNL     1     -10.736   9.516  68.072  1.00  0.00    -0.212 C  
HETATM    7  C   UNL     1      -9.461   3.532  71.298  1.00  0.00    -0.229 C  
HETATM    8  C   UNL     1     -10.578   8.073  68.428  1.00  0.00    -0.102 C  
HETATM    9  C   UNL     1      -8.690   4.849  73.284  1.00  0.00    -0.104 C  
HETATM   10  O   UNL     1     -10.738   9.826  66.878  1.00  0.00    -0.205 OA 
HETATM   11  C   UNL     1      -9.048   4.926  71.801  1.00  0.00    -0.139 C  
HETATM   12  O   UNL     1     -10.024   5.438  69.236  1.00  0.00    -0.171 OA 
HETATM   13  C   UNL     1     -10.555   7.733  69.739  1.00  0.00    -0.241 C  
HETATM   14  O   UNL     1     -10.399   7.211  67.365  1.00  0.00    -0.200 OA 
HETATM   15  N   UNL     1      -9.957   6.029  71.452  1.00  0.00    -0.183 N  
HETATM   16  C   UNL     1     -10.199   6.294  70.099  1.00  0.00    -0.189 C  
HETATM   17  O   UNL     1     -10.093   6.688  73.775  1.00  0.00    -0.235 OA 
HETATM   18  H   UNL     1     -10.299   6.294  67.591  1.00  0.00     0.000 HD 
HETATM   19  C   UNL     1      -9.809   5.360  74.155  1.00  0.00    -0.192 C  
ENDROOT
BRANCH   5  20
HETATM   20  C   UNL     1     -10.891  11.989  68.935  1.00  0.00    -0.211 C  
HETATM   21  H   UNL     1     -12.795  12.029  69.725  1.00  0.00     0.000 HD 
HETATM   22  N   UNL     1     -12.035  12.606  69.366  1.00  0.00    -0.289 N  
HETATM   23  O   UNL     1      -9.957  12.598  68.396  1.00  0.00    -0.226 OA 
BRANCH  22  24
HETATM   24  C   UNL     1     -12.209  14.041  69.334  1.00  0.00    -0.292 C  
BRANCH  24  25
HETATM   25  C   UNL     1     -12.316  14.620  70.718  1.00  0.00    -0.398 A  
HETATM   26  C   UNL     1     -12.462  15.647  73.309  1.00  0.00    -0.498 A  
HETATM   27  F   UNL     1     -12.508  16.132  74.558  1.00  0.00    -0.593 F  
HETATM   28  C   UNL     1     -13.037  14.416  73.033  1.00  0.00    -0.581 A  
HETATM   29  C   UNL     1     -11.764  15.875  71.014  1.00  0.00    -0.473 A  
HETATM   30  C   UNL     1     -11.830  16.385  72.313  1.00  0.00    -0.531 A  
HETATM   31  C   UNL     1     -12.965  13.915  71.737  1.00  0.00    -0.358 A  
HETATM   32  F   UNL     1     -13.517  12.723  71.475  1.00  0.00    -0.416 F  
ENDBRANCH  24  25
ENDBRANCH  22  24
ENDBRANCH   5  20
TORSDOF 3
ENDMDL
MODEL       31
REMARK 921   NORMALIZED FREE ENERGY PREDICTED BY IDOCK:   -7.18 KCAL/MOL
REMARK 922        TOTAL FREE ENERGY PREDICTED BY IDOCK:   -8.77 KCAL/MOL
REMARK 923 INTER-LIGAND FREE ENERGY PREDICTED BY IDOCK:   -8.33 KCAL/MOL
REMARK 924 INTRA-LIGAND FREE ENERGY PREDICTED BY IDOCK:   -0.43 KCAL/MOL
REMARK 927      BINDING AFFINITY PREDICTED BY RF-SCORE:    0.00 PKD
ROOT
HETATM    1  C   UNL     1     -11.894  13.353  69.250  1.00  0.00    -0.334 C  
HETATM    2  C   UNL     1     -11.073  12.069  69.055  1.00  0.00    -0.239 C  
HETATM    3  N   UNL     1     -11.658  10.895  69.719  1.00  0.00    -0.292 NA 
HETATM    4  C   UNL     1     -11.124   9.635  69.447  1.00  0.00    -0.139 C  
HETATM    5  C   UNL     1     -11.392   8.513  70.130  1.00  0.00    -0.072 C  
HETATM    6  C   UNL     1     -12.347   8.644  71.248  1.00  0.00    -0.263 C  
HETATM    7  C   UNL     1     -13.418  15.447  71.886  1.00  0.00    -0.571 C  
HETATM    8  C   UNL     1     -12.891   9.995  71.587  1.00  0.00    -0.440 C  
HETATM    9  C   UNL     1     -11.286  15.829  70.628  1.00  0.00    -0.412 C  
HETATM   10  O   UNL     1     -12.682   7.686  71.949  1.00  0.00    -0.312 OA 
HETATM   11  C   UNL     1     -12.130  14.790  71.363  1.00  0.00    -0.344 C  
HETATM   12  O   UNL     1     -13.629  12.618  72.275  1.00  0.00    -0.547 OA 
HETATM   13  C   UNL     1     -12.507  11.051  70.832  1.00  0.00    -0.410 C  
HETATM   14  O   UNL     1     -13.700  10.050  72.704  1.00  0.00    -0.628 OA 
HETATM   15  N   UNL     1     -12.306  13.525  70.634  1.00  0.00    -0.360 N  
HETATM   16  C   UNL     1     -12.906  12.447  71.297  1.00  0.00    -0.240 C  
HETATM   17  O   UNL     1     -11.044  14.395  68.765  1.00  0.00    -0.236 OA 
HETATM   18  H   UNL     1     -14.045  10.908  72.919  1.00  0.00     0.000 HD 
HETATM   19  C   UNL     1     -11.424  15.702  69.133  1.00  0.00    -0.359 C  
ENDROOT
BRANCH   5  20
HETATM   20  C   UNL     1     -10.703   7.248  69.753  1.00  0.00    -0.239 C  
HETATM   21  H   UNL     1      -8.970   8.302  69.380  1.00  0.00     0.000 HD 
HETATM   22  N   UNL     1      -9.378   7.369  69.427  1.00  0.00    -0.155 N  
HETATM   23  O   UNL     1     -11.306   6.167  69.740  1.00  0.00    -0.411 OA 
BRANCH  22  24
HETATM   24  C   UNL     1      -8.536   6.228  69.146  1.00  0.00    -0.120 C  
BRANCH  24  25
HETATM   25  C   UNL     1      -8.680   5.767  67.722  1.00  0.00    -0.107 A  
HETATM   26  C   UNL     1      -9.020   4.928  65.082  1.00  0.00    -0.152 A  
HETATM   27  F   UNL     1      -9.204   4.540  63.812  1.00  0.00    -0.145 F  
HETATM   28  C   UNL     1      -9.464   4.117  66.115  1.00  0.00    -0.187 A  
HETATM   29  C   UNL     1      -8.215   6.560  66.662  1.00  0.00    -0.112 A  
HETATM   30  C   UNL     1      -8.393   6.144  65.340  1.00  0.00    -0.150 A  
HETATM   31  C   UNL     1      -9.285   4.540  67.428  1.00  0.00    -0.137 A  
HETATM   32  F   UNL     1      -9.719   3.756  68.422  1.00  0.00    -0.220 F  
ENDBRANCH  24  25
ENDBRANCH  22  24
ENDBRANCH   5  20
TORSDOF 3
ENDMDL
MODEL       32
REMARK 921   NORMALIZED FREE ENERGY PREDICTED BY IDOCK:   -7.17 KCAL/MOL
REMARK 922        TOTAL FREE ENERGY PREDICTED BY IDOCK:   -8.74 KCAL/MOL
REMARK 923 INTER-LIGAND FREE ENERGY PREDICTED BY IDOCK:   -8.36 KCAL/MOL
REMARK 924 INTRA-LIGAND FREE ENERGY PREDICTED BY IDOCK:   -0.38 KCAL/MOL
REMARK 927      BINDING AFFINITY PREDICTED BY RF-SCORE:    0.00 PKD
ROOT
HETATM    1  C   UNL     1     -12.040  12.955  70.378  1.00  0.00    -0.306 C  
HETATM    2  C   UNL     1     -12.108  12.392  68.950  1.00  0.00    -0.123 C  
HETATM    3  N   UNL     1     -11.475  13.261  67.948  1.00  0.00    -0.287 NA 
HETATM    4  C   UNL     1     -11.287  12.770  66.656  1.00  0.00    -0.316 C  
HETATM    5  C   UNL     1     -10.938  13.503  65.588  1.00  0.00    -0.296 C  
HETATM    6  C   UNL     1     -10.723  14.943  65.830  1.00  0.00    -0.323 C  
HETATM    7  C   UNL     1     -12.818  15.989  72.338  1.00  0.00    -0.470 C  
HETATM    8  C   UNL     1     -10.968  15.497  67.197  1.00  0.00    -0.295 C  
HETATM    9  C   UNL     1     -14.117  13.853  72.188  1.00  0.00    -0.630 C  
HETATM   10  O   UNL     1     -10.391  15.723  64.934  1.00  0.00    -0.487 OA 
HETATM   11  C   UNL     1     -13.361  14.910  71.386  1.00  0.00    -0.413 C  
HETATM   12  O   UNL     1     -11.713  16.445  69.736  1.00  0.00    -0.143 OA 
HETATM   13  C   UNL     1     -11.352  14.645  68.177  1.00  0.00    -0.302 C  
HETATM   14  O   UNL     1     -10.840  16.866  67.318  1.00  0.00    -0.257 OA 
HETATM   15  N   UNL     1     -12.396  14.363  70.420  1.00  0.00    -0.323 N  
HETATM   16  C   UNL     1     -11.788  15.240  69.512  1.00  0.00    -0.345 C  
HETATM   17  O   UNL     1     -12.914  12.112  71.133  1.00  0.00    -0.277 OA 
HETATM   18  H   UNL     1     -10.995  17.218  68.187  1.00  0.00     0.000 HD 
HETATM   19  C   UNL     1     -13.287  12.613  72.398  1.00  0.00    -0.319 C  
ENDROOT
BRANCH   5  20
HETATM   20  C   UNL     1     -10.826  12.844  64.258  1.00  0.00    -0.397 C  
HETATM   21  H   UNL     1      -9.037  11.992  64.828  1.00  0.00     0.000 HD 
HETATM   22  N   UNL     1      -9.736  12.034  64.087  1.00  0.00    -0.154 N  
HETATM   23  O   UNL     1     -11.674  13.032  63.375  1.00  0.00    -0.504 OA 
BRANCH  22  24
HETATM   24  C   UNL     1      -9.536  11.234  62.899  1.00  0.00    -0.352 C  
BRANCH  24  25
HETATM   25  C   UNL     1      -8.541  10.130  63.132  1.00  0.00    -0.193 A  
HETATM   26  C   UNL     1      -6.743   8.034  63.531  1.00  0.00    -0.075 A  
HETATM   27  F   UNL     1      -5.889   7.014  63.704  1.00  0.00    -0.033 F  
HETATM   28  C   UNL     1      -7.867   8.127  64.338  1.00  0.00    -0.136 A  
HETATM   29  C   UNL     1      -7.384  10.031  62.345  1.00  0.00    -0.135 A  
HETATM   30  C   UNL     1      -6.488   8.977  62.540  1.00  0.00    -0.094 A  
HETATM   31  C   UNL     1      -8.754   9.179  64.135  1.00  0.00    -0.141 A  
HETATM   32  F   UNL     1      -9.841   9.263  64.913  1.00  0.00    -0.241 F  
ENDBRANCH  24  25
ENDBRANCH  22  24
ENDBRANCH   5  20
TORSDOF 3
ENDMDL
MODEL       33
REMARK 921   NORMALIZED FREE ENERGY PREDICTED BY IDOCK:   -7.15 KCAL/MOL
REMARK 922        TOTAL FREE ENERGY PREDICTED BY IDOCK:   -8.72 KCAL/MOL
REMARK 923 INTER-LIGAND FREE ENERGY PREDICTED BY IDOCK:   -8.54 KCAL/MOL
REMARK 924 INTRA-LIGAND FREE ENERGY PREDICTED BY IDOCK:   -0.18 KCAL/MOL
REMARK 927      BINDING AFFINITY PREDICTED BY RF-SCORE:    0.00 PKD
ROOT
HETATM    1  C   UNL     1      -8.720   7.359  69.140  1.00  0.00    -0.136 C  
HETATM    2  C   UNL     1      -9.418   8.728  69.152  1.00  0.00    -0.157 C  
HETATM    3  N   UNL     1     -10.460   8.844  70.182  1.00  0.00    -0.207 NA 
HETATM    4  C   UNL     1     -11.021  10.097  70.433  1.00  0.00    -0.319 C  
HETATM    5  C   UNL     1     -12.120  10.325  71.166  1.00  0.00    -0.494 C  
HETATM    6  C   UNL     1     -12.762   9.137  71.762  1.00  0.00    -0.373 C  
HETATM    7  C   UNL     1      -9.441   3.739  68.992  1.00  0.00    -0.233 C  
HETATM    8  C   UNL     1     -12.205   7.781  71.464  1.00  0.00    -0.318 C  
HETATM    9  C   UNL     1      -8.664   5.251  67.153  1.00  0.00    -0.107 C  
HETATM   10  O   UNL     1     -13.773   9.212  72.464  1.00  0.00    -0.474 OA 
HETATM   11  C   UNL     1      -9.638   5.108  68.320  1.00  0.00    -0.135 C  
HETATM   12  O   UNL     1     -11.218   5.290  70.615  1.00  0.00     0.057 OA 
HETATM   13  C   UNL     1     -11.108   7.695  70.677  1.00  0.00    -0.257 C  
HETATM   14  O   UNL     1     -12.918   6.717  71.979  1.00  0.00    -0.522 OA 
HETATM   15  N   UNL     1      -9.674   6.267  69.226  1.00  0.00    -0.136 N  
HETATM   16  C   UNL     1     -10.662   6.311  70.218  1.00  0.00    -0.280 C  
HETATM   17  O   UNL     1      -7.951   7.365  67.935  1.00  0.00    -0.115 OA 
HETATM   18  H   UNL     1     -12.565   5.856  71.790  1.00  0.00     0.000 HD 
HETATM   19  C   UNL     1      -7.477   6.103  67.519  1.00  0.00    -0.082 C  
ENDROOT
BRANCH   5  20
HETATM   20  C   UNL     1     -12.630  11.717  71.301  1.00  0.00    -0.320 C  
HETATM   21  H   UNL     1     -11.283  12.350  69.874  1.00  0.00     0.000 HD 
HETATM   22  N   UNL     1     -12.060  12.640  70.466  1.00  0.00    -0.344 N  
HETATM   23  O   UNL     1     -13.512  12.001  72.123  1.00  0.00    -0.476 OA 
BRANCH  22  24
HETATM   24  C   UNL     1     -12.517  14.010  70.390  1.00  0.00    -0.350 C  
BRANCH  24  25
HETATM   25  C   UNL     1     -11.904  14.737  69.224  1.00  0.00    -0.352 A  
HETATM   26  C   UNL     1     -10.699  16.068  67.088  1.00  0.00    -0.283 A  
HETATM   27  F   UNL     1     -10.099  16.694  66.065  1.00  0.00    -0.291 F  
HETATM   28  C   UNL     1     -10.723  16.670  68.336  1.00  0.00    -0.353 A  
HETATM   29  C   UNL     1     -11.891  14.158  67.946  1.00  0.00    -0.405 A  
HETATM   30  C   UNL     1     -11.280  14.821  66.879  1.00  0.00    -0.347 A  
HETATM   31  C   UNL     1     -11.332  16.002  69.394  1.00  0.00    -0.355 A  
HETATM   32  F   UNL     1     -11.349  16.584  70.600  1.00  0.00    -0.383 F  
ENDBRANCH  24  25
ENDBRANCH  22  24
ENDBRANCH   5  20
TORSDOF 3
ENDMDL
MODEL       34
REMARK 921   NORMALIZED FREE ENERGY PREDICTED BY IDOCK:   -7.14 KCAL/MOL
REMARK 922        TOTAL FREE ENERGY PREDICTED BY IDOCK:   -8.71 KCAL/MOL
REMARK 923 INTER-LIGAND FREE ENERGY PREDICTED BY IDOCK:   -8.24 KCAL/MOL
REMARK 924 INTRA-LIGAND FREE ENERGY PREDICTED BY IDOCK:   -0.47 KCAL/MOL
REMARK 927      BINDING AFFINITY PREDICTED BY RF-SCORE:    0.00 PKD
ROOT
HETATM    1  C   UNL     1      -8.969   9.290  65.855  1.00  0.00    -0.184 C  
HETATM    2  C   UNL     1      -9.023  10.575  66.695  1.00  0.00    -0.141 C  
HETATM    3  N   UNL     1      -9.980  11.567  66.185  1.00  0.00    -0.216 NA 
HETATM    4  C   UNL     1     -10.273  12.683  66.970  1.00  0.00    -0.226 C  
HETATM    5  C   UNL     1     -10.939  13.771  66.558  1.00  0.00    -0.299 C  
HETATM    6  C   UNL     1     -11.406  13.756  65.158  1.00  0.00    -0.311 C  
HETATM    7  C   UNL     1      -8.526   8.114  62.380  1.00  0.00    -0.099 C  
HETATM    8  C   UNL     1     -11.059  12.592  64.286  1.00  0.00    -0.356 C  
HETATM    9  C   UNL     1      -6.854   8.137  64.244  1.00  0.00    -0.066 C  
HETATM   10  O   UNL     1     -12.037  14.691  64.660  1.00  0.00    -0.439 OA 
HETATM   11  C   UNL     1      -7.936   8.945  63.532  1.00  0.00    -0.158 C  
HETATM   12  O   UNL     1     -10.117  10.474  62.696  1.00  0.00    -0.106 OA 
HETATM   13  C   UNL     1     -10.348  11.573  64.826  1.00  0.00    -0.289 C  
HETATM   14  O   UNL     1     -11.447  12.697  62.966  1.00  0.00    -0.763 OA 
HETATM   15  N   UNL     1      -8.913   9.578  64.432  1.00  0.00    -0.228 N  
HETATM   16  C   UNL     1      -9.831  10.486  63.890  1.00  0.00    -0.310 C  
HETATM   17  O   UNL     1      -7.826   8.590  66.352  1.00  0.00    -0.096 OA 
HETATM   18  H   UNL     1     -11.227  11.958  62.413  1.00  0.00     0.000 HD 
HETATM   19  C   UNL     1      -7.361   7.540  65.532  1.00  0.00    -0.071 C  
ENDROOT
BRANCH   5  20
HETATM   20  C   UNL     1     -11.130  14.909  67.499  1.00  0.00    -0.317 C  
HETATM   21  H   UNL     1      -9.626  15.950  66.547  1.00  0.00     0.000 HD 
HETATM   22  N   UNL     1     -10.339  16.004  67.274  1.00  0.00    -0.290 N  
HETATM   23  O   UNL     1     -11.954  14.848  68.421  1.00  0.00    -0.299 OA 
BRANCH  22  24
HETATM   24  C   UNL     1     -10.475  17.233  68.023  1.00  0.00    -0.375 C  
BRANCH  24  25
HETATM   25  C   UNL     1      -9.478  18.268  67.581  1.00  0.00    -0.275 A  
HETATM   26  C   UNL     1      -7.598  20.188  66.829  1.00  0.00    -0.290 A  
HETATM   27  F   UNL     1      -6.680  21.103  66.486  1.00  0.00    -0.327 F  
HETATM   28  C   UNL     1      -8.678  20.566  67.611  1.00  0.00    -0.267 A  
HETATM   29  C   UNL     1      -8.391  17.914  66.767  1.00  0.00    -0.273 A  
HETATM   30  C   UNL     1      -7.446  18.873  66.398  1.00  0.00    -0.274 A  
HETATM   31  C   UNL     1      -9.614  19.603  67.976  1.00  0.00    -0.369 A  
HETATM   32  F   UNL     1     -10.653  19.970  68.737  1.00  0.00    -0.530 F  
ENDBRANCH  24  25
ENDBRANCH  22  24
ENDBRANCH   5  20
TORSDOF 3
ENDMDL
MODEL       35
REMARK 921   NORMALIZED FREE ENERGY PREDICTED BY IDOCK:   -7.07 KCAL/MOL
REMARK 922        TOTAL FREE ENERGY PREDICTED BY IDOCK:   -8.63 KCAL/MOL
REMARK 923 INTER-LIGAND FREE ENERGY PREDICTED BY IDOCK:   -8.17 KCAL/MOL
REMARK 924 INTRA-LIGAND FREE ENERGY PREDICTED BY IDOCK:   -0.46 KCAL/MOL
REMARK 927      BINDING AFFINITY PREDICTED BY RF-SCORE:    0.00 PKD
ROOT
HETATM    1  C   UNL     1     -10.094  17.628  67.937  1.00  0.00    -0.345 C  
HETATM    2  C   UNL     1     -10.603  16.198  67.696  1.00  0.00    -0.315 C  
HETATM    3  N   UNL     1      -9.568  15.171  67.883  1.00  0.00    -0.202 NA 
HETATM    4  C   UNL     1      -9.950  13.829  67.898  1.00  0.00    -0.240 C  
HETATM    5  C   UNL     1      -9.116  12.782  67.833  1.00  0.00    -0.204 C  
HETATM    6  C   UNL     1      -7.676  13.101  67.758  1.00  0.00    -0.153 C  
HETATM    7  C   UNL     1      -7.415  19.962  66.920  1.00  0.00    -0.280 C  
HETATM    8  C   UNL     1      -7.250  14.533  67.690  1.00  0.00    -0.187 C  
HETATM    9  C   UNL     1      -9.796  19.886  66.145  1.00  0.00    -0.562 C  
HETATM   10  O   UNL     1      -6.806  12.229  67.702  1.00  0.00    -0.097 OA 
HETATM   11  C   UNL     1      -8.557  19.046  66.449  1.00  0.00    -0.315 C  
HETATM   12  O   UNL     1      -6.608  17.242  67.308  1.00  0.00    -0.141 OA 
HETATM   13  C   UNL     1      -8.206  15.491  67.730  1.00  0.00    -0.147 C  
HETATM   14  O   UNL     1      -5.896  14.745  67.524  1.00  0.00    -0.332 OA 
HETATM   15  N   UNL     1      -8.816  17.863  67.284  1.00  0.00    -0.240 N  
HETATM   16  C   UNL     1      -7.785  16.933  67.466  1.00  0.00    -0.169 C  
HETATM   17  O   UNL     1     -11.151  18.465  67.462  1.00  0.00    -0.256 OA 
HETATM   18  H   UNL     1      -5.626  15.655  67.481  1.00  0.00     0.000 HD 
HETATM   19  C   UNL     1     -10.804  19.818  67.263  1.00  0.00    -0.342 C  
ENDROOT
BRANCH   5  20
HETATM   20  C   UNL     1      -9.677  11.403  67.806  1.00  0.00    -0.175 C  
HETATM   21  H   UNL     1      -8.828  11.020  69.646  1.00  0.00     0.000 HD 
HETATM   22  N   UNL     1      -9.433  10.642  68.917  1.00  0.00    -0.186 N  
HETATM   23  O   UNL     1     -10.318  10.990  66.830  1.00  0.00    -0.220 OA 
BRANCH  22  24
HETATM   24  C   UNL     1     -10.000   9.324  69.100  1.00  0.00    -0.179 C  
BRANCH  24  25
HETATM   25  C   UNL     1     -11.124   9.335  70.099  1.00  0.00    -0.260 A  
HETATM   26  C   UNL     1     -13.161   9.341  72.008  1.00  0.00    -0.436 A  
HETATM   27  F   UNL     1     -14.122   9.349  72.942  1.00  0.00    -0.387 F  
HETATM   28  C   UNL     1     -12.627   8.132  71.587  1.00  0.00    -0.347 A  
HETATM   29  C   UNL     1     -11.696  10.545  70.520  1.00  0.00    -0.443 A  
HETATM   30  C   UNL     1     -12.710  10.548  71.481  1.00  0.00    -0.558 A  
HETATM   31  C   UNL     1     -11.617   8.139  70.631  1.00  0.00    -0.194 A  
HETATM   32  F   UNL     1     -11.101   6.969  70.231  1.00  0.00    -0.259 F  
ENDBRANCH  24  25
ENDBRANCH  22  24
ENDBRANCH   5  20
TORSDOF 3
ENDMDL
MODEL       36
REMARK 921   NORMALIZED FREE ENERGY PREDICTED BY IDOCK:   -7.04 KCAL/MOL
REMARK 922        TOTAL FREE ENERGY PREDICTED BY IDOCK:   -8.60 KCAL/MOL
REMARK 923 INTER-LIGAND FREE ENERGY PREDICTED BY IDOCK:   -8.43 KCAL/MOL
REMARK 924 INTRA-LIGAND FREE ENERGY PREDICTED BY IDOCK:   -0.17 KCAL/MOL
REMARK 927      BINDING AFFINITY PREDICTED BY RF-SCORE:    0.00 PKD
ROOT
HETATM    1  C   UNL     1      -9.648   8.701  69.059  1.00  0.00    -0.163 C  
HETATM    2  C   UNL     1     -10.087  10.115  68.649  1.00  0.00    -0.172 C  
HETATM    3  N   UNL     1     -10.877  10.804  69.680  1.00  0.00    -0.250 NA 
HETATM    4  C   UNL     1     -11.157  12.161  69.517  1.00  0.00    -0.050 C  
HETATM    5  C   UNL     1     -12.039  12.866  70.239  1.00  0.00    -0.377 C  
HETATM    6  C   UNL     1     -12.748  12.126  71.302  1.00  0.00    -0.261 C  
HETATM    7  C   UNL     1     -10.991   5.506  70.340  1.00  0.00    -0.199 C  
HETATM    8  C   UNL     1     -12.498  10.660  71.461  1.00  0.00    -0.366 C  
HETATM    9  C   UNL     1     -10.337   6.094  67.995  1.00  0.00    -0.245 C  
HETATM   10  O   UNL     1     -13.577  12.661  72.042  1.00  0.00    -0.456 OA 
HETATM   11  C   UNL     1     -11.077   6.577  69.240  1.00  0.00    -0.334 C  
HETATM   12  O   UNL     1     -12.132   7.874  71.477  1.00  0.00    -0.289 OA 
HETATM   13  C   UNL     1     -11.604  10.067  70.636  1.00  0.00    -0.340 C  
HETATM   14  O   UNL     1     -13.270  10.023  72.411  1.00  0.00    -0.549 OA 
HETATM   15  N   UNL     1     -10.741   7.949  69.654  1.00  0.00    -0.240 N  
HETATM   16  C   UNL     1     -11.497   8.546  70.669  1.00  0.00    -0.228 C  
HETATM   17  O   UNL     1      -9.136   8.126  67.854  1.00  0.00    -0.133 OA 
HETATM   18  H   UNL     1     -13.111   9.092  72.512  1.00  0.00     0.000 HD 
HETATM   19  C   UNL     1      -8.973   6.725  67.878  1.00  0.00    -0.113 C  
ENDROOT
BRANCH   5  20
HETATM   20  C   UNL     1     -12.269  14.300  69.912  1.00  0.00    -0.352 C  
HETATM   21  H   UNL     1     -10.811  14.203  68.457  1.00  0.00     0.000 HD 
HETATM   22  N   UNL     1     -11.523  14.799  68.879  1.00  0.00    -0.282 N  
HETATM   23  O   UNL     1     -13.086  14.981  70.547  1.00  0.00    -0.336 OA 
BRANCH  22  24
HETATM   24  C   UNL     1     -11.702  16.137  68.360  1.00  0.00    -0.126 C  
BRANCH  24  25
HETATM   25  C   UNL     1     -10.492  16.607  67.603  1.00  0.00    -0.320 A  
HETATM   26  C   UNL     1      -8.217  17.509  66.260  1.00  0.00    -0.240 A  
HETATM   27  F   UNL     1      -7.111  17.942  65.637  1.00  0.00    -0.321 F  
HETATM   28  C   UNL     1      -9.196  18.420  66.624  1.00  0.00    -0.305 A  
HETATM   29  C   UNL     1      -9.500  15.700  67.201  1.00  0.00    -0.226 A  
HETATM   30  C   UNL     1      -8.358  16.152  66.536  1.00  0.00    -0.352 A  
HETATM   31  C   UNL     1     -10.329  17.961  67.288  1.00  0.00    -0.369 A  
HETATM   32  F   UNL     1     -11.271  18.845  67.643  1.00  0.00    -0.432 F  
ENDBRANCH  24  25
ENDBRANCH  22  24
ENDBRANCH   5  20
TORSDOF 3
ENDMDL
MODEL       37
REMARK 921   NORMALIZED FREE ENERGY PREDICTED BY IDOCK:   -7.03 KCAL/MOL
REMARK 922        TOTAL FREE ENERGY PREDICTED BY IDOCK:   -8.59 KCAL/MOL
REMARK 923 INTER-LIGAND FREE ENERGY PREDICTED BY IDOCK:   -8.05 KCAL/MOL
REMARK 924 INTRA-LIGAND FREE ENERGY PREDICTED BY IDOCK:   -0.54 KCAL/MOL
REMARK 927      BINDING AFFINITY PREDICTED BY RF-SCORE:    0.00 PKD
ROOT
HETATM    1  C   UNL     1      -8.850   6.615  70.324  1.00  0.00    -0.152 C  
HETATM    2  C   UNL     1      -9.350   7.772  69.444  1.00  0.00    -0.152 C  
HETATM    3  N   UNL     1     -10.250   8.695  70.149  1.00  0.00    -0.188 NA 
HETATM    4  C   UNL     1     -10.605   9.893  69.527  1.00  0.00    -0.242 C  
HETATM    5  C   UNL     1     -11.578  10.722  69.932  1.00  0.00    -0.410 C  
HETATM    6  C   UNL     1     -12.308  10.321  71.151  1.00  0.00    -0.395 C  
HETATM    7  C   UNL     1     -10.071   3.926  72.545  1.00  0.00    -0.232 C  
HETATM    8  C   UNL     1     -11.977   9.017  71.803  1.00  0.00    -0.368 C  
HETATM    9  C   UNL     1      -9.297   3.756  70.169  1.00  0.00    -0.244 C  
HETATM   10  O   UNL     1     -13.218  11.000  71.632  1.00  0.00    -0.414 OA 
HETATM   11  C   UNL     1     -10.150   4.561  71.147  1.00  0.00    -0.147 C  
HETATM   12  O   UNL     1     -11.435   6.434  72.770  1.00  0.00    -0.229 OA 
HETATM   13  C   UNL     1     -10.992   8.260  71.264  1.00  0.00    -0.243 C  
HETATM   14  O   UNL     1     -12.769   8.669  72.879  1.00  0.00    -0.611 OA 
HETATM   15  N   UNL     1      -9.930   6.015  71.089  1.00  0.00    -0.182 N  
HETATM   16  C   UNL     1     -10.791   6.851  71.811  1.00  0.00    -0.225 C  
HETATM   17  O   UNL     1      -8.221   5.718  69.405  1.00  0.00    -0.105 OA 
HETATM   18  H   UNL     1     -12.558   7.840  73.293  1.00  0.00     0.000 HD 
HETATM   19  C   UNL     1      -7.971   4.423  69.906  1.00  0.00    -0.056 C  
ENDROOT
BRANCH   5  20
HETATM   20  C   UNL     1     -11.876  11.942  69.133  1.00  0.00    -0.311 C  
HETATM   21  H   UNL     1     -11.543  13.115  70.795  1.00  0.00     0.000 HD 
HETATM   22  N   UNL     1     -11.748  13.132  69.797  1.00  0.00    -0.298 N  
HETATM   23  O   UNL     1     -12.218  11.863  67.945  1.00  0.00    -0.508 OA 
BRANCH  22  24
HETATM   24  C   UNL     1     -11.891  14.412  69.140  1.00  0.00    -0.323 C  
BRANCH  24  25
HETATM   25  C   UNL     1     -10.602  14.861  68.509  1.00  0.00    -0.245 A  
HETATM   26  C   UNL     1      -8.243  15.759  67.319  1.00  0.00    -0.184 A  
HETATM   27  F   UNL     1      -7.117  16.214  66.750  1.00  0.00    -0.228 F  
HETATM   28  C   UNL     1      -9.281  15.314  66.516  1.00  0.00    -0.321 A  
HETATM   29  C   UNL     1      -9.528  15.291  69.303  1.00  0.00    -0.242 A  
HETATM   30  C   UNL     1      -8.350  15.749  68.707  1.00  0.00    -0.195 A  
HETATM   31  C   UNL     1     -10.451  14.863  67.118  1.00  0.00    -0.271 A  
HETATM   32  F   UNL     1     -11.455  14.438  66.339  1.00  0.00    -0.323 F  
ENDBRANCH  24  25
ENDBRANCH  22  24
ENDBRANCH   5  20
TORSDOF 3
ENDMDL
MODEL       38
REMARK 921   NORMALIZED FREE ENERGY PREDICTED BY IDOCK:   -7.02 KCAL/MOL
REMARK 922        TOTAL FREE ENERGY PREDICTED BY IDOCK:   -8.57 KCAL/MOL
REMARK 923 INTER-LIGAND FREE ENERGY PREDICTED BY IDOCK:   -8.04 KCAL/MOL
REMARK 924 INTRA-LIGAND FREE ENERGY PREDICTED BY IDOCK:   -0.54 KCAL/MOL
REMARK 927      BINDING AFFINITY PREDICTED BY RF-SCORE:    0.00 PKD
ROOT
HETATM    1  C   UNL     1     -11.205  12.847  67.711  1.00  0.00    -0.280 C  
HETATM    2  C   UNL     1     -11.701  12.098  68.957  1.00  0.00    -0.322 C  
HETATM    3  N   UNL     1     -11.135  10.748  69.091  1.00  0.00    -0.229 NA 
HETATM    4  C   UNL     1     -11.341  10.048  70.280  1.00  0.00    -0.308 C  
HETATM    5  C   UNL     1     -11.089   8.745  70.470  1.00  0.00    -0.278 C  
HETATM    6  C   UNL     1     -10.530   8.016  69.314  1.00  0.00    -0.215 C  
HETATM    7  C   UNL     1     -10.883  12.485  64.048  1.00  0.00    -0.446 C  
HETATM    8  C   UNL     1     -10.349   8.736  68.017  1.00  0.00    -0.220 C  
HETATM    9  C   UNL     1     -12.601  13.767  65.343  1.00  0.00    -0.534 C  
HETATM   10  O   UNL     1     -10.247   6.816  69.362  1.00  0.00    -0.176 OA 
HETATM   11  C   UNL     1     -11.835  12.449  65.255  1.00  0.00    -0.399 C  
HETATM   12  O   UNL     1     -10.305  10.137  65.580  1.00  0.00    -0.240 OA 
HETATM   13  C   UNL     1     -10.679  10.048  67.957  1.00  0.00    -0.256 C  
HETATM   14  O   UNL     1      -9.913   7.962  66.960  1.00  0.00    -0.201 OA 
HETATM   15  N   UNL     1     -11.241  12.006  66.526  1.00  0.00    -0.318 N  
HETATM   16  C   UNL     1     -10.677  10.726  66.591  1.00  0.00    -0.207 C  
HETATM   17  O   UNL     1     -12.050  13.998  67.631  1.00  0.00    -0.382 OA 
HETATM   18  H   UNL     1      -9.798   8.420  66.136  1.00  0.00     0.000 HD 
HETATM   19  C   UNL     1     -12.023  14.678  66.395  1.00  0.00    -0.261 C  
ENDROOT
BRANCH   5  20
HETATM   20  C   UNL     1     -11.412   8.124  71.784  1.00  0.00    -0.284 C  
HETATM   21  H   UNL     1      -9.436   7.583  72.015  1.00  0.00     0.000 HD 
HETATM   22  N   UNL     1     -10.349   7.596  72.467  1.00  0.00    -0.232 N  
HETATM   23  O   UNL     1     -12.573   8.095  72.213  1.00  0.00    -0.317 OA 
BRANCH  22  24
HETATM   24  C   UNL     1     -10.470   7.058  73.804  1.00  0.00    -0.354 C  
BRANCH  24  25
HETATM   25  C   UNL     1     -10.185   5.581  73.836  1.00  0.00    -0.259 A  
HETATM   26  C   UNL     1      -9.646   2.843  73.822  1.00  0.00    -0.091 A  
HETATM   27  F   UNL     1      -9.374   1.530  73.794  1.00  0.00    -0.065 F  
HETATM   28  C   UNL     1     -10.877   3.295  73.373  1.00  0.00    -0.307 A  
HETATM   29  C   UNL     1      -8.956   5.099  74.311  1.00  0.00    -0.114 A  
HETATM   30  C   UNL     1      -8.683   3.729  74.296  1.00  0.00    -0.088 A  
HETATM   31  C   UNL     1     -11.139   4.661  73.389  1.00  0.00    -0.337 A  
HETATM   32  F   UNL     1     -12.328   5.094  72.950  1.00  0.00    -0.317 F  
ENDBRANCH  24  25
ENDBRANCH  22  24
ENDBRANCH   5  20
TORSDOF 3
ENDMDL
MODEL       39
REMARK 921   NORMALIZED FREE ENERGY PREDICTED BY IDOCK:   -7.00 KCAL/MOL
REMARK 922        TOTAL FREE ENERGY PREDICTED BY IDOCK:   -8.55 KCAL/MOL
REMARK 923 INTER-LIGAND FREE ENERGY PREDICTED BY IDOCK:   -8.09 KCAL/MOL
REMARK 924 INTRA-LIGAND FREE ENERGY PREDICTED BY IDOCK:   -0.45 KCAL/MOL
REMARK 927      BINDING AFFINITY PREDICTED BY RF-SCORE:    0.00 PKD
ROOT
HETATM    1  C   UNL     1     -11.896  13.407  69.474  1.00  0.00    -0.332 C  
HETATM    2  C   UNL     1     -11.005  12.165  69.316  1.00  0.00    -0.110 C  
HETATM    3  N   UNL     1     -11.589  10.949  69.901  1.00  0.00    -0.301 NA 
HETATM    4  C   UNL     1     -10.979   9.721  69.644  1.00  0.00    -0.241 C  
HETATM    5  C   UNL     1     -11.250   8.570  70.276  1.00  0.00    -0.185 C  
HETATM    6  C   UNL     1     -12.297   8.630  71.314  1.00  0.00    -0.263 C  
HETATM    7  C   UNL     1     -13.721  15.361  72.024  1.00  0.00    -0.613 C  
HETATM    8  C   UNL     1     -12.927   9.946  71.640  1.00  0.00    -0.434 C  
HETATM    9  C   UNL     1     -11.513  15.868  70.956  1.00  0.00    -0.461 C  
HETATM   10  O   UNL     1     -12.645   7.639  71.962  1.00  0.00    -0.298 OA 
HETATM   11  C   UNL     1     -12.366  14.773  71.594  1.00  0.00    -0.345 C  
HETATM   12  O   UNL     1     -13.835  12.515  72.327  1.00  0.00    -0.406 OA 
HETATM   13  C   UNL     1     -12.531  11.038  70.944  1.00  0.00    -0.410 C  
HETATM   14  O   UNL     1     -13.826   9.936  72.687  1.00  0.00    -0.642 OA 
HETATM   15  N   UNL     1     -12.426  13.522  70.822  1.00  0.00    -0.362 N  
HETATM   16  C   UNL     1     -13.029  12.403  71.408  1.00  0.00    -0.250 C  
HETATM   17  O   UNL     1     -11.057  14.497  69.084  1.00  0.00    -0.244 OA 
HETATM   18  H   UNL     1     -14.226  10.772  72.893  1.00  0.00     0.000 HD 
HETATM   19  C   UNL     1     -11.523  15.776  69.451  1.00  0.00    -0.355 C  
ENDROOT
BRANCH   5  20
HETATM   20  C   UNL     1     -10.476   7.347  69.926  1.00  0.00    -0.231 C  
HETATM   21  H   UNL     1     -11.779   6.965  68.374  1.00  0.00     0.000 HD 
HETATM   22  N   UNL     1     -10.919   6.659  68.829  1.00  0.00    -0.268 N  
HETATM   23  O   UNL     1      -9.499   6.991  70.599  1.00  0.00    -0.165 OA 
BRANCH  22  24
HETATM   24  C   UNL     1     -10.218   5.515  68.289  1.00  0.00    -0.178 C  
BRANCH  24  25
HETATM   25  C   UNL     1      -9.363   5.893  67.110  1.00  0.00    -0.118 A  
HETATM   26  C   UNL     1      -7.840   6.612  64.884  1.00  0.00    -0.115 A  
HETATM   27  F   UNL     1      -7.128   6.972  63.807  1.00  0.00    -0.049 F  
HETATM   28  C   UNL     1      -8.533   5.410  64.874  1.00  0.00    -0.148 A  
HETATM   29  C   UNL     1      -8.634   7.091  67.108  1.00  0.00    -0.121 A  
HETATM   30  C   UNL     1      -7.878   7.455  65.991  1.00  0.00    -0.102 A  
HETATM   31  C   UNL     1      -9.284   5.058  65.990  1.00  0.00    -0.153 A  
HETATM   32  F   UNL     1      -9.955   3.899  65.975  1.00  0.00    -0.194 F  
ENDBRANCH  24  25
ENDBRANCH  22  24
ENDBRANCH   5  20
TORSDOF 3
ENDMDL
MODEL       40
REMARK 921   NORMALIZED FREE ENERGY PREDICTED BY IDOCK:   -6.99 KCAL/MOL
REMARK 922        TOTAL FREE ENERGY PREDICTED BY IDOCK:   -8.54 KCAL/MOL
REMARK 923 INTER-LIGAND FREE ENERGY PREDICTED BY IDOCK:   -8.16 KCAL/MOL
REMARK 924 INTRA-LIGAND FREE ENERGY PREDICTED BY IDOCK:   -0.38 KCAL/MOL
REMARK 927      BINDING AFFINITY PREDICTED BY RF-SCORE:    0.00 PKD
ROOT
HETATM    1  C   UNL     1      -9.255   7.453  69.246  1.00  0.00    -0.147 C  
HETATM    2  C   UNL     1      -9.673   8.483  68.185  1.00  0.00    -0.155 C  
HETATM    3  N   UNL     1     -10.314   9.678  68.750  1.00  0.00    -0.206 NA 
HETATM    4  C   UNL     1     -10.551  10.772  67.916  1.00  0.00    -0.221 C  
HETATM    5  C   UNL     1     -11.317  11.830  68.218  1.00  0.00    -0.343 C  
HETATM    6  C   UNL     1     -11.937  11.822  69.557  1.00  0.00    -0.300 C  
HETATM    7  C   UNL     1     -10.591   5.535  72.108  1.00  0.00    -0.280 C  
HETATM    8  C   UNL     1     -11.738  10.636  70.446  1.00  0.00    -0.353 C  
HETATM    9  C   UNL     1     -10.170   4.753  69.766  1.00  0.00    -0.218 C  
HETATM   10  O   UNL     1     -12.657  12.739  69.960  1.00  0.00    -0.045 OA 
HETATM   11  C   UNL     1     -10.749   5.881  70.617  1.00  0.00    -0.285 C  
HETATM   12  O   UNL     1     -11.496   8.244  71.902  1.00  0.00    -0.272 OA 
HETATM   13  C   UNL     1     -10.965   9.619  69.998  1.00  0.00    -0.260 C  
HETATM   14  O   UNL     1     -12.429  10.662  71.641  1.00  0.00    -0.373 OA 
HETATM   15  N   UNL     1     -10.309   7.228  70.222  1.00  0.00    -0.207 N  
HETATM   16  C   UNL     1     -10.923   8.335  70.820  1.00  0.00    -0.243 C  
HETATM   17  O   UNL     1      -8.903   6.291  68.493  1.00  0.00    -0.116 OA 
HETATM   18  H   UNL     1     -12.302   9.909  72.205  1.00  0.00     0.000 HD 
HETATM   19  C   UNL     1      -8.800   5.099  69.240  1.00  0.00    -0.095 C  
ENDROOT
BRANCH   5  20
HETATM   20  C   UNL     1     -11.517  12.898  67.202  1.00  0.00    -0.336 C  
HETATM   21  H   UNL     1     -10.266  14.146  68.265  1.00  0.00     0.000 HD 
HETATM   22  N   UNL     1     -10.810  14.053  67.407  1.00  0.00    -0.279 N  
HETATM   23  O   UNL     1     -12.279  12.735  66.239  1.00  0.00    -0.515 OA 
BRANCH  22  24
HETATM   24  C   UNL     1     -10.803  15.144  66.459  1.00  0.00    -0.317 C  
BRANCH  24  25
HETATM   25  C   UNL     1     -10.107  16.357  67.012  1.00  0.00    -0.272 A  
HETATM   26  C   UNL     1      -8.786  18.566  68.092  1.00  0.00    -0.306 A  
HETATM   27  F   UNL     1      -8.135  19.611  68.622  1.00  0.00    -0.362 F  
HETATM   28  C   UNL     1      -9.916  18.073  68.727  1.00  0.00    -0.380 A  
HETATM   29  C   UNL     1      -8.978  16.889  66.372  1.00  0.00    -0.317 A  
HETATM   30  C   UNL     1      -8.312  17.989  66.918  1.00  0.00    -0.263 A  
HETATM   31  C   UNL     1     -10.572  16.976  68.178  1.00  0.00    -0.369 A  
HETATM   32  F   UNL     1     -11.660  16.500  68.796  1.00  0.00    -0.325 F  
ENDBRANCH  24  25
ENDBRANCH  22  24
ENDBRANCH   5  20
TORSDOF 3
ENDMDL
MODEL       41
REMARK 921   NORMALIZED FREE ENERGY PREDICTED BY IDOCK:   -6.97 KCAL/MOL
REMARK 922        TOTAL FREE ENERGY PREDICTED BY IDOCK:   -8.52 KCAL/MOL
REMARK 923 INTER-LIGAND FREE ENERGY PREDICTED BY IDOCK:   -8.10 KCAL/MOL
REMARK 924 INTRA-LIGAND FREE ENERGY PREDICTED BY IDOCK:   -0.41 KCAL/MOL
REMARK 927      BINDING AFFINITY PREDICTED BY RF-SCORE:    0.00 PKD
ROOT
HETATM    1  C   UNL     1      -8.936  16.546  66.834  1.00  0.00    -0.219 C  
HETATM    2  C   UNL     1      -9.105  15.048  67.134  1.00  0.00    -0.215 C  
HETATM    3  N   UNL     1     -10.234  14.756  68.029  1.00  0.00    -0.224 NA 
HETATM    4  C   UNL     1     -10.620  13.427  68.211  1.00  0.00    -0.254 C  
HETATM    5  C   UNL     1     -11.467  12.984  69.151  1.00  0.00    -0.353 C  
HETATM    6  C   UNL     1     -12.039  14.010  70.045  1.00  0.00    -0.348 C  
HETATM    7  C   UNL     1      -8.613  19.820  68.516  1.00  0.00    -0.269 C  
HETATM    8  C   UNL     1     -11.600  15.431  69.899  1.00  0.00    -0.323 C  
HETATM    9  C   UNL     1      -6.815  18.407  67.495  1.00  0.00    -0.205 C  
HETATM   10  O   UNL     1     -12.836  13.734  70.945  1.00  0.00    -0.315 OA 
HETATM   11  C   UNL     1      -8.057  18.393  68.384  1.00  0.00    -0.308 C  
HETATM   12  O   UNL     1     -10.496  18.007  69.685  1.00  0.00     0.092 OA 
HETATM   13  C   UNL     1     -10.709  15.732  68.925  1.00  0.00    -0.248 C  
HETATM   14  O   UNL     1     -12.106  16.312  70.834  1.00  0.00    -0.530 OA 
HETATM   15  N   UNL     1      -9.038  17.352  68.040  1.00  0.00    -0.253 N  
HETATM   16  C   UNL     1     -10.118  17.138  68.905  1.00  0.00    -0.322 C  
HETATM   17  O   UNL     1      -7.667  16.635  66.182  1.00  0.00    -0.289 OA 
HETATM   18  H   UNL     1     -11.827  17.215  70.740  1.00  0.00     0.000 HD 
HETATM   19  C   UNL     1      -7.124  17.934  66.098  1.00  0.00    -0.306 C  
ENDROOT
BRANCH   5  20
HETATM   20  C   UNL     1     -11.742  11.525  69.255  1.00  0.00    -0.330 C  
HETATM   21  H   UNL     1     -10.990  11.518  71.175  1.00  0.00     0.000 HD 
HETATM   22  N   UNL     1     -11.447  10.950  70.462  1.00  0.00    -0.291 N  
HETATM   23  O   UNL     1     -12.207  10.889  68.299  1.00  0.00    -0.526 OA 
BRANCH  22  24
HETATM   24  C   UNL     1     -11.756   9.571  70.767  1.00  0.00    -0.298 C  
BRANCH  24  25
HETATM   25  C   UNL     1     -10.533   8.808  71.197  1.00  0.00    -0.315 A  
HETATM   26  C   UNL     1      -8.298   7.328  71.974  1.00  0.00    -0.106 A  
HETATM   27  F   UNL     1      -7.231   6.599  72.331  1.00  0.00    -0.081 F  
HETATM   28  C   UNL     1      -9.430   7.320  72.775  1.00  0.00    -0.190 A  
HETATM   29  C   UNL     1      -9.369   8.823  70.415  1.00  0.00    -0.205 A  
HETATM   30  C   UNL     1      -8.252   8.076  70.800  1.00  0.00    -0.113 A  
HETATM   31  C   UNL     1     -10.537   8.066  72.382  1.00  0.00    -0.307 A  
HETATM   32  F   UNL     1     -11.630   8.052  73.156  1.00  0.00    -0.451 F  
ENDBRANCH  24  25
ENDBRANCH  22  24
ENDBRANCH   5  20
TORSDOF 3
ENDMDL
MODEL       42
REMARK 921   NORMALIZED FREE ENERGY PREDICTED BY IDOCK:   -6.93 KCAL/MOL
REMARK 922        TOTAL FREE ENERGY PREDICTED BY IDOCK:   -8.47 KCAL/MOL
REMARK 923 INTER-LIGAND FREE ENERGY PREDICTED BY IDOCK:   -8.11 KCAL/MOL
REMARK 924 INTRA-LIGAND FREE ENERGY PREDICTED BY IDOCK:   -0.36 KCAL/MOL
REMARK 927      BINDING AFFINITY PREDICTED BY RF-SCORE:    0.00 PKD
ROOT
HETATM    1  C   UNL     1      -9.259   7.863  70.339  1.00  0.00    -0.158 C  
HETATM    2  C   UNL     1      -9.297   8.889  69.196  1.00  0.00    -0.148 C  
HETATM    3  N   UNL     1     -10.004  10.129  69.547  1.00  0.00    -0.225 NA 
HETATM    4  C   UNL     1      -9.930  11.215  68.673  1.00  0.00    -0.205 C  
HETATM    5  C   UNL     1     -10.689  12.318  68.737  1.00  0.00    -0.247 C  
HETATM    6  C   UNL     1     -11.666  12.373  69.842  1.00  0.00    -0.266 C  
HETATM    7  C   UNL     1     -11.463   6.082  72.710  1.00  0.00    -0.248 C  
HETATM    8  C   UNL     1     -11.796  11.198  70.759  1.00  0.00    -0.219 C  
HETATM    9  C   UNL     1     -10.436   5.227  70.592  1.00  0.00    -0.306 C  
HETATM   10  O   UNL     1     -12.416  13.335  70.016  1.00  0.00    -0.220 OA 
HETATM   11  C   UNL     1     -11.169   6.402  71.235  1.00  0.00    -0.292 C  
HETATM   12  O   UNL     1     -12.116   8.830  72.238  1.00  0.00    -0.366 OA 
HETATM   13  C   UNL     1     -10.986  10.132  70.556  1.00  0.00    -0.310 C  
HETATM   14  O   UNL     1     -12.797  11.287  71.705  1.00  0.00    -0.416 OA 
HETATM   15  N   UNL     1     -10.558   7.715  70.974  1.00  0.00    -0.216 N  
HETATM   16  C   UNL     1     -11.254   8.866  71.364  1.00  0.00    -0.312 C  
HETATM   17  O   UNL     1      -8.773   6.667  69.725  1.00  0.00    -0.138 OA 
HETATM   18  H   UNL     1     -12.879  10.541  72.287  1.00  0.00     0.000 HD 
HETATM   19  C   UNL     1      -8.956   5.488  70.478  1.00  0.00    -0.136 C  
ENDROOT
BRANCH   5  20
HETATM   20  C   UNL     1     -10.530  13.373  67.699  1.00  0.00    -0.241 C  
HETATM   21  H   UNL     1      -8.694  13.878  68.491  1.00  0.00     0.000 HD 
HETATM   22  N   UNL     1      -9.347  14.062  67.730  1.00  0.00    -0.198 N  
HETATM   23  O   UNL     1     -11.422  13.599  66.870  1.00  0.00    -0.317 OA 
BRANCH  22  24
HETATM   24  C   UNL     1      -8.985  15.039  66.728  1.00  0.00    -0.265 C  
BRANCH  24  25
HETATM   25  C   UNL     1      -9.413  16.426  67.123  1.00  0.00    -0.238 A  
HETATM   26  C   UNL     1     -10.137  19.023  67.848  1.00  0.00    -0.381 A  
HETATM   27  F   UNL     1     -10.464  20.279  68.183  1.00  0.00    -0.509 F  
HETATM   28  C   UNL     1      -9.449  18.231  68.755  1.00  0.00    -0.298 A  
HETATM   29  C   UNL     1     -10.132  17.235  66.231  1.00  0.00    -0.323 A  
HETATM   30  C   UNL     1     -10.487  18.538  66.590  1.00  0.00    -0.436 A  
HETATM   31  C   UNL     1      -9.098  16.936  68.387  1.00  0.00    -0.243 A  
HETATM   32  F   UNL     1      -8.430  16.176  69.265  1.00  0.00    -0.230 F  
ENDBRANCH  24  25
ENDBRANCH  22  24
ENDBRANCH   5  20
TORSDOF 3
ENDMDL
MODEL       43
REMARK 921   NORMALIZED FREE ENERGY PREDICTED BY IDOCK:   -6.91 KCAL/MOL
REMARK 922        TOTAL FREE ENERGY PREDICTED BY IDOCK:   -8.44 KCAL/MOL
REMARK 923 INTER-LIGAND FREE ENERGY PREDICTED BY IDOCK:   -7.93 KCAL/MOL
REMARK 924 INTRA-LIGAND FREE ENERGY PREDICTED BY IDOCK:   -0.51 KCAL/MOL
REMARK 927      BINDING AFFINITY PREDICTED BY RF-SCORE:    0.00 PKD
ROOT
HETATM    1  C   UNL     1      -9.333   4.950  66.990  1.00  0.00    -0.129 C  
HETATM    2  C   UNL     1     -10.490   5.815  67.514  1.00  0.00    -0.245 C  
HETATM    3  N   UNL     1     -10.562   5.869  68.981  1.00  0.00    -0.263 NA 
HETATM    4  C   UNL     1     -11.434   6.781  69.578  1.00  0.00    -0.190 C  
HETATM    5  C   UNL     1     -11.775   6.797  70.874  1.00  0.00    -0.424 C  
HETATM    6  C   UNL     1     -11.150   5.764  71.724  1.00  0.00    -0.238 C  
HETATM    7  C   UNL     1      -7.859   1.578  67.311  1.00  0.00    -0.060 C  
HETATM    8  C   UNL     1     -10.253   4.747  71.095  1.00  0.00    -0.158 C  
HETATM    9  C   UNL     1      -9.317   2.476  65.483  1.00  0.00    -0.021 C  
HETATM   10  O   UNL     1     -11.374   5.676  72.934  1.00  0.00    -0.289 OA 
HETATM   11  C   UNL     1      -9.124   2.393  66.995  1.00  0.00    -0.122 C  
HETATM   12  O   UNL     1      -8.803   2.753  69.745  1.00  0.00    -0.068 OA 
HETATM   13  C   UNL     1     -10.022   4.830  69.763  1.00  0.00    -0.238 C  
HETATM   14  O   UNL     1      -9.786   3.759  71.938  1.00  0.00    -0.164 OA 
HETATM   15  N   UNL     1      -9.247   3.682  67.694  1.00  0.00    -0.169 N  
HETATM   16  C   UNL     1      -9.269   3.684  69.094  1.00  0.00    -0.159 C  
HETATM   17  O   UNL     1      -9.593   4.821  65.591  1.00  0.00    -0.163 OA 
HETATM   18  H   UNL     1      -9.216   3.114  71.538  1.00  0.00     0.000 HD 
HETATM   19  C   UNL     1      -8.866   3.806  64.935  1.00  0.00    -0.121 C  
ENDROOT
BRANCH   5  20
HETATM   20  C   UNL     1     -12.762   7.802  71.356  1.00  0.00    -0.308 C  
HETATM   21  H   UNL     1     -11.274   9.229  71.428  1.00  0.00     0.000 HD 
HETATM   22  N   UNL     1     -12.274   9.068  71.544  1.00  0.00    -0.317 N  
HETATM   23  O   UNL     1     -13.942   7.494  71.568  1.00  0.00    -0.408 OA 
BRANCH  22  24
HETATM   24  C   UNL     1     -13.120  10.185  71.900  1.00  0.00    -0.466 C  
BRANCH  24  25
HETATM   25  C   UNL     1     -12.736  11.434  71.154  1.00  0.00    -0.479 A  
HETATM   26  C   UNL     1     -11.970  13.764  69.823  1.00  0.00    -0.344 A  
HETATM   27  F   UNL     1     -11.579  14.882  69.194  1.00  0.00    -0.262 F  
HETATM   28  C   UNL     1     -12.719  13.861  70.986  1.00  0.00    -0.428 A  
HETATM   29  C   UNL     1     -12.000  11.358  69.963  1.00  0.00    -0.442 A  
HETATM   30  C   UNL     1     -11.610  12.525  69.300  1.00  0.00    -0.378 A  
HETATM   31  C   UNL     1     -13.101  12.694  71.639  1.00  0.00    -0.323 A  
HETATM   32  F   UNL     1     -13.821  12.792  72.764  1.00  0.00    -0.552 F  
ENDBRANCH  24  25
ENDBRANCH  22  24
ENDBRANCH   5  20
TORSDOF 3
ENDMDL
MODEL       44
REMARK 921   NORMALIZED FREE ENERGY PREDICTED BY IDOCK:   -6.89 KCAL/MOL
REMARK 922        TOTAL FREE ENERGY PREDICTED BY IDOCK:   -8.42 KCAL/MOL
REMARK 923 INTER-LIGAND FREE ENERGY PREDICTED BY IDOCK:   -7.81 KCAL/MOL
REMARK 924 INTRA-LIGAND FREE ENERGY PREDICTED BY IDOCK:   -0.62 KCAL/MOL
REMARK 927      BINDING AFFINITY PREDICTED BY RF-SCORE:    0.00 PKD
ROOT
HETATM    1  C   UNL     1     -11.816  13.345  69.549  1.00  0.00    -0.332 C  
HETATM    2  C   UNL     1     -11.009  12.053  69.342  1.00  0.00    -0.066 C  
HETATM    3  N   UNL     1     -11.651  10.865  69.923  1.00  0.00    -0.301 NA 
HETATM    4  C   UNL     1     -11.127   9.606  69.626  1.00  0.00    -0.193 C  
HETATM    5  C   UNL     1     -11.451   8.462  70.245  1.00  0.00    -0.063 C  
HETATM    6  C   UNL     1     -12.463   8.566  71.315  1.00  0.00    -0.249 C  
HETATM    7  C   UNL     1     -13.441  15.357  72.187  1.00  0.00    -0.570 C  
HETATM    8  C   UNL     1     -12.999   9.913  71.682  1.00  0.00    -0.434 C  
HETATM    9  C   UNL     1     -11.237  15.747  71.063  1.00  0.00    -0.396 C  
HETATM   10  O   UNL     1     -12.854   7.587  71.955  1.00  0.00    -0.316 OA 
HETATM   11  C   UNL     1     -12.138  14.696  71.706  1.00  0.00    -0.319 C  
HETATM   12  O   UNL     1     -13.724  12.519  72.443  1.00  0.00    -0.472 OA 
HETATM   13  C   UNL     1     -12.556  10.991  70.995  1.00  0.00    -0.411 C  
HETATM   14  O   UNL     1     -13.866   9.937  72.756  1.00  0.00    -0.624 OA 
HETATM   15  N   UNL     1     -12.299  13.466  70.914  1.00  0.00    -0.375 N  
HETATM   16  C   UNL     1     -12.953  12.375  71.498  1.00  0.00    -0.285 C  
HETATM   17  O   UNL     1     -10.921  14.387  69.154  1.00  0.00    -0.253 OA 
HETATM   18  H   UNL     1     -14.207  10.792  72.989  1.00  0.00     0.000 HD 
HETATM   19  C   UNL     1     -11.296  15.686  69.558  1.00  0.00    -0.327 C  
ENDROOT
BRANCH   5  20
HETATM   20  C   UNL     1     -10.767   7.200  69.850  1.00  0.00    -0.239 C  
HETATM   21  H   UNL     1      -8.936   8.121  70.079  1.00  0.00     0.000 HD 
HETATM   22  N   UNL     1      -9.398   7.235  69.877  1.00  0.00    -0.154 N  
HETATM   23  O   UNL     1     -11.411   6.195  69.521  1.00  0.00    -0.418 OA 
BRANCH  22  24
HETATM   24  C   UNL     1      -8.582   6.067  69.632  1.00  0.00    -0.126 C  
BRANCH  24  25
HETATM   25  C   UNL     1      -8.308   5.304  70.899  1.00  0.00    -0.116 A  
HETATM   26  C   UNL     1      -7.756   3.840  73.210  1.00  0.00    -0.074 A  
HETATM   27  F   UNL     1      -7.470   3.128  74.310  1.00  0.00    -0.047 F  
HETATM   28  C   UNL     1      -8.662   3.338  72.288  1.00  0.00    -0.104 A  
HETATM   29  C   UNL     1      -7.415   5.805  71.858  1.00  0.00    -0.095 A  
HETATM   30  C   UNL     1      -7.133   5.068  73.011  1.00  0.00    -0.084 A  
HETATM   31  C   UNL     1      -8.935   4.077  71.142  1.00  0.00    -0.107 A  
HETATM   32  F   UNL     1      -9.807   3.587  70.252  1.00  0.00    -0.255 F  
ENDBRANCH  24  25
ENDBRANCH  22  24
ENDBRANCH   5  20
TORSDOF 3
ENDMDL
MODEL       45
REMARK 921   NORMALIZED FREE ENERGY PREDICTED BY IDOCK:   -6.84 KCAL/MOL
REMARK 922        TOTAL FREE ENERGY PREDICTED BY IDOCK:   -8.36 KCAL/MOL
REMARK 923 INTER-LIGAND FREE ENERGY PREDICTED BY IDOCK:   -8.20 KCAL/MOL
REMARK 924 INTRA-LIGAND FREE ENERGY PREDICTED BY IDOCK:   -0.16 KCAL/MOL
REMARK 927      BINDING AFFINITY PREDICTED BY RF-SCORE:    0.00 PKD
ROOT
HETATM    1  C   UNL     1      -9.878   8.145  66.701  1.00  0.00    -0.261 C  
HETATM    2  C   UNL     1     -10.130   9.368  67.596  1.00  0.00    -0.211 C  
HETATM    3  N   UNL     1     -10.469  10.583  66.843  1.00  0.00    -0.242 NA 
HETATM    4  C   UNL     1     -10.922  11.703  67.543  1.00  0.00    -0.259 C  
HETATM    5  C   UNL     1     -11.054  12.937  67.036  1.00  0.00    -0.309 C  
HETATM    6  C   UNL     1     -10.701  13.095  65.611  1.00  0.00    -0.280 C  
HETATM    7  C   UNL     1      -7.886   7.046  63.789  1.00  0.00    -0.107 C  
HETATM    8  C   UNL     1     -10.166  11.920  64.858  1.00  0.00    -0.271 C  
HETATM    9  C   UNL     1      -7.486   6.581  66.218  1.00  0.00    -0.081 C  
HETATM   10  O   UNL     1     -10.786  14.176  65.024  1.00  0.00    -0.350 OA 
HETATM   11  C   UNL     1      -7.854   7.658  65.200  1.00  0.00    -0.124 C  
HETATM   12  O   UNL     1      -8.935   9.706  63.640  1.00  0.00    -0.232 OA 
HETATM   13  C   UNL     1     -10.052  10.737  65.507  1.00  0.00    -0.274 C  
HETATM   14  O   UNL     1      -9.768  12.173  63.560  1.00  0.00    -0.567 OA 
HETATM   15  N   UNL     1      -9.023   8.471  65.572  1.00  0.00    -0.168 N  
HETATM   16  C   UNL     1      -9.328   9.597  64.798  1.00  0.00    -0.222 C  
HETATM   17  O   UNL     1      -9.324   7.167  67.585  1.00  0.00    -0.127 OA 
HETATM   18  H   UNL     1      -9.429  11.426  63.082  1.00  0.00     0.000 HD 
HETATM   19  C   UNL     1      -8.698   6.072  66.953  1.00  0.00    -0.112 C  
ENDROOT
BRANCH   5  20
HETATM   20  C   UNL     1     -11.501  14.045  67.923  1.00  0.00    -0.316 C  
HETATM   21  H   UNL     1     -10.069  15.281  67.102  1.00  0.00     0.000 HD 
HETATM   22  N   UNL     1     -10.855  15.240  67.751  1.00  0.00    -0.287 N  
HETATM   23  O   UNL     1     -12.400  13.877  68.758  1.00  0.00    -0.288 OA 
BRANCH  22  24
HETATM   24  C   UNL     1     -11.241  16.445  68.451  1.00  0.00    -0.324 C  
BRANCH  24  25
HETATM   25  C   UNL     1     -10.382  17.615  68.059  1.00  0.00    -0.375 A  
HETATM   26  C   UNL     1      -8.753  19.744  67.282  1.00  0.00    -0.322 A  
HETATM   27  F   UNL     1      -7.967  20.755  66.887  1.00  0.00    -0.333 F  
HETATM   28  C   UNL     1      -8.220  18.733  68.067  1.00  0.00    -0.317 A  
HETATM   29  C   UNL     1     -10.906  18.662  67.287  1.00  0.00    -0.369 A  
HETATM   30  C   UNL     1     -10.089  19.724  66.892  1.00  0.00    -0.559 A  
HETATM   31  C   UNL     1      -9.041  17.679  68.455  1.00  0.00    -0.277 A  
HETATM   32  F   UNL     1      -8.522  16.701  69.209  1.00  0.00    -0.236 F  
ENDBRANCH  24  25
ENDBRANCH  22  24
ENDBRANCH   5  20
TORSDOF 3
ENDMDL
MODEL       46
REMARK 921   NORMALIZED FREE ENERGY PREDICTED BY IDOCK:   -6.81 KCAL/MOL
REMARK 922        TOTAL FREE ENERGY PREDICTED BY IDOCK:   -8.32 KCAL/MOL
REMARK 923 INTER-LIGAND FREE ENERGY PREDICTED BY IDOCK:   -7.86 KCAL/MOL
REMARK 924 INTRA-LIGAND FREE ENERGY PREDICTED BY IDOCK:   -0.46 KCAL/MOL
REMARK 927      BINDING AFFINITY PREDICTED BY RF-SCORE:    0.00 PKD
ROOT
HETATM    1  C   UNL     1      -8.641  16.927  66.704  1.00  0.00    -0.247 C  
HETATM    2  C   UNL     1      -8.736  15.464  67.166  1.00  0.00    -0.220 C  
HETATM    3  N   UNL     1      -9.418  14.590  66.202  1.00  0.00    -0.286 NA 
HETATM    4  C   UNL     1      -9.386  13.210  66.406  1.00  0.00    -0.179 C  
HETATM    5  C   UNL     1     -10.136  12.309  65.756  1.00  0.00    -0.274 C  
HETATM    6  C   UNL     1     -11.052  12.845  64.730  1.00  0.00    -0.309 C  
HETATM    7  C   UNL     1     -10.723  19.715  65.461  1.00  0.00    -0.323 C  
HETATM    8  C   UNL     1     -11.138  14.324  64.531  1.00  0.00    -0.312 C  
HETATM    9  C   UNL     1      -9.814  19.355  67.767  1.00  0.00    -0.449 C  
HETATM   10  O   UNL     1     -11.789  12.121  64.056  1.00  0.00    -0.383 OA 
HETATM   11  C   UNL     1     -10.507  18.685  66.582  1.00  0.00    -0.413 C  
HETATM   12  O   UNL     1     -11.389  17.122  64.443  1.00  0.00    -1.115 OA 
HETATM   13  C   UNL     1     -10.345  15.122  65.284  1.00  0.00    -0.396 C  
HETATM   14  O   UNL     1     -12.087  14.750  63.623  1.00  0.00    -0.886 OA 
HETATM   15  N   UNL     1      -9.906  17.406  66.171  1.00  0.00    -0.272 N  
HETATM   16  C   UNL     1     -10.574  16.628  65.218  1.00  0.00    -0.205 C  
HETATM   17  O   UNL     1      -8.193  17.635  67.862  1.00  0.00    -0.224 OA 
HETATM   18  H   UNL     1     -12.141  15.690  63.496  1.00  0.00     0.000 HD 
HETATM   19  C   UNL     1      -8.341  19.037  67.803  1.00  0.00    -0.288 C  
ENDROOT
BRANCH   5  20
HETATM   20  C   UNL     1     -10.028  10.870  66.122  1.00  0.00    -0.233 C  
HETATM   21  H   UNL     1      -8.104  10.825  65.381  1.00  0.00     0.000 HD 
HETATM   22  N   UNL     1      -8.817  10.283  65.869  1.00  0.00    -0.153 N  
HETATM   23  O   UNL     1     -10.984  10.260  66.621  1.00  0.00    -0.108 OA 
BRANCH  22  24
HETATM   24  C   UNL     1      -8.508   8.928  66.265  1.00  0.00    -0.123 C  
BRANCH  24  25
HETATM   25  C   UNL     1      -7.688   8.216  65.224  1.00  0.00    -0.101 A  
HETATM   26  C   UNL     1      -6.185   6.831  63.324  1.00  0.00    -0.042 A  
HETATM   27  F   UNL     1      -5.478   6.145  62.415  1.00  0.00    -0.019 F  
HETATM   28  C   UNL     1      -5.689   6.973  64.610  1.00  0.00    -0.032 A  
HETATM   29  C   UNL     1      -8.159   8.084  63.910  1.00  0.00    -0.097 A  
HETATM   30  C   UNL     1      -7.411   7.383  62.960  1.00  0.00    -0.089 A  
HETATM   31  C   UNL     1      -6.442   7.670  65.549  1.00  0.00    -0.042 A  
HETATM   32  F   UNL     1      -5.961   7.801  66.793  1.00  0.00    -0.041 F  
ENDBRANCH  24  25
ENDBRANCH  22  24
ENDBRANCH   5  20
TORSDOF 3
ENDMDL
MODEL       47
REMARK 921   NORMALIZED FREE ENERGY PREDICTED BY IDOCK:   -6.80 KCAL/MOL
REMARK 922        TOTAL FREE ENERGY PREDICTED BY IDOCK:   -8.32 KCAL/MOL
REMARK 923 INTER-LIGAND FREE ENERGY PREDICTED BY IDOCK:   -8.15 KCAL/MOL
REMARK 924 INTRA-LIGAND FREE ENERGY PREDICTED BY IDOCK:   -0.16 KCAL/MOL
REMARK 927      BINDING AFFINITY PREDICTED BY RF-SCORE:    0.00 PKD
ROOT
HETATM    1  C   UNL     1     -10.265  13.684  67.659  1.00  0.00    -0.239 C  
HETATM    2  C   UNL     1     -10.090  12.270  68.234  1.00  0.00    -0.218 C  
HETATM    3  N   UNL     1     -11.142  11.893  69.189  1.00  0.00    -0.238 NA 
HETATM    4  C   UNL     1     -11.214  10.569  69.622  1.00  0.00    -0.282 C  
HETATM    5  C   UNL     1     -11.958  10.123  70.644  1.00  0.00    -0.423 C  
HETATM    6  C   UNL     1     -12.774  11.134  71.343  1.00  0.00    -0.418 C  
HETATM    7  C   UNL     1     -10.751  17.196  68.698  1.00  0.00    -0.306 C  
HETATM    8  C   UNL     1     -12.673  12.567  70.927  1.00  0.00    -0.182 C  
HETATM    9  C   UNL     1      -8.650  16.076  67.923  1.00  0.00    -0.165 C  
HETATM   10  O   UNL     1     -13.508  10.852  72.293  1.00  0.00    -0.324 OA 
HETATM   11  C   UNL     1      -9.876  15.938  68.822  1.00  0.00    -0.216 C  
HETATM   12  O   UNL     1     -12.192  15.244  70.219  1.00  0.00    -0.318 OA 
HETATM   13  C   UNL     1     -11.852  12.881  69.898  1.00  0.00    -0.303 C  
HETATM   14  O   UNL     1     -13.393  13.463  71.693  1.00  0.00    -0.374 OA 
HETATM   15  N   UNL     1     -10.580  14.652  68.696  1.00  0.00    -0.244 N  
HETATM   16  C   UNL     1     -11.603  14.358  69.606  1.00  0.00    -0.292 C  
HETATM   17  O   UNL     1      -9.035  13.943  66.977  1.00  0.00    -0.227 OA 
HETATM   18  H   UNL     1     -13.329  14.373  71.428  1.00  0.00     0.000 HD 
HETATM   19  C   UNL     1      -8.807  15.295  66.644  1.00  0.00    -0.293 C  
ENDROOT
BRANCH   5  20
HETATM   20  C   UNL     1     -11.890   8.684  71.021  1.00  0.00    -0.265 C  
HETATM   21  H   UNL     1     -10.829   8.281  69.300  1.00  0.00     0.000 HD 
HETATM   22  N   UNL     1     -11.187   7.879  70.166  1.00  0.00    -0.206 N  
HETATM   23  O   UNL     1     -12.443   8.263  72.046  1.00  0.00    -0.318 OA 
BRANCH  22  24
HETATM   24  C   UNL     1     -10.930   6.483  70.442  1.00  0.00    -0.298 C  
BRANCH  24  25
HETATM   25  C   UNL     1     -10.485   5.746  69.209  1.00  0.00    -0.358 A  
HETATM   26  C   UNL     1      -9.715   4.328  66.931  1.00  0.00    -0.214 A  
HETATM   27  F   UNL     1      -9.369   3.638  65.835  1.00  0.00    -0.140 F  
HETATM   28  C   UNL     1      -9.435   3.804  68.184  1.00  0.00    -0.216 A  
HETATM   29  C   UNL     1     -10.734   6.269  67.932  1.00  0.00    -0.380 A  
HETATM   30  C   UNL     1     -10.356   5.556  66.792  1.00  0.00    -0.321 A  
HETATM   31  C   UNL     1      -9.817   4.520  69.314  1.00  0.00    -0.171 A  
HETATM   32  F   UNL     1      -9.550   4.008  70.522  1.00  0.00    -0.200 F  
ENDBRANCH  24  25
ENDBRANCH  22  24
ENDBRANCH   5  20
TORSDOF 3
ENDMDL
MODEL       48
REMARK 921   NORMALIZED FREE ENERGY PREDICTED BY IDOCK:   -6.79 KCAL/MOL
REMARK 922        TOTAL FREE ENERGY PREDICTED BY IDOCK:   -8.30 KCAL/MOL
REMARK 923 INTER-LIGAND FREE ENERGY PREDICTED BY IDOCK:   -8.36 KCAL/MOL
REMARK 924 INTRA-LIGAND FREE ENERGY PREDICTED BY IDOCK:    0.06 KCAL/MOL
REMARK 927      BINDING AFFINITY PREDICTED BY RF-SCORE:    0.00 PKD
ROOT
HETATM    1  C   UNL     1     -11.722  10.084  69.407  1.00  0.00     0.053 C  
HETATM    2  C   UNL     1     -11.482  11.547  69.811  1.00  0.00    -0.286 C  
HETATM    3  N   UNL     1     -11.344  12.455  68.663  1.00  0.00    -0.264 NA 
HETATM    4  C   UNL     1     -11.330  13.831  68.893  1.00  0.00    -0.288 C  
HETATM    5  C   UNL     1     -10.991  14.767  67.995  1.00  0.00    -0.276 C  
HETATM    6  C   UNL     1     -10.622  14.276  66.652  1.00  0.00    -0.278 C  
HETATM    7  C   UNL     1     -10.331   7.395  67.289  1.00  0.00    -0.356 C  
HETATM    8  C   UNL     1     -10.582  12.803  66.401  1.00  0.00    -0.255 C  
HETATM    9  C   UNL     1     -10.107   7.705  69.765  1.00  0.00    -0.196 C  
HETATM   10  O   UNL     1     -10.298  15.035  65.735  1.00  0.00    -0.291 OA 
HETATM   11  C   UNL     1     -10.053   8.410  68.411  1.00  0.00    -0.198 C  
HETATM   12  O   UNL     1     -10.296  10.019  66.142  1.00  0.00    -0.224 OA 
HETATM   13  C   UNL     1     -10.916  11.968  67.413  1.00  0.00    -0.261 C  
HETATM   14  O   UNL     1     -10.133  12.422  65.152  1.00  0.00    -0.277 OA 
HETATM   15  N   UNL     1     -10.822   9.663  68.347  1.00  0.00    -0.200 N  
HETATM   16  C   UNL     1     -10.687  10.473  67.214  1.00  0.00    -0.277 C  
HETATM   17  O   UNL     1     -11.569   9.352  70.625  1.00  0.00    -0.268 OA 
HETATM   18  H   UNL     1     -10.109  11.487  64.992  1.00  0.00     0.000 HD 
HETATM   19  C   UNL     1     -11.413   7.958  70.472  1.00  0.00    -0.195 C  
ENDROOT
BRANCH   5  20
HETATM   20  C   UNL     1     -10.974  16.198  68.404  1.00  0.00    -0.341 C  
HETATM   21  H   UNL     1     -10.376  16.736  66.505  1.00  0.00     0.000 HD 
HETATM   22  N   UNL     1     -10.657  17.093  67.418  1.00  0.00    -0.326 N  
HETATM   23  O   UNL     1     -11.231  16.537  69.568  1.00  0.00    -0.283 OA 
BRANCH  22  24
HETATM   24  C   UNL     1     -10.704  18.525  67.618  1.00  0.00    -0.364 C  
BRANCH  24  25
HETATM   25  C   UNL     1      -9.327  19.111  67.766  1.00  0.00    -0.360 A  
HETATM   26  C   UNL     1      -6.802  20.264  68.064  1.00  0.00    -0.300 A  
HETATM   27  F   UNL     1      -5.599  20.834  68.225  1.00  0.00    -0.248 F  
HETATM   28  C   UNL     1      -7.598  20.640  66.993  1.00  0.00    -0.327 A  
HETATM   29  C   UNL     1      -8.494  18.727  68.827  1.00  0.00    -0.320 A  
HETATM   30  C   UNL     1      -7.234  19.310  68.981  1.00  0.00    -0.388 A  
HETATM   31  C   UNL     1      -8.852  20.056  66.849  1.00  0.00    -0.347 A  
HETATM   32  F   UNL     1      -9.620  20.425  65.815  1.00  0.00    -0.416 F  
ENDBRANCH  24  25
ENDBRANCH  22  24
ENDBRANCH   5  20
TORSDOF 3
ENDMDL
MODEL       49
REMARK 921   NORMALIZED FREE ENERGY PREDICTED BY IDOCK:   -6.78 KCAL/MOL
REMARK 922        TOTAL FREE ENERGY PREDICTED BY IDOCK:   -8.29 KCAL/MOL
REMARK 923 INTER-LIGAND FREE ENERGY PREDICTED BY IDOCK:   -7.67 KCAL/MOL
REMARK 924 INTRA-LIGAND FREE ENERGY PREDICTED BY IDOCK:   -0.62 KCAL/MOL
REMARK 927      BINDING AFFINITY PREDICTED BY RF-SCORE:    0.00 PKD
ROOT
HETATM    1  C   UNL     1      -8.758   6.980  71.254  1.00  0.00    -0.130 C  
HETATM    2  C   UNL     1      -8.972   7.867  70.017  1.00  0.00    -0.145 C  
HETATM    3  N   UNL     1      -9.872   9.003  70.261  1.00  0.00    -0.182 NA 
HETATM    4  C   UNL     1      -9.983   9.993  69.284  1.00  0.00    -0.213 C  
HETATM    5  C   UNL     1     -10.913  10.959  69.256  1.00  0.00    -0.295 C  
HETATM    6  C   UNL     1     -11.878  10.963  70.373  1.00  0.00    -0.357 C  
HETATM    7  C   UNL     1     -10.624   5.109  73.836  1.00  0.00    -0.340 C  
HETATM    8  C   UNL     1     -11.807   9.881  71.402  1.00  0.00    -0.394 C  
HETATM    9  C   UNL     1      -9.483   4.226  71.789  1.00  0.00    -0.206 C  
HETATM   10  O   UNL     1     -12.776  11.803  70.469  1.00  0.00    -0.173 OA 
HETATM   11  C   UNL     1     -10.395   5.324  72.331  1.00  0.00    -0.209 C  
HETATM   12  O   UNL     1     -11.723   7.652  73.113  1.00  0.00    -0.176 OA 
HETATM   13  C   UNL     1     -10.834   8.946  71.287  1.00  0.00    -0.290 C  
HETATM   14  O   UNL     1     -12.803   9.899  72.358  1.00  0.00    -0.345 OA 
HETATM   15  N   UNL     1     -10.011   6.686  71.929  1.00  0.00    -0.177 N  
HETATM   16  C   UNL     1     -10.884   7.741  72.220  1.00  0.00    -0.283 C  
HETATM   17  O   UNL     1      -8.085   5.824  70.749  1.00  0.00    -0.113 OA 
HETATM   18  H   UNL     1     -12.757   9.212  73.012  1.00  0.00     0.000 HD 
HETATM   19  C   UNL     1      -8.067   4.713  71.617  1.00  0.00    -0.103 C  
ENDROOT
BRANCH   5  20
HETATM   20  C   UNL     1     -10.936  11.916  68.117  1.00  0.00    -0.227 C  
HETATM   21  H   UNL     1      -9.177  12.759  68.787  1.00  0.00     0.000 HD 
HETATM   22  N   UNL     1      -9.867  12.769  68.037  1.00  0.00    -0.220 N  
HETATM   23  O   UNL     1     -11.871  11.926  67.305  1.00  0.00    -0.576 OA 
BRANCH  22  24
HETATM   24  C   UNL     1      -9.679  13.683  66.933  1.00  0.00    -0.262 C  
BRANCH  24  25
HETATM   25  C   UNL     1      -9.680  15.116  67.390  1.00  0.00    -0.209 A  
HETATM   26  C   UNL     1      -9.697  17.751  68.309  1.00  0.00    -0.320 A  
HETATM   27  F   UNL     1      -9.700  19.009  68.774  1.00  0.00    -0.371 F  
HETATM   28  C   UNL     1     -10.900  17.083  68.141  1.00  0.00    -0.338 A  
HETATM   29  C   UNL     1      -8.476  15.820  67.542  1.00  0.00    -0.183 A  
HETATM   30  C   UNL     1      -8.484  17.137  68.010  1.00  0.00    -0.219 A  
HETATM   31  C   UNL     1     -10.882  15.771  67.677  1.00  0.00    -0.310 A  
HETATM   32  F   UNL     1     -12.046  15.127  67.521  1.00  0.00    -0.309 F  
ENDBRANCH  24  25
ENDBRANCH  22  24
ENDBRANCH   5  20
TORSDOF 3
ENDMDL
MODEL       50
REMARK 921   NORMALIZED FREE ENERGY PREDICTED BY IDOCK:   -6.72 KCAL/MOL
REMARK 922        TOTAL FREE ENERGY PREDICTED BY IDOCK:   -8.23 KCAL/MOL
REMARK 923 INTER-LIGAND FREE ENERGY PREDICTED BY IDOCK:   -7.76 KCAL/MOL
REMARK 924 INTRA-LIGAND FREE ENERGY PREDICTED BY IDOCK:   -0.47 KCAL/MOL
REMARK 927      BINDING AFFINITY PREDICTED BY RF-SCORE:    0.00 PKD
ROOT
HETATM    1  C   UNL     1      -9.620  14.159  68.389  1.00  0.00    -0.225 C  
HETATM    2  C   UNL     1      -9.877  12.648  68.499  1.00  0.00    -0.148 C  
HETATM    3  N   UNL     1      -9.622  11.919  67.249  1.00  0.00    -0.176 NA 
HETATM    4  C   UNL     1      -9.618  10.523  67.274  1.00  0.00    -0.163 C  
HETATM    5  C   UNL     1      -9.626   9.726  66.197  1.00  0.00    -0.287 C  
HETATM    6  C   UNL     1      -9.621  10.404  64.886  1.00  0.00    -0.289 C  
HETATM    7  C   UNL     1     -10.501  17.107  66.344  1.00  0.00    -0.255 C  
HETATM    8  C   UNL     1      -9.676  11.897  64.837  1.00  0.00    -0.137 C  
HETATM    9  C   UNL     1     -11.411  16.429  68.577  1.00  0.00    -0.289 C  
HETATM   10  O   UNL     1      -9.619   9.784  63.819  1.00  0.00    -0.156 OA 
HETATM   11  C   UNL     1     -11.029  15.932  67.184  1.00  0.00    -0.214 C  
HETATM   12  O   UNL     1     -10.044  14.683  64.890  1.00  0.00    -0.367 OA 
HETATM   13  C   UNL     1      -9.699  12.578  66.007  1.00  0.00    -0.241 C  
HETATM   14  O   UNL     1      -9.767  12.451  63.576  1.00  0.00    -0.653 OA 
HETATM   15  N   UNL     1     -10.200  14.717  67.179  1.00  0.00    -0.244 N  
HETATM   16  C   UNL     1      -9.952  14.081  65.956  1.00  0.00    -0.315 C  
HETATM   17  O   UNL     1     -10.162  14.699  69.596  1.00  0.00    -0.102 OA 
HETATM   18  H   UNL     1      -9.802  13.399  63.545  1.00  0.00     0.000 HD 
HETATM   19  C   UNL     1     -10.352  16.097  69.596  1.00  0.00    -0.271 C  
ENDROOT
BRANCH   5  20
HETATM   20  C   UNL     1      -9.673   8.249  66.383  1.00  0.00    -0.230 C  
HETATM   21  H   UNL     1     -11.363   8.450  67.548  1.00  0.00     0.000 HD 
HETATM   22  N   UNL     1     -10.730   7.778  67.114  1.00  0.00    -0.321 N  
HETATM   23  O   UNL     1      -8.802   7.513  65.902  1.00  0.00    -0.166 OA 
BRANCH  22  24
HETATM   24  C   UNL     1     -10.987   6.367  67.295  1.00  0.00    -0.392 C  
BRANCH  24  25
HETATM   25  C   UNL     1     -10.840   5.954  68.733  1.00  0.00    -0.353 A  
HETATM   26  C   UNL     1     -10.497   5.216  71.403  1.00  0.00    -0.179 A  
HETATM   27  F   UNL     1     -10.314   4.880  72.688  1.00  0.00    -0.206 F  
HETATM   28  C   UNL     1      -9.875   4.477  70.409  1.00  0.00    -0.302 A  
HETATM   29  C   UNL     1     -11.481   6.672  69.754  1.00  0.00    -0.388 A  
HETATM   30  C   UNL     1     -11.302   6.308  71.091  1.00  0.00    -0.364 A  
HETATM   31  C   UNL     1     -10.056   4.848  69.081  1.00  0.00    -0.159 A  
HETATM   32  F   UNL     1      -9.450   4.134  68.124  1.00  0.00    -0.165 F  
ENDBRANCH  24  25
ENDBRANCH  22  24
ENDBRANCH   5  20
TORSDOF 3
ENDMDL
MODEL       51
REMARK 921   NORMALIZED FREE ENERGY PREDICTED BY IDOCK:   -6.71 KCAL/MOL
REMARK 922        TOTAL FREE ENERGY PREDICTED BY IDOCK:   -8.21 KCAL/MOL
REMARK 923 INTER-LIGAND FREE ENERGY PREDICTED BY IDOCK:   -7.60 KCAL/MOL
REMARK 924 INTRA-LIGAND FREE ENERGY PREDICTED BY IDOCK:   -0.61 KCAL/MOL
REMARK 927      BINDING AFFINITY PREDICTED BY RF-SCORE:    0.00 PKD
ROOT
HETATM    1  C   UNL     1     -12.180  11.059  69.853  1.00  0.00    -0.336 C  
HETATM    2  C   UNL     1     -11.418  12.376  69.637  1.00  0.00    -0.194 C  
HETATM    3  N   UNL     1     -10.282  12.250  68.714  1.00  0.00    -0.157 NA 
HETATM    4  C   UNL     1      -9.641  13.410  68.276  1.00  0.00    -0.220 C  
HETATM    5  C   UNL     1      -8.470  13.453  67.624  1.00  0.00    -0.187 C  
HETATM    6  C   UNL     1      -7.834  12.151  67.344  1.00  0.00    -0.168 C  
HETATM    7  C   UNL     1     -11.649   7.524  70.790  1.00  0.00    -0.300 C  
HETATM    8  C   UNL     1      -8.479  10.900  67.849  1.00  0.00    -0.129 C  
HETATM    9  C   UNL     1     -12.517   9.400  72.205  1.00  0.00    -0.396 C  
HETATM   10  O   UNL     1      -6.760  12.053  66.744  1.00  0.00    -0.089 OA 
HETATM   11  C   UNL     1     -11.449   8.995  71.191  1.00  0.00    -0.308 C  
HETATM   12  O   UNL     1      -9.659   8.663  69.075  1.00  0.00    -0.159 OA 
HETATM   13  C   UNL     1      -9.648  11.007  68.525  1.00  0.00    -0.187 C  
HETATM   14  O   UNL     1      -7.774   9.734  67.630  1.00  0.00    -0.094 OA 
HETATM   15  N   UNL     1     -11.274   9.944  70.081  1.00  0.00    -0.271 N  
HETATM   16  C   UNL     1     -10.199   9.758  69.204  1.00  0.00    -0.199 C  
HETATM   17  O   UNL     1     -13.055  11.330  70.950  1.00  0.00    -0.211 OA 
HETATM   18  H   UNL     1      -8.185   8.940  67.951  1.00  0.00     0.000 HD 
HETATM   19  C   UNL     1     -13.624  10.194  71.560  1.00  0.00    -0.167 C  
ENDROOT
BRANCH   5  20
HETATM   20  C   UNL     1      -7.884  14.773  67.266  1.00  0.00    -0.194 C  
HETATM   21  H   UNL     1      -9.410  15.087  65.915  1.00  0.00     0.000 HD 
HETATM   22  N   UNL     1      -8.590  15.507  66.351  1.00  0.00    -0.295 N  
HETATM   23  O   UNL     1      -6.823  15.164  67.773  1.00  0.00    -0.138 OA 
BRANCH  22  24
HETATM   24  C   UNL     1      -8.220  16.854  65.978  1.00  0.00    -0.143 C  
BRANCH  24  25
HETATM   25  C   UNL     1      -8.865  17.876  66.873  1.00  0.00    -0.263 A  
HETATM   26  C   UNL     1     -10.104  19.718  68.565  1.00  0.00    -0.445 A  
HETATM   27  F   UNL     1     -10.705  20.584  69.394  1.00  0.00    -0.362 F  
HETATM   28  C   UNL     1     -10.795  19.236  67.464  1.00  0.00    -0.524 A  
HETATM   29  C   UNL     1      -8.176  18.398  67.978  1.00  0.00    -0.286 A  
HETATM   30  C   UNL     1      -8.799  19.314  68.830  1.00  0.00    -0.387 A  
HETATM   31  C   UNL     1     -10.167  18.322  66.623  1.00  0.00    -0.384 A  
HETATM   32  F   UNL     1     -10.840  17.855  65.564  1.00  0.00    -0.410 F  
ENDBRANCH  24  25
ENDBRANCH  22  24
ENDBRANCH   5  20
TORSDOF 3
ENDMDL
MODEL       52
REMARK 921   NORMALIZED FREE ENERGY PREDICTED BY IDOCK:   -6.68 KCAL/MOL
REMARK 922        TOTAL FREE ENERGY PREDICTED BY IDOCK:   -8.17 KCAL/MOL
REMARK 923 INTER-LIGAND FREE ENERGY PREDICTED BY IDOCK:   -7.86 KCAL/MOL
REMARK 924 INTRA-LIGAND FREE ENERGY PREDICTED BY IDOCK:   -0.32 KCAL/MOL
REMARK 927      BINDING AFFINITY PREDICTED BY RF-SCORE:    0.00 PKD
ROOT
HETATM    1  C   UNL     1     -11.325   8.072  70.252  1.00  0.00    -0.141 C  
HETATM    2  C   UNL     1     -11.290   9.536  70.718  1.00  0.00    -0.321 C  
HETATM    3  N   UNL     1     -11.492  10.501  69.627  1.00  0.00    -0.264 NA 
HETATM    4  C   UNL     1     -11.689  11.844  69.947  1.00  0.00    -0.308 C  
HETATM    5  C   UNL     1     -11.662  12.864  69.076  1.00  0.00    -0.375 C  
HETATM    6  C   UNL     1     -11.419  12.507  67.665  1.00  0.00    -0.334 C  
HETATM    7  C   UNL     1      -9.815   5.780  67.779  1.00  0.00    -0.144 C  
HETATM    8  C   UNL     1     -11.156  11.078  67.309  1.00  0.00    -0.294 C  
HETATM    9  C   UNL     1      -9.276   6.022  70.213  1.00  0.00    -0.166 C  
HETATM   10  O   UNL     1     -11.379  13.350  66.766  1.00  0.00    -0.305 OA 
HETATM   11  C   UNL     1      -9.555   6.781  68.917  1.00  0.00    -0.137 C  
HETATM   12  O   UNL     1     -10.422   8.410  66.822  1.00  0.00    -0.314 OA 
HETATM   13  C   UNL     1     -11.179  10.154  68.298  1.00  0.00    -0.183 C  
HETATM   14  O   UNL     1     -10.842  10.841  65.986  1.00  0.00    -0.156 OA 
HETATM   15  N   UNL     1     -10.535   7.870  69.049  1.00  0.00    -0.214 N  
HETATM   16  C   UNL     1     -10.720   8.738  67.967  1.00  0.00    -0.090 C  
HETATM   17  O   UNL     1     -10.861   7.330  71.383  1.00  0.00    -0.229 OA 
HETATM   18  H   UNL     1     -10.675   9.933  65.760  1.00  0.00     0.000 HD 
HETATM   19  C   UNL     1     -10.484   5.998  71.114  1.00  0.00    -0.230 C  
ENDROOT
BRANCH   5  20
HETATM   20  C   UNL     1     -11.838  14.254  69.577  1.00  0.00    -0.329 C  
HETATM   21  H   UNL     1     -10.015  14.778  68.767  1.00  0.00     0.000 HD 
HETATM   22  N   UNL     1     -10.840  15.133  69.250  1.00  0.00    -0.243 N  
HETATM   23  O   UNL     1     -12.829  14.576  70.246  1.00  0.00    -0.329 OA 
BRANCH  22  24
HETATM   24  C   UNL     1     -10.909  16.544  69.560  1.00  0.00    -0.315 C  
BRANCH  24  25
HETATM   25  C   UNL     1     -10.189  17.375  68.534  1.00  0.00    -0.369 A  
HETATM   26  C   UNL     1      -8.840  18.855  66.590  1.00  0.00    -0.316 A  
HETATM   27  F   UNL     1      -8.198  19.548  65.639  1.00  0.00    -0.286 F  
HETATM   28  C   UNL     1      -8.114  18.061  67.464  1.00  0.00    -0.231 A  
HETATM   29  C   UNL     1     -10.901  18.205  67.657  1.00  0.00    -0.260 A  
HETATM   30  C   UNL     1     -10.227  18.940  66.678  1.00  0.00    -0.462 A  
HETATM   31  C   UNL     1      -8.794  17.331  68.433  1.00  0.00    -0.269 A  
HETATM   32  F   UNL     1      -8.089  16.561  69.272  1.00  0.00    -0.242 F  
ENDBRANCH  24  25
ENDBRANCH  22  24
ENDBRANCH   5  20
TORSDOF 3
ENDMDL
MODEL       53
REMARK 921   NORMALIZED FREE ENERGY PREDICTED BY IDOCK:   -6.67 KCAL/MOL
REMARK 922        TOTAL FREE ENERGY PREDICTED BY IDOCK:   -8.16 KCAL/MOL
REMARK 923 INTER-LIGAND FREE ENERGY PREDICTED BY IDOCK:   -7.72 KCAL/MOL
REMARK 924 INTRA-LIGAND FREE ENERGY PREDICTED BY IDOCK:   -0.44 KCAL/MOL
REMARK 927      BINDING AFFINITY PREDICTED BY RF-SCORE:    0.00 PKD
ROOT
HETATM    1  C   UNL     1      -8.592   6.577  66.478  1.00  0.00    -0.123 C  
HETATM    2  C   UNL     1      -9.013   8.053  66.393  1.00  0.00    -0.169 C  
HETATM    3  N   UNL     1      -9.428   8.618  67.685  1.00  0.00    -0.139 NA 
HETATM    4  C   UNL     1      -9.634   9.994  67.781  1.00  0.00    -0.148 C  
HETATM    5  C   UNL     1     -10.221  10.624  68.809  1.00  0.00    -0.204 C  
HETATM    6  C   UNL     1     -10.663   9.769  69.928  1.00  0.00    -0.268 C  
HETATM    7  C   UNL     1      -9.777   3.289  67.677  1.00  0.00     0.002 C  
HETATM    8  C   UNL     1     -10.497   8.286  69.822  1.00  0.00    -0.220 C  
HETATM    9  C   UNL     1      -9.754   4.181  65.336  1.00  0.00    -0.201 C  
HETATM   10  O   UNL     1     -11.209  10.225  70.935  1.00  0.00    -0.336 OA 
HETATM   11  C   UNL     1     -10.079   4.510  66.792  1.00  0.00    -0.186 C  
HETATM   12  O   UNL     1     -10.364   5.514  69.381  1.00  0.00    -0.231 OA 
HETATM   13  C   UNL     1      -9.917   7.782  68.708  1.00  0.00    -0.176 C  
HETATM   14  O   UNL     1     -11.023   7.551  70.865  1.00  0.00    -0.244 OA 
HETATM   15  N   UNL     1      -9.533   5.793  67.261  1.00  0.00    -0.112 N  
HETATM   16  C   UNL     1      -9.927   6.269  68.517  1.00  0.00    -0.144 C  
HETATM   17  O   UNL     1      -8.482   6.161  65.115  1.00  0.00    -0.149 OA 
HETATM   18  H   UNL     1     -10.917   6.610  70.798  1.00  0.00     0.000 HD 
HETATM   19  C   UNL     1      -8.431   4.766  64.915  1.00  0.00    -0.140 C  
ENDROOT
BRANCH   5  20
HETATM   20  C   UNL     1     -10.417  12.098  68.744  1.00  0.00    -0.176 C  
HETATM   21  H   UNL     1     -12.446  11.841  69.007  1.00  0.00     0.000 HD 
HETATM   22  N   UNL     1     -11.703  12.533  68.924  1.00  0.00    -0.308 N  
HETATM   23  O   UNL     1      -9.467  12.865  68.538  1.00  0.00    -0.190 OA 
BRANCH  22  24
HETATM   24  C   UNL     1     -12.049  13.935  69.003  1.00  0.00    -0.329 C  
BRANCH  24  25
HETATM   25  C   UNL     1     -12.297  14.368  70.421  1.00  0.00    -0.406 A  
HETATM   26  C   UNL     1     -12.819  15.210  73.031  1.00  0.00    -0.468 A  
HETATM   27  F   UNL     1     -13.094  15.617  74.278  1.00  0.00    -0.527 F  
HETATM   28  C   UNL     1     -12.292  16.112  72.119  1.00  0.00    -0.503 A  
HETATM   29  C   UNL     1     -12.806  13.466  71.368  1.00  0.00    -0.420 A  
HETATM   30  C   UNL     1     -13.074  13.889  72.672  1.00  0.00    -0.525 A  
HETATM   31  C   UNL     1     -12.030  15.682  70.822  1.00  0.00    -0.398 A  
HETATM   32  F   UNL     1     -11.525  16.557  69.943  1.00  0.00    -0.285 F  
ENDBRANCH  24  25
ENDBRANCH  22  24
ENDBRANCH   5  20
TORSDOF 3
ENDMDL
MODEL       54
REMARK 921   NORMALIZED FREE ENERGY PREDICTED BY IDOCK:   -6.65 KCAL/MOL
REMARK 922        TOTAL FREE ENERGY PREDICTED BY IDOCK:   -8.14 KCAL/MOL
REMARK 923 INTER-LIGAND FREE ENERGY PREDICTED BY IDOCK:   -7.68 KCAL/MOL
REMARK 924 INTRA-LIGAND FREE ENERGY PREDICTED BY IDOCK:   -0.46 KCAL/MOL
REMARK 927      BINDING AFFINITY PREDICTED BY RF-SCORE:    0.00 PKD
ROOT
HETATM    1  C   UNL     1     -10.303  15.717  67.101  1.00  0.00    -0.291 C  
HETATM    2  C   UNL     1     -10.308  14.234  67.501  1.00  0.00    -0.248 C  
HETATM    3  N   UNL     1     -11.189  13.939  68.640  1.00  0.00    -0.255 NA 
HETATM    4  C   UNL     1     -11.440  12.605  68.967  1.00  0.00    -0.303 C  
HETATM    5  C   UNL     1     -12.027  12.178  70.093  1.00  0.00    -0.394 C  
HETATM    6  C   UNL     1     -12.450  13.225  71.044  1.00  0.00    -0.336 C  
HETATM    7  C   UNL     1      -9.820  19.099  68.510  1.00  0.00    -0.483 C  
HETATM    8  C   UNL     1     -12.144  14.655  70.736  1.00  0.00    -0.320 C  
HETATM    9  C   UNL     1      -8.209  17.719  67.178  1.00  0.00    -0.233 C  
HETATM   10  O   UNL     1     -13.008  12.964  72.112  1.00  0.00    -0.317 OA 
HETATM   11  C   UNL     1      -9.219  17.696  68.323  1.00  0.00    -0.283 C  
HETATM   12  O   UNL     1     -11.279  17.266  70.158  1.00  0.00     0.480 OA 
HETATM   13  C   UNL     1     -11.512  14.942  69.573  1.00  0.00    -0.297 C  
HETATM   14  O   UNL     1     -12.484  15.564  71.718  1.00  0.00    -0.339 OA 
HETATM   15  N   UNL     1     -10.185  16.588  68.259  1.00  0.00    -0.256 N  
HETATM   16  C   UNL     1     -11.030  16.372  69.354  1.00  0.00    -0.325 C  
HETATM   17  O   UNL     1      -9.219  15.831  66.175  1.00  0.00    -0.302 OA 
HETATM   18  H   UNL     1     -12.290  16.472  71.522  1.00  0.00     0.000 HD 
HETATM   19  C   UNL     1      -8.791  17.149  65.910  1.00  0.00     0.027 C  
ENDROOT
BRANCH   5  20
HETATM   20  C   UNL     1     -12.181  10.715  70.325  1.00  0.00    -0.334 C  
HETATM   21  H   UNL     1     -10.187  10.434  69.879  1.00  0.00     0.000 HD 
HETATM   22  N   UNL     1     -11.038   9.972  70.198  1.00  0.00    -0.288 N  
HETATM   23  O   UNL     1     -13.280  10.222  70.612  1.00  0.00    -0.354 OA 
BRANCH  22  24
HETATM   24  C   UNL     1     -10.989   8.558  70.498  1.00  0.00    -0.241 C  
BRANCH  24  25
HETATM   25  C   UNL     1     -10.606   7.746  69.292  1.00  0.00    -0.199 A  
HETATM   26  C   UNL     1      -9.967   6.235  67.033  1.00  0.00    -0.159 A  
HETATM   27  F   UNL     1      -9.682   5.517  65.937  1.00  0.00    -0.174 F  
HETATM   28  C   UNL     1     -10.528   5.607  68.134  1.00  0.00    -0.260 A  
HETATM   29  C   UNL     1     -10.013   8.357  68.176  1.00  0.00    -0.224 A  
HETATM   30  C   UNL     1      -9.701   7.602  67.043  1.00  0.00    -0.255 A  
HETATM   31  C   UNL     1     -10.838   6.367  69.258  1.00  0.00    -0.327 A  
HETATM   32  F   UNL     1     -11.384   5.757  70.318  1.00  0.00    -0.397 F  
ENDBRANCH  24  25
ENDBRANCH  22  24
ENDBRANCH   5  20
TORSDOF 3
ENDMDL
MODEL       55
REMARK 921   NORMALIZED FREE ENERGY PREDICTED BY IDOCK:   -6.65 KCAL/MOL
REMARK 922        TOTAL FREE ENERGY PREDICTED BY IDOCK:   -8.14 KCAL/MOL
REMARK 923 INTER-LIGAND FREE ENERGY PREDICTED BY IDOCK:   -7.54 KCAL/MOL
REMARK 924 INTRA-LIGAND FREE ENERGY PREDICTED BY IDOCK:   -0.59 KCAL/MOL
REMARK 927      BINDING AFFINITY PREDICTED BY RF-SCORE:    0.00 PKD
ROOT
HETATM    1  C   UNL     1      -7.632   8.770  67.454  1.00  0.00    -0.090 C  
HETATM    2  C   UNL     1      -7.710  10.078  66.650  1.00  0.00    -0.104 C  
HETATM    3  N   UNL     1      -8.812  10.956  67.069  1.00  0.00    -0.139 NA 
HETATM    4  C   UNL     1      -8.865  12.255  66.563  1.00  0.00    -0.128 C  
HETATM    5  C   UNL     1      -9.909  13.089  66.668  1.00  0.00    -0.252 C  
HETATM    6  C   UNL     1     -11.083  12.573  67.400  1.00  0.00    -0.272 C  
HETATM    7  C   UNL     1      -9.690   5.890  68.513  1.00  0.00    -0.151 C  
HETATM    8  C   UNL     1     -11.065  11.166  67.907  1.00  0.00    -0.273 C  
HETATM    9  C   UNL     1      -8.004   6.007  66.664  1.00  0.00    -0.102 C  
HETATM   10  O   UNL     1     -12.103  13.244  67.574  1.00  0.00    -0.343 OA 
HETATM   11  C   UNL     1      -9.177   6.726  67.328  1.00  0.00    -0.133 C  
HETATM   12  O   UNL     1     -10.999   8.437  68.572  1.00  0.00     0.014 OA 
HETATM   13  C   UNL     1      -9.953  10.422  67.699  1.00  0.00    -0.174 C  
HETATM   14  O   UNL     1     -12.234  10.728  68.494  1.00  0.00    -0.824 OA 
HETATM   15  N   UNL     1      -8.938   8.151  67.604  1.00  0.00    -0.132 N  
HETATM   16  C   UNL     1     -10.011   8.937  68.041  1.00  0.00    -0.178 C  
HETATM   17  O   UNL     1      -6.689   7.970  66.737  1.00  0.00    -0.061 OA 
HETATM   18  H   UNL     1     -12.223   9.835  68.816  1.00  0.00     0.000 HD 
HETATM   19  C   UNL     1      -6.682   6.601  67.076  1.00  0.00    -0.060 C  
ENDROOT
BRANCH   5  20
HETATM   20  C   UNL     1      -9.837  14.431  66.028  1.00  0.00    -0.319 C  
HETATM   21  H   UNL     1      -8.238  14.922  67.234  1.00  0.00     0.000 HD 
HETATM   22  N   UNL     1      -8.822  15.241  66.461  1.00  0.00    -0.296 N  
HETATM   23  O   UNL     1     -10.654  14.776  65.163  1.00  0.00    -0.360 OA 
BRANCH  22  24
HETATM   24  C   UNL     1      -8.542  16.529  65.867  1.00  0.00    -0.039 C  
BRANCH  24  25
HETATM   25  C   UNL     1      -9.079  17.657  66.704  1.00  0.00    -0.280 A  
HETATM   26  C   UNL     1     -10.127  19.703  68.286  1.00  0.00    -0.449 A  
HETATM   27  F   UNL     1     -10.641  20.669  69.062  1.00  0.00    -0.377 F  
HETATM   28  C   UNL     1     -10.803  19.318  67.139  1.00  0.00    -0.543 A  
HETATM   29  C   UNL     1      -8.398  18.081  67.855  1.00  0.00    -0.249 A  
HETATM   30  C   UNL     1      -8.927  19.100  68.652  1.00  0.00    -0.411 A  
HETATM   31  C   UNL     1     -10.270  18.301  66.353  1.00  0.00    -0.403 A  
HETATM   32  F   UNL     1     -10.928  17.928  65.248  1.00  0.00    -0.416 F  
ENDBRANCH  24  25
ENDBRANCH  22  24
ENDBRANCH   5  20
TORSDOF 3
ENDMDL
MODEL       56
REMARK 921   NORMALIZED FREE ENERGY PREDICTED BY IDOCK:   -6.60 KCAL/MOL
REMARK 922        TOTAL FREE ENERGY PREDICTED BY IDOCK:   -8.08 KCAL/MOL
REMARK 923 INTER-LIGAND FREE ENERGY PREDICTED BY IDOCK:   -7.98 KCAL/MOL
REMARK 924 INTRA-LIGAND FREE ENERGY PREDICTED BY IDOCK:   -0.11 KCAL/MOL
REMARK 927      BINDING AFFINITY PREDICTED BY RF-SCORE:    0.00 PKD
ROOT
HETATM    1  C   UNL     1      -9.073   6.987  67.360  1.00  0.00    -0.123 C  
HETATM    2  C   UNL     1      -9.903   8.265  67.562  1.00  0.00    -0.177 C  
HETATM    3  N   UNL     1     -10.388   8.435  68.940  1.00  0.00    -0.218 NA 
HETATM    4  C   UNL     1     -10.973   9.649  69.300  1.00  0.00    -0.168 C  
HETATM    5  C   UNL     1     -11.657   9.878  70.431  1.00  0.00    -0.356 C  
HETATM    6  C   UNL     1     -11.771   8.740  71.363  1.00  0.00    -0.305 C  
HETATM    7  C   UNL     1      -9.197   3.334  67.901  1.00  0.00    -0.242 C  
HETATM    8  C   UNL     1     -11.194   7.417  70.973  1.00  0.00    -0.264 C  
HETATM    9  C   UNL     1      -9.564   4.610  65.777  1.00  0.00    -0.190 C  
HETATM   10  O   UNL     1     -12.366   8.823  72.440  1.00  0.00    -0.378 OA 
HETATM   11  C   UNL     1      -9.886   4.555  67.269  1.00  0.00    -0.175 C  
HETATM   12  O   UNL     1     -10.299   4.935  70.004  1.00  0.00    -0.268 OA 
HETATM   13  C   UNL     1     -10.558   7.319  69.782  1.00  0.00    -0.235 C  
HETATM   14  O   UNL     1     -11.427   6.380  71.854  1.00  0.00    -0.275 OA 
HETATM   15  N   UNL     1      -9.704   5.832  67.977  1.00  0.00    -0.119 N  
HETATM   16  C   UNL     1     -10.146   5.931  69.302  1.00  0.00    -0.194 C  
HETATM   17  O   UNL     1      -8.926   6.881  65.942  1.00  0.00    -0.145 OA 
HETATM   18  H   UNL     1     -11.060   5.540  71.606  1.00  0.00     0.000 HD 
HETATM   19  C   UNL     1      -8.490   5.623  65.476  1.00  0.00    -0.146 C  
ENDROOT
BRANCH   5  20
HETATM   20  C   UNL     1     -12.270  11.216  70.653  1.00  0.00    -0.397 C  
HETATM   21  H   UNL     1     -10.982  12.039  69.269  1.00  0.00     0.000 HD 
HETATM   22  N   UNL     1     -11.777  12.231  69.878  1.00  0.00    -0.301 N  
HETATM   23  O   UNL     1     -13.167  11.381  71.491  1.00  0.00    -0.373 OA 
BRANCH  22  24
HETATM   24  C   UNL     1     -12.336  13.564  69.887  1.00  0.00    -0.224 C  
BRANCH  24  25
HETATM   25  C   UNL     1     -11.725  14.432  68.822  1.00  0.00    -0.372 A  
HETATM   26  C   UNL     1     -10.660  16.065  66.825  1.00  0.00    -0.297 A  
HETATM   27  F   UNL     1     -10.169  16.863  65.866  1.00  0.00    -0.317 F  
HETATM   28  C   UNL     1     -11.268  14.870  66.472  1.00  0.00    -0.335 A  
HETATM   29  C   UNL     1     -11.081  15.632  69.158  1.00  0.00    -0.284 A  
HETATM   30  C   UNL     1     -10.555  16.454  68.157  1.00  0.00    -0.318 A  
HETATM   31  C   UNL     1     -11.791  14.060  67.475  1.00  0.00    -0.407 A  
HETATM   32  F   UNL     1     -12.383  12.909  67.130  1.00  0.00    -0.373 F  
ENDBRANCH  24  25
ENDBRANCH  22  24
ENDBRANCH   5  20
TORSDOF 3
ENDMDL
MODEL       57
REMARK 921   NORMALIZED FREE ENERGY PREDICTED BY IDOCK:   -6.57 KCAL/MOL
REMARK 922        TOTAL FREE ENERGY PREDICTED BY IDOCK:   -8.05 KCAL/MOL
REMARK 923 INTER-LIGAND FREE ENERGY PREDICTED BY IDOCK:   -8.15 KCAL/MOL
REMARK 924 INTRA-LIGAND FREE ENERGY PREDICTED BY IDOCK:    0.11 KCAL/MOL
REMARK 927      BINDING AFFINITY PREDICTED BY RF-SCORE:    0.00 PKD
ROOT
HETATM    1  C   UNL     1     -11.361   6.728  72.245  1.00  0.00    -0.273 C  
HETATM    2  C   UNL     1     -11.467   8.239  72.507  1.00  0.00    -0.384 C  
HETATM    3  N   UNL     1     -11.718   9.026  71.292  1.00  0.00    -0.293 NA 
HETATM    4  C   UNL     1     -12.040  10.378  71.422  1.00  0.00    -0.327 C  
HETATM    5  C   UNL     1     -12.075  11.270  70.421  1.00  0.00    -0.474 C  
HETATM    6  C   UNL     1     -11.759  10.750  69.076  1.00  0.00    -0.286 C  
HETATM    7  C   UNL     1      -9.585   4.270  70.134  1.00  0.00    -0.269 C  
HETATM    8  C   UNL     1     -11.364   9.316  68.923  1.00  0.00     0.331 C  
HETATM    9  C   UNL     1      -9.143   4.883  72.522  1.00  0.00    -0.145 C  
HETATM   10  O   UNL     1     -11.765  11.465  68.071  1.00  0.00    -0.484 OA 
HETATM   11  C   UNL     1      -9.447   5.434  71.130  1.00  0.00    -0.156 C  
HETATM   12  O   UNL     1     -10.388   6.683  68.817  1.00  0.00    -0.170 OA 
HETATM   13  C   UNL     1     -11.337   8.535  70.028  1.00  0.00    -0.007 C  
HETATM   14  O   UNL     1     -10.991   8.932  67.651  1.00  0.00    -0.493 OA 
HETATM   15  N   UNL     1     -10.521   6.438  71.095  1.00  0.00    -0.216 N  
HETATM   16  C   UNL     1     -10.748   7.134  69.901  1.00  0.00    -0.239 C  
HETATM   17  O   UNL     1     -10.869   6.190  73.474  1.00  0.00    -0.258 OA 
HETATM   18  H   UNL     1     -10.740   8.021  67.554  1.00  0.00     0.000 HD 
HETATM   19  C   UNL     1     -10.371   4.872  73.396  1.00  0.00    -0.192 C  
ENDROOT
BRANCH   5  20
HETATM   20  C   UNL     1     -12.385  12.694  70.725  1.00  0.00    -0.283 C  
HETATM   21  H   UNL     1     -11.085  13.294  69.241  1.00  0.00     0.000 HD 
HETATM   22  N   UNL     1     -11.768  13.618  69.925  1.00  0.00    -0.289 N  
HETATM   23  O   UNL     1     -13.153  13.002  71.646  1.00  0.00    -0.392 OA 
BRANCH  22  24
HETATM   24  C   UNL     1     -12.045  15.035  70.012  1.00  0.00    -0.337 C  
BRANCH  24  25
HETATM   25  C   UNL     1     -11.324  15.809  68.943  1.00  0.00    -0.356 A  
HETATM   26  C   UNL     1     -10.051  17.276  66.938  1.00  0.00    -0.304 A  
HETATM   27  F   UNL     1      -9.459  17.997  65.975  1.00  0.00    -0.276 F  
HETATM   28  C   UNL     1     -10.779  16.146  66.596  1.00  0.00    -0.226 A  
HETATM   29  C   UNL     1     -10.561  16.940  69.270  1.00  0.00    -0.325 A  
HETATM   30  C   UNL     1      -9.931  17.679  68.265  1.00  0.00    -0.339 A  
HETATM   31  C   UNL     1     -11.404  15.418  67.602  1.00  0.00    -0.290 A  
HETATM   32  F   UNL     1     -12.110  14.330  67.267  1.00  0.00    -0.401 F  
ENDBRANCH  24  25
ENDBRANCH  22  24
ENDBRANCH   5  20
TORSDOF 3
ENDMDL
MODEL       58
REMARK 921   NORMALIZED FREE ENERGY PREDICTED BY IDOCK:   -6.57 KCAL/MOL
REMARK 922        TOTAL FREE ENERGY PREDICTED BY IDOCK:   -8.04 KCAL/MOL
REMARK 923 INTER-LIGAND FREE ENERGY PREDICTED BY IDOCK:   -7.72 KCAL/MOL
REMARK 924 INTRA-LIGAND FREE ENERGY PREDICTED BY IDOCK:   -0.32 KCAL/MOL
REMARK 927      BINDING AFFINITY PREDICTED BY RF-SCORE:    0.00 PKD
ROOT
HETATM    1  C   UNL     1     -11.074   5.231  72.817  1.00  0.00    -0.286 C  
HETATM    2  C   UNL     1     -11.063   6.756  72.629  1.00  0.00    -0.265 C  
HETATM    3  N   UNL     1     -11.111   7.171  71.219  1.00  0.00    -0.245 NA 
HETATM    4  C   UNL     1     -11.315   8.520  70.923  1.00  0.00    -0.268 C  
HETATM    5  C   UNL     1     -11.161   9.083  69.716  1.00  0.00    -0.117 C  
HETATM    6  C   UNL     1     -10.758   8.177  68.623  1.00  0.00    -0.025 C  
HETATM    7  C   UNL     1      -9.328   2.163  71.724  1.00  0.00    -0.176 C  
HETATM    8  C   UNL     1     -10.486   6.740  68.930  1.00  0.00    -0.207 C  
HETATM    9  C   UNL     1      -9.081   3.415  73.880  1.00  0.00    -0.094 C  
HETATM   10  O   UNL     1     -10.591   8.569  67.465  1.00  0.00    -0.256 OA 
HETATM   11  C   UNL     1      -9.185   3.555  72.363  1.00  0.00    -0.103 C  
HETATM   12  O   UNL     1      -9.757   4.134  69.692  1.00  0.00    -0.204 OA 
HETATM   13  C   UNL     1     -10.648   6.312  70.204  1.00  0.00    -0.248 C  
HETATM   14  O   UNL     1     -10.020   5.981  67.874  1.00  0.00    -0.118 OA 
HETATM   15  N   UNL     1     -10.149   4.570  71.911  1.00  0.00    -0.190 N  
HETATM   16  C   UNL     1     -10.184   4.901  70.551  1.00  0.00    -0.218 C  
HETATM   17  O   UNL     1     -10.766   5.043  74.200  1.00  0.00    -0.289 OA 
HETATM   18  H   UNL     1      -9.848   5.068  68.070  1.00  0.00     0.000 HD 
HETATM   19  C   UNL     1     -10.389   3.732  74.559  1.00  0.00    -0.213 C  
ENDROOT
BRANCH   5  20
HETATM   20  C   UNL     1     -11.365  10.550  69.566  1.00  0.00    -0.278 C  
HETATM   21  H   UNL     1      -9.625  10.681  68.467  1.00  0.00     0.000 HD 
HETATM   22  N   UNL     1     -10.431  11.204  68.808  1.00  0.00    -0.196 N  
HETATM   23  O   UNL     1     -12.323  11.124  70.101  1.00  0.00    -0.304 OA 
BRANCH  22  24
HETATM   24  C   UNL     1     -10.542  12.605  68.470  1.00  0.00    -0.243 C  
BRANCH  24  25
HETATM   25  C   UNL     1     -11.059  12.801  67.071  1.00  0.00    -0.316 A  
HETATM   26  C   UNL     1     -11.975  13.227  64.469  1.00  0.00    -0.400 A  
HETATM   27  F   UNL     1     -12.394  13.444  63.214  1.00  0.00    -0.580 F  
HETATM   28  C   UNL     1     -12.440  14.037  65.494  1.00  0.00    -0.533 A  
HETATM   29  C   UNL     1     -10.622  11.977  66.024  1.00  0.00    -0.303 A  
HETATM   30  C   UNL     1     -11.075  12.195  64.720  1.00  0.00    -0.364 A  
HETATM   31  C   UNL     1     -11.983  13.814  66.789  1.00  0.00    -0.426 A  
HETATM   32  F   UNL     1     -12.430  14.602  67.775  1.00  0.00    -0.255 F  
ENDBRANCH  24  25
ENDBRANCH  22  24
ENDBRANCH   5  20
TORSDOF 3
ENDMDL
MODEL       59
REMARK 921   NORMALIZED FREE ENERGY PREDICTED BY IDOCK:   -6.55 KCAL/MOL
REMARK 922        TOTAL FREE ENERGY PREDICTED BY IDOCK:   -8.02 KCAL/MOL
REMARK 923 INTER-LIGAND FREE ENERGY PREDICTED BY IDOCK:   -7.65 KCAL/MOL
REMARK 924 INTRA-LIGAND FREE ENERGY PREDICTED BY IDOCK:   -0.37 KCAL/MOL
REMARK 927      BINDING AFFINITY PREDICTED BY RF-SCORE:    0.00 PKD
ROOT
HETATM    1  C   UNL     1      -8.709   8.171  65.786  1.00  0.00    -0.154 C  
HETATM    2  C   UNL     1      -9.108   9.463  65.056  1.00  0.00    -0.215 C  
HETATM    3  N   UNL     1      -9.758  10.451  65.929  1.00  0.00    -0.203 NA 
HETATM    4  C   UNL     1      -9.980  11.738  65.439  1.00  0.00    -0.253 C  
HETATM    5  C   UNL     1     -10.749  12.670  66.018  1.00  0.00    -0.295 C  
HETATM    6  C   UNL     1     -11.392  12.284  67.290  1.00  0.00    -0.328 C  
HETATM    7  C   UNL     1     -10.093   5.524  67.960  1.00  0.00    -0.221 C  
HETATM    8  C   UNL     1     -11.208  10.893  67.806  1.00  0.00    -0.317 C  
HETATM    9  C   UNL     1      -9.634   5.440  65.499  1.00  0.00     0.040 C  
HETATM   10  O   UNL     1     -12.117  13.052  67.926  1.00  0.00    -0.321 OA 
HETATM   11  C   UNL     1     -10.226   6.281  66.629  1.00  0.00    -0.164 C  
HETATM   12  O   UNL     1     -10.991   8.184  68.523  1.00  0.00     0.026 OA 
HETATM   13  C   UNL     1     -10.429  10.042  67.098  1.00  0.00    -0.244 C  
HETATM   14  O   UNL     1     -11.918  10.581  68.948  1.00  0.00    -0.614 OA 
HETATM   15  N   UNL     1      -9.778   7.683  66.641  1.00  0.00    -0.214 N  
HETATM   16  C   UNL     1     -10.401   8.576  67.520  1.00  0.00    -0.267 C  
HETATM   17  O   UNL     1      -8.345   7.270  64.738  1.00  0.00    -0.093 OA 
HETATM   18  H   UNL     1     -11.801   9.697  69.276  1.00  0.00     0.000 HD 
HETATM   19  C   UNL     1      -8.256   5.914  65.115  1.00  0.00    -0.141 C  
ENDROOT
BRANCH   5  20
HETATM   20  C   UNL     1     -10.932  13.986  65.346  1.00  0.00    -0.321 C  
HETATM   21  H   UNL     1     -10.236  14.946  67.032  1.00  0.00     0.000 HD 
HETATM   22  N   UNL     1     -10.543  15.081  66.069  1.00  0.00    -0.308 N  
HETATM   23  O   UNL     1     -11.409  14.064  64.205  1.00  0.00    -0.351 OA 
BRANCH  22  24
HETATM   24  C   UNL     1     -10.548  16.420  65.524  1.00  0.00    -0.330 C  
BRANCH  24  25
HETATM   25  C   UNL     1      -9.634  17.336  66.289  1.00  0.00    -0.268 A  
HETATM   26  C   UNL     1      -7.982  19.030  67.770  1.00  0.00    -0.263 A  
HETATM   27  F   UNL     1      -7.197  19.832  68.503  1.00  0.00    -0.323 F  
HETATM   28  C   UNL     1      -9.198  19.505  67.305  1.00  0.00    -0.391 A  
HETATM   29  C   UNL     1      -8.387  16.885  66.748  1.00  0.00    -0.269 A  
HETATM   30  C   UNL     1      -7.564  17.730  67.496  1.00  0.00    -0.214 A  
HETATM   31  C   UNL     1     -10.012  18.655  66.562  1.00  0.00    -0.380 A  
HETATM   32  F   UNL     1     -11.189  19.116  66.118  1.00  0.00    -0.248 F  
ENDBRANCH  24  25
ENDBRANCH  22  24
ENDBRANCH   5  20
TORSDOF 3
ENDMDL
MODEL       60
REMARK 921   NORMALIZED FREE ENERGY PREDICTED BY IDOCK:   -6.52 KCAL/MOL
REMARK 922        TOTAL FREE ENERGY PREDICTED BY IDOCK:   -7.99 KCAL/MOL
REMARK 923 INTER-LIGAND FREE ENERGY PREDICTED BY IDOCK:   -7.47 KCAL/MOL
REMARK 924 INTRA-LIGAND FREE ENERGY PREDICTED BY IDOCK:   -0.52 KCAL/MOL
REMARK 927      BINDING AFFINITY PREDICTED BY RF-SCORE:    0.00 PKD
ROOT
HETATM    1  C   UNL     1      -9.862  17.539  68.301  1.00  0.00    -0.319 C  
HETATM    2  C   UNL     1     -10.778  16.306  68.353  1.00  0.00    -0.311 C  
HETATM    3  N   UNL     1     -10.045  15.032  68.315  1.00  0.00    -0.219 NA 
HETATM    4  C   UNL     1     -10.743  13.849  68.563  1.00  0.00    -0.257 C  
HETATM    5  C   UNL     1     -10.276  12.611  68.346  1.00  0.00    -0.233 C  
HETATM    6  C   UNL     1      -8.902  12.518  67.817  1.00  0.00    -0.178 C  
HETATM    7  C   UNL     1      -7.119  19.032  66.326  1.00  0.00    -0.263 C  
HETATM    8  C   UNL     1      -8.157  13.774  67.497  1.00  0.00    -0.185 C  
HETATM    9  C   UNL     1      -9.554  19.619  66.307  1.00  0.00    -0.488 C  
HETATM   10  O   UNL     1      -8.354  11.438  67.583  1.00  0.00    -0.123 OA 
HETATM   11  C   UNL     1      -8.550  18.468  66.302  1.00  0.00    -0.205 C  
HETATM   12  O   UNL     1      -6.976  16.197  66.698  1.00  0.00    -0.211 OA 
HETATM   13  C   UNL     1      -8.765  14.960  67.734  1.00  0.00    -0.167 C  
HETATM   14  O   UNL     1      -6.917  13.602  66.915  1.00  0.00    -0.341 OA 
HETATM   15  N   UNL     1      -8.837  17.407  67.279  1.00  0.00    -0.228 N  
HETATM   16  C   UNL     1      -8.084  16.228  67.227  1.00  0.00    -0.176 C  
HETATM   17  O   UNL     1     -10.755  18.635  68.090  1.00  0.00    -0.300 OA 
HETATM   18  H   UNL     1      -6.444  14.400  66.712  1.00  0.00     0.000 HD 
HETATM   19  C   UNL     1     -10.144  19.837  67.676  1.00  0.00    -0.417 C  
ENDROOT
BRANCH   5  20
HETATM   20  C   UNL     1     -11.160  11.443  68.612  1.00  0.00    -0.236 C  
HETATM   21  H   UNL     1     -10.142  11.070  70.366  1.00  0.00     0.000 HD 
HETATM   22  N   UNL     1     -10.934  10.784  69.790  1.00  0.00    -0.261 N  
HETATM   23  O   UNL     1     -12.036  11.104  67.805  1.00  0.00    -0.630 OA 
BRANCH  22  24
HETATM   24  C   UNL     1     -11.772   9.701  70.253  1.00  0.00    -0.155 C  
BRANCH  24  25
HETATM   25  C   UNL     1     -11.019   8.400  70.312  1.00  0.00    -0.236 A  
HETATM   26  C   UNL     1      -9.663   5.967  70.481  1.00  0.00    -0.175 A  
HETATM   27  F   UNL     1      -9.031   4.788  70.574  1.00  0.00    -0.119 F  
HETATM   28  C   UNL     1      -9.379   6.968  71.397  1.00  0.00    -0.155 A  
HETATM   29  C   UNL     1     -11.272   7.383  69.379  1.00  0.00     0.034 A  
HETATM   30  C   UNL     1     -10.599   6.162  69.469  1.00  0.00    -0.350 A  
HETATM   31  C   UNL     1     -10.055   8.179  71.301  1.00  0.00    -0.195 A  
HETATM   32  F   UNL     1      -9.781   9.142  72.191  1.00  0.00    -0.368 F  
ENDBRANCH  24  25
ENDBRANCH  22  24
ENDBRANCH   5  20
TORSDOF 3
ENDMDL
MODEL       61
REMARK 921   NORMALIZED FREE ENERGY PREDICTED BY IDOCK:   -6.51 KCAL/MOL
REMARK 922        TOTAL FREE ENERGY PREDICTED BY IDOCK:   -7.98 KCAL/MOL
REMARK 923 INTER-LIGAND FREE ENERGY PREDICTED BY IDOCK:   -7.52 KCAL/MOL
REMARK 924 INTRA-LIGAND FREE ENERGY PREDICTED BY IDOCK:   -0.46 KCAL/MOL
REMARK 927      BINDING AFFINITY PREDICTED BY RF-SCORE:    0.00 PKD
ROOT
HETATM    1  C   UNL     1      -8.463   7.610  66.533  1.00  0.00    -0.133 C  
HETATM    2  C   UNL     1      -9.173   8.881  67.026  1.00  0.00    -0.137 C  
HETATM    3  N   UNL     1      -9.744   9.690  65.940  1.00  0.00    -0.257 NA 
HETATM    4  C   UNL     1     -10.588  10.752  66.266  1.00  0.00    -0.192 C  
HETATM    5  C   UNL     1     -11.000  11.707  65.419  1.00  0.00    -0.328 C  
HETATM    6  C   UNL     1     -10.521  11.592  64.028  1.00  0.00    -0.367 C  
HETATM    7  C   UNL     1      -5.871   6.475  64.157  1.00  0.00    -0.030 C  
HETATM    8  C   UNL     1      -9.576  10.490  63.670  1.00  0.00    -0.320 C  
HETATM    9  C   UNL     1      -5.681   6.806  66.633  1.00  0.00    -0.018 C  
HETATM   10  O   UNL     1     -10.835  12.401  63.151  1.00  0.00    -0.362 OA 
HETATM   11  C   UNL     1      -6.204   7.410  65.332  1.00  0.00    -0.038 C  
HETATM   12  O   UNL     1      -7.610   8.538  63.200  1.00  0.00    -0.104 OA 
HETATM   13  C   UNL     1      -9.215   9.614  64.637  1.00  0.00    -0.234 C  
HETATM   14  O   UNL     1      -9.099  10.510  62.375  1.00  0.00    -0.237 OA 
HETATM   15  N   UNL     1      -7.596   7.883  65.399  1.00  0.00    -0.080 N  
HETATM   16  C   UNL     1      -8.106   8.616  64.320  1.00  0.00    -0.158 C  
HETATM   17  O   UNL     1      -7.774   7.120  67.686  1.00  0.00    -0.107 OA 
HETATM   18  H   UNL     1      -8.499   9.810  62.148  1.00  0.00     0.000 HD 
HETATM   19  C   UNL     1      -6.782   6.151  67.426  1.00  0.00    -0.061 C  
ENDROOT
BRANCH   5  20
HETATM   20  C   UNL     1     -11.861  12.810  65.928  1.00  0.00    -0.437 C  
HETATM   21  H   UNL     1     -10.434  13.272  67.344  1.00  0.00     0.000 HD 
HETATM   22  N   UNL     1     -11.329  13.556  66.945  1.00  0.00    -0.315 N  
HETATM   23  O   UNL     1     -12.983  13.021  65.450  1.00  0.00    -0.626 OA 
BRANCH  22  24
HETATM   24  C   UNL     1     -11.983  14.730  67.477  1.00  0.00    -0.210 C  
BRANCH  24  25
HETATM   25  C   UNL     1     -11.921  14.769  68.979  1.00  0.00    -0.308 A  
HETATM   26  C   UNL     1     -11.870  14.880  71.768  1.00  0.00    -0.356 A  
HETATM   27  F   UNL     1     -11.871  14.936  73.107  1.00  0.00    -0.411 F  
HETATM   28  C   UNL     1     -11.561  16.017  71.037  1.00  0.00    -0.472 A  
HETATM   29  C   UNL     1     -12.205  13.624  69.738  1.00  0.00    -0.350 A  
HETATM   30  C   UNL     1     -12.188  13.682  71.134  1.00  0.00    -0.326 A  
HETATM   31  C   UNL     1     -11.583  15.951  69.648  1.00  0.00    -0.336 A  
HETATM   32  F   UNL     1     -11.288  17.053  68.946  1.00  0.00    -0.208 F  
ENDBRANCH  24  25
ENDBRANCH  22  24
ENDBRANCH   5  20
TORSDOF 3
ENDMDL
MODEL       62
REMARK 921   NORMALIZED FREE ENERGY PREDICTED BY IDOCK:   -6.50 KCAL/MOL
REMARK 922        TOTAL FREE ENERGY PREDICTED BY IDOCK:   -7.97 KCAL/MOL
REMARK 923 INTER-LIGAND FREE ENERGY PREDICTED BY IDOCK:   -7.50 KCAL/MOL
REMARK 924 INTRA-LIGAND FREE ENERGY PREDICTED BY IDOCK:   -0.47 KCAL/MOL
REMARK 927      BINDING AFFINITY PREDICTED BY RF-SCORE:    0.00 PKD
ROOT
HETATM    1  C   UNL     1      -9.137   9.527  68.897  1.00  0.00    -0.141 C  
HETATM    2  C   UNL     1      -9.333  11.024  68.610  1.00  0.00    -0.194 C  
HETATM    3  N   UNL     1      -9.930  11.295  67.295  1.00  0.00    -0.182 NA 
HETATM    4  C   UNL     1     -10.348  12.593  67.001  1.00  0.00    -0.232 C  
HETATM    5  C   UNL     1     -10.698  13.042  65.787  1.00  0.00    -0.291 C  
HETATM    6  C   UNL     1     -10.644  12.057  64.689  1.00  0.00    -0.307 C  
HETATM    7  C   UNL     1      -7.645   6.471  67.453  1.00  0.00    -0.100 C  
HETATM    8  C   UNL     1     -10.150  10.675  64.974  1.00  0.00    -0.321 C  
HETATM    9  C   UNL     1      -6.739   7.942  69.267  1.00  0.00    -0.044 C  
HETATM   10  O   UNL     1     -10.949  12.341  63.529  1.00  0.00    -0.425 OA 
HETATM   11  C   UNL     1      -7.403   7.925  67.892  1.00  0.00    -0.092 C  
HETATM   12  O   UNL     1      -8.963   8.204  65.593  1.00  0.00    -0.158 OA 
HETATM   13  C   UNL     1      -9.796  10.367  66.244  1.00  0.00    -0.218 C  
HETATM   14  O   UNL     1     -10.038   9.843  63.878  1.00  0.00    -0.437 OA 
HETATM   15  N   UNL     1      -8.553   8.833  67.761  1.00  0.00    -0.129 N  
HETATM   16  C   UNL     1      -9.113   9.026  66.492  1.00  0.00    -0.163 C  
HETATM   17  O   UNL     1      -8.328   9.495  70.075  1.00  0.00    -0.142 OA 
HETATM   18  H   UNL     1      -9.724   8.965  64.059  1.00  0.00     0.000 HD 
HETATM   19  C   UNL     1      -7.730   8.250  70.360  1.00  0.00    -0.084 C  
ENDROOT
BRANCH   5  20
HETATM   20  C   UNL     1     -11.074  14.473  65.620  1.00  0.00    -0.327 C  
HETATM   21  H   UNL     1      -9.168  15.039  66.168  1.00  0.00     0.000 HD 
HETATM   22  N   UNL     1     -10.070  15.378  65.834  1.00  0.00    -0.318 N  
HETATM   23  O   UNL     1     -12.227  14.802  65.309  1.00  0.00    -0.277 OA 
BRANCH  22  24
HETATM   24  C   UNL     1     -10.235  16.797  65.605  1.00  0.00    -0.236 C  
BRANCH  24  25
HETATM   25  C   UNL     1      -9.404  17.614  66.555  1.00  0.00    -0.286 A  
HETATM   26  C   UNL     1      -7.918  19.127  68.370  1.00  0.00    -0.341 A  
HETATM   27  F   UNL     1      -7.217  19.844  69.260  1.00  0.00    -0.373 F  
HETATM   28  C   UNL     1      -8.976  19.719  67.699  1.00  0.00    -0.402 A  
HETATM   29  C   UNL     1      -8.313  17.043  67.226  1.00  0.00    -0.204 A  
HETATM   30  C   UNL     1      -7.574  17.798  68.140  1.00  0.00    -0.250 A  
HETATM   31  C   UNL     1      -9.708  18.959  66.792  1.00  0.00    -0.327 A  
HETATM   32  F   UNL     1     -10.733  19.534  66.149  1.00  0.00    -0.499 F  
ENDBRANCH  24  25
ENDBRANCH  22  24
ENDBRANCH   5  20
TORSDOF 3
ENDMDL
MODEL       63
REMARK 921   NORMALIZED FREE ENERGY PREDICTED BY IDOCK:   -6.50 KCAL/MOL
REMARK 922        TOTAL FREE ENERGY PREDICTED BY IDOCK:   -7.96 KCAL/MOL
REMARK 923 INTER-LIGAND FREE ENERGY PREDICTED BY IDOCK:   -7.51 KCAL/MOL
REMARK 924 INTRA-LIGAND FREE ENERGY PREDICTED BY IDOCK:   -0.45 KCAL/MOL
REMARK 927      BINDING AFFINITY PREDICTED BY RF-SCORE:    0.00 PKD
ROOT
HETATM    1  C   UNL     1      -9.846  17.535  68.502  1.00  0.00    -0.330 C  
HETATM    2  C   UNL     1     -10.344  16.184  67.964  1.00  0.00    -0.271 C  
HETATM    3  N   UNL     1      -9.434  15.068  68.256  1.00  0.00    -0.192 NA 
HETATM    4  C   UNL     1      -9.867  13.765  68.005  1.00  0.00    -0.239 C  
HETATM    5  C   UNL     1      -9.089  12.673  68.004  1.00  0.00    -0.207 C  
HETATM    6  C   UNL     1      -7.662  12.891  68.313  1.00  0.00    -0.137 C  
HETATM    7  C   UNL     1      -6.900  19.764  68.459  1.00  0.00    -0.346 C  
HETATM    8  C   UNL     1      -7.169  14.285  68.534  1.00  0.00    -0.118 C  
HETATM    9  C   UNL     1      -9.021  19.956  67.140  1.00  0.00    -0.425 C  
HETATM   10  O   UNL     1      -6.844  11.969  68.352  1.00  0.00    -0.062 OA 
HETATM   11  C   UNL     1      -7.932  18.996  67.616  1.00  0.00    -0.259 C  
HETATM   12  O   UNL     1      -6.333  16.965  68.670  1.00  0.00    -0.150 OA 
HETATM   13  C   UNL     1      -8.062  15.301  68.472  1.00  0.00    -0.143 C  
HETATM   14  O   UNL     1      -5.807  14.414  68.721  1.00  0.00    -0.081 OA 
HETATM   15  N   UNL     1      -8.439  17.747  68.206  1.00  0.00    -0.269 N  
HETATM   16  C   UNL     1      -7.526  16.729  68.503  1.00  0.00    -0.213 C  
HETATM   17  O   UNL     1     -10.718  18.497  67.903  1.00  0.00    -0.385 OA 
HETATM   18  H   UNL     1      -5.494  15.300  68.862  1.00  0.00     0.000 HD 
HETATM   19  C   UNL     1     -10.273  19.834  67.970  1.00  0.00    -0.451 C  
ENDROOT
BRANCH   5  20
HETATM   20  C   UNL     1      -9.687  11.353  67.666  1.00  0.00    -0.172 C  
HETATM   21  H   UNL     1      -9.456  10.746  69.623  1.00  0.00     0.000 HD 
HETATM   22  N   UNL     1      -9.832  10.482  68.712  1.00  0.00    -0.178 N  
HETATM   23  O   UNL     1     -10.025  11.078  66.506  1.00  0.00    -0.200 OA 
BRANCH  22  24
HETATM   24  C   UNL     1     -10.495   9.204  68.579  1.00  0.00    -0.204 C  
BRANCH  24  25
HETATM   25  C   UNL     1     -10.666   8.525  69.910  1.00  0.00    -0.224 A  
HETATM   26  C   UNL     1     -10.921   7.223  72.366  1.00  0.00    -0.267 A  
HETATM   27  F   UNL     1     -11.019   6.593  73.545  1.00  0.00    -0.278 F  
HETATM   28  C   UNL     1     -11.263   6.551  71.203  1.00  0.00    -0.353 A  
HETATM   29  C   UNL     1     -10.351   9.194  71.102  1.00  0.00    -0.387 A  
HETATM   30  C   UNL     1     -10.471   8.540  72.331  1.00  0.00    -0.367 A  
HETATM   31  C   UNL     1     -11.138   7.210  69.983  1.00  0.00    -0.258 A  
HETATM   32  F   UNL     1     -11.465   6.556  68.861  1.00  0.00    -0.344 F  
ENDBRANCH  24  25
ENDBRANCH  22  24
ENDBRANCH   5  20
TORSDOF 3
ENDMDL
MODEL       64
REMARK 921   NORMALIZED FREE ENERGY PREDICTED BY IDOCK:   -6.50 KCAL/MOL
REMARK 922        TOTAL FREE ENERGY PREDICTED BY IDOCK:   -7.96 KCAL/MOL
REMARK 923 INTER-LIGAND FREE ENERGY PREDICTED BY IDOCK:   -7.42 KCAL/MOL
REMARK 924 INTRA-LIGAND FREE ENERGY PREDICTED BY IDOCK:   -0.54 KCAL/MOL
REMARK 927      BINDING AFFINITY PREDICTED BY RF-SCORE:    0.00 PKD
ROOT
HETATM    1  C   UNL     1     -10.920  12.424  67.504  1.00  0.00    -0.252 C  
HETATM    2  C   UNL     1     -10.477  11.063  68.063  1.00  0.00    -0.189 C  
HETATM    3  N   UNL     1     -11.287  10.606  69.201  1.00  0.00    -0.257 NA 
HETATM    4  C   UNL     1     -11.121   9.300  69.663  1.00  0.00    -0.116 C  
HETATM    5  C   UNL     1     -11.610   8.812  70.812  1.00  0.00    -0.288 C  
HETATM    6  C   UNL     1     -12.402   9.751  71.631  1.00  0.00    -0.408 C  
HETATM    7  C   UNL     1     -11.628  15.896  68.553  1.00  0.00    -0.351 C  
HETATM    8  C   UNL     1     -12.549  11.168  71.179  1.00  0.00    -0.409 C  
HETATM    9  C   UNL     1      -9.582  14.993  67.425  1.00  0.00    -0.205 C  
HETATM   10  O   UNL     1     -12.913   9.424  72.705  1.00  0.00    -0.333 OA 
HETATM   11  C   UNL     1     -10.600  14.751  68.536  1.00  0.00    -0.248 C  
HETATM   12  O   UNL     1     -12.526  13.853  70.347  1.00  0.00    -0.336 OA 
HETATM   13  C   UNL     1     -11.971  11.534  70.011  1.00  0.00    -0.357 C  
HETATM   14  O   UNL     1     -13.221  12.005  72.047  1.00  0.00    -0.499 OA 
HETATM   15  N   UNL     1     -11.157  13.390  68.565  1.00  0.00    -0.257 N  
HETATM   16  C   UNL     1     -11.957  13.016  69.652  1.00  0.00    -0.302 C  
HETATM   17  O   UNL     1      -9.874  12.795  66.604  1.00  0.00    -0.238 OA 
HETATM   18  H   UNL     1     -13.315  12.905  71.759  1.00  0.00     0.000 HD 
HETATM   19  C   UNL     1      -9.872  14.150  66.210  1.00  0.00    -0.306 C  
ENDROOT
BRANCH   5  20
HETATM   20  C   UNL     1     -11.304   7.407  71.196  1.00  0.00    -0.268 C  
HETATM   21  H   UNL     1      -9.303   7.883  71.346  1.00  0.00     0.000 HD 
HETATM   22  N   UNL     1      -9.992   7.144  71.486  1.00  0.00    -0.183 N  
HETATM   23  O   UNL     1     -12.192   6.546  71.243  1.00  0.00    -0.340 OA 
BRANCH  22  24
HETATM   24  C   UNL     1      -9.544   5.862  71.983  1.00  0.00    -0.149 C  
BRANCH  24  25
HETATM   25  C   UNL     1      -9.192   4.923  70.862  1.00  0.00    -0.196 A  
HETATM   26  C   UNL     1      -8.613   3.180  68.760  1.00  0.00    -0.081 A  
HETATM   27  F   UNL     1      -8.355   2.352  67.738  1.00  0.00    -0.062 F  
HETATM   28  C   UNL     1      -9.262   2.695  69.885  1.00  0.00    -0.205 A  
HETATM   29  C   UNL     1      -8.513   5.386  69.725  1.00  0.00    -0.100 A  
HETATM   30  C   UNL     1      -8.231   4.516  68.669  1.00  0.00    -0.082 A  
HETATM   31  C   UNL     1      -9.541   3.570  70.930  1.00  0.00    -0.172 A  
HETATM   32  F   UNL     1     -10.172   3.099  72.013  1.00  0.00    -0.233 F  
ENDBRANCH  24  25
ENDBRANCH  22  24
ENDBRANCH   5  20
TORSDOF 3
ENDMDL
MODEL       65
REMARK 921   NORMALIZED FREE ENERGY PREDICTED BY IDOCK:   -6.50 KCAL/MOL
REMARK 922        TOTAL FREE ENERGY PREDICTED BY IDOCK:   -7.96 KCAL/MOL
REMARK 923 INTER-LIGAND FREE ENERGY PREDICTED BY IDOCK:   -7.45 KCAL/MOL
REMARK 924 INTRA-LIGAND FREE ENERGY PREDICTED BY IDOCK:   -0.51 KCAL/MOL
REMARK 927      BINDING AFFINITY PREDICTED BY RF-SCORE:    0.00 PKD
ROOT
HETATM    1  C   UNL     1      -8.163  17.104  67.908  1.00  0.00    -0.202 C  
HETATM    2  C   UNL     1      -7.943  15.731  68.562  1.00  0.00    -0.141 C  
HETATM    3  N   UNL     1      -8.810  14.678  68.016  1.00  0.00    -0.163 NA 
HETATM    4  C   UNL     1      -8.565  13.352  68.376  1.00  0.00    -0.134 C  
HETATM    5  C   UNL     1      -9.387  12.318  68.148  1.00  0.00    -0.205 C  
HETATM    6  C   UNL     1     -10.644  12.632  67.440  1.00  0.00    -0.224 C  
HETATM    7  C   UNL     1     -10.824  19.538  67.103  1.00  0.00    -0.555 C  
HETATM    8  C   UNL     1     -10.948  14.053  67.090  1.00  0.00    -0.296 C  
HETATM    9  C   UNL     1      -9.168  19.602  68.980  1.00  0.00    -0.246 C  
HETATM   10  O   UNL     1     -11.481  11.770  67.162  1.00  0.00    -0.372 OA 
HETATM   11  C   UNL     1     -10.139  18.714  68.206  1.00  0.00    -0.389 C  
HETATM   12  O   UNL     1     -11.510  16.783  66.727  1.00  0.00     0.480 OA 
HETATM   13  C   UNL     1     -10.039  15.004  67.412  1.00  0.00    -0.228 C  
HETATM   14  O   UNL     1     -12.184  14.276  66.516  1.00  0.00    -0.441 OA 
HETATM   15  N   UNL     1      -9.576  17.422  67.784  1.00  0.00    -0.259 N  
HETATM   16  C   UNL     1     -10.437  16.465  67.231  1.00  0.00    -0.303 C  
HETATM   17  O   UNL     1      -7.434  18.012  68.737  1.00  0.00    -0.272 OA 
HETATM   18  H   UNL     1     -12.377  15.179  66.294  1.00  0.00     0.000 HD 
HETATM   19  C   UNL     1      -7.742  19.376  68.549  1.00  0.00    -0.345 C  
ENDROOT
BRANCH   5  20
HETATM   20  C   UNL     1      -9.011  10.965  68.641  1.00  0.00    -0.162 C  
HETATM   21  H   UNL     1     -10.132  11.271  70.344  1.00  0.00     0.000 HD 
HETATM   22  N   UNL     1      -9.571  10.591  69.833  1.00  0.00     0.052 N  
HETATM   23  O   UNL     1      -8.238  10.240  68.000  1.00  0.00    -0.111 OA 
BRANCH  22  24
HETATM   24  C   UNL     1      -9.400   9.270  70.395  1.00  0.00    -0.250 C  
BRANCH  24  25
HETATM   25  C   UNL     1     -10.721   8.625  70.715  1.00  0.00    -0.260 A  
HETATM   26  C   UNL     1     -13.141   7.397  71.368  1.00  0.00    -0.350 A  
HETATM   27  F   UNL     1     -14.295   6.805  71.705  1.00  0.00    -0.459 F  
HETATM   28  C   UNL     1     -12.129   6.642  70.794  1.00  0.00    -0.364 A  
HETATM   29  C   UNL     1     -11.767   9.375  71.272  1.00  0.00    -0.432 A  
HETATM   30  C   UNL     1     -12.976   8.758  71.606  1.00  0.00    -0.390 A  
HETATM   31  C   UNL     1     -10.929   7.264  70.466  1.00  0.00    -0.260 A  
HETATM   32  F   UNL     1      -9.952   6.531  69.916  1.00  0.00    -0.168 F  
ENDBRANCH  24  25
ENDBRANCH  22  24
ENDBRANCH   5  20
TORSDOF 3
ENDMDL
MODEL       66
REMARK 921   NORMALIZED FREE ENERGY PREDICTED BY IDOCK:   -6.46 KCAL/MOL
REMARK 922        TOTAL FREE ENERGY PREDICTED BY IDOCK:   -7.91 KCAL/MOL
REMARK 923 INTER-LIGAND FREE ENERGY PREDICTED BY IDOCK:   -7.40 KCAL/MOL
REMARK 924 INTRA-LIGAND FREE ENERGY PREDICTED BY IDOCK:   -0.51 KCAL/MOL
REMARK 927      BINDING AFFINITY PREDICTED BY RF-SCORE:    0.00 PKD
ROOT
HETATM    1  C   UNL     1     -10.645   4.983  70.744  1.00  0.00    -0.078 C  
HETATM    2  C   UNL     1     -10.444   6.503  70.843  1.00  0.00    -0.223 C  
HETATM    3  N   UNL     1     -10.544   7.191  69.548  1.00  0.00    -0.229 NA 
HETATM    4  C   UNL     1     -10.586   8.586  69.530  1.00  0.00    -0.211 C  
HETATM    5  C   UNL     1     -10.452   9.355  68.440  1.00  0.00    -0.256 C  
HETATM    6  C   UNL     1     -10.261   8.642  67.161  1.00  0.00    -0.283 C  
HETATM    7  C   UNL     1      -9.420   2.008  68.928  1.00  0.00    -0.174 C  
HETATM    8  C   UNL     1     -10.162   7.150  67.166  1.00  0.00    -0.257 C  
HETATM    9  C   UNL     1      -8.840   2.771  71.242  1.00  0.00    -0.131 C  
HETATM   10  O   UNL     1     -10.133   9.232  66.086  1.00  0.00    -0.288 OA 
HETATM   11  C   UNL     1      -9.041   3.220  69.796  1.00  0.00    -0.130 C  
HETATM   12  O   UNL     1      -9.735   4.378  67.353  1.00  0.00    -0.179 OA 
HETATM   13  C   UNL     1     -10.282   6.501  68.349  1.00  0.00    -0.172 C  
HETATM   14  O   UNL     1      -9.886   6.566  65.946  1.00  0.00    -0.388 OA 
HETATM   15  N   UNL     1      -9.892   4.410  69.642  1.00  0.00    -0.219 N  
HETATM   16  C   UNL     1      -9.987   5.005  68.378  1.00  0.00    -0.136 C  
HETATM   17  O   UNL     1     -10.259   4.491  72.030  1.00  0.00    -0.192 OA 
HETATM   18  H   UNL     1      -9.824   5.618  65.950  1.00  0.00     0.000 HD 
HETATM   19  C   UNL     1     -10.036   3.100  72.098  1.00  0.00    -0.130 C  
ENDROOT
BRANCH   5  20
HETATM   20  C   UNL     1     -10.467  10.836  68.586  1.00  0.00    -0.192 C  
HETATM   21  H   UNL     1     -12.529  10.821  68.539  1.00  0.00     0.000 HD 
HETATM   22  N   UNL     1     -11.707  11.411  68.665  1.00  0.00    -0.320 N  
HETATM   23  O   UNL     1      -9.415  11.488  68.630  1.00  0.00    -0.188 OA 
BRANCH  22  24
HETATM   24  C   UNL     1     -11.899  12.821  68.921  1.00  0.00    -0.308 C  
BRANCH  24  25
HETATM   25  C   UNL     1     -11.738  13.640  67.669  1.00  0.00    -0.398 A  
HETATM   26  C   UNL     1     -11.366  15.140  65.345  1.00  0.00    -0.298 A  
HETATM   27  F   UNL     1     -11.168  15.845  64.222  1.00  0.00    -0.411 F  
HETATM   28  C   UNL     1     -10.878  15.622  66.549  1.00  0.00    -0.260 A  
HETATM   29  C   UNL     1     -12.246  13.184  66.444  1.00  0.00    -0.396 A  
HETATM   30  C   UNL     1     -12.053  13.931  65.279  1.00  0.00    -0.422 A  
HETATM   31  C   UNL     1     -11.073  14.871  67.704  1.00  0.00    -0.311 A  
HETATM   32  F   UNL     1     -10.596  15.338  68.865  1.00  0.00    -0.216 F  
ENDBRANCH  24  25
ENDBRANCH  22  24
ENDBRANCH   5  20
TORSDOF 3
ENDMDL
MODEL       67
REMARK 921   NORMALIZED FREE ENERGY PREDICTED BY IDOCK:   -6.42 KCAL/MOL
REMARK 922        TOTAL FREE ENERGY PREDICTED BY IDOCK:   -7.87 KCAL/MOL
REMARK 923 INTER-LIGAND FREE ENERGY PREDICTED BY IDOCK:   -7.24 KCAL/MOL
REMARK 924 INTRA-LIGAND FREE ENERGY PREDICTED BY IDOCK:   -0.63 KCAL/MOL
REMARK 927      BINDING AFFINITY PREDICTED BY RF-SCORE:    0.00 PKD
ROOT
HETATM    1  C   UNL     1     -11.076   6.330  71.522  1.00  0.00    -0.281 C  
HETATM    2  C   UNL     1     -11.749   7.632  71.060  1.00  0.00    -0.286 C  
HETATM    3  N   UNL     1     -10.856   8.511  70.292  1.00  0.00    -0.238 NA 
HETATM    4  C   UNL     1     -11.400   9.620  69.643  1.00  0.00    -0.073 C  
HETATM    5  C   UNL     1     -10.699  10.626  69.101  1.00  0.00    -0.264 C  
HETATM    6  C   UNL     1      -9.230  10.520  69.196  1.00  0.00    -0.171 C  
HETATM    7  C   UNL     1      -8.099   5.085  73.323  1.00  0.00    -0.104 C  
HETATM    8  C   UNL     1      -8.628   9.365  69.931  1.00  0.00    -0.191 C  
HETATM    9  C   UNL     1     -10.445   5.329  74.167  1.00  0.00    -0.319 C  
HETATM   10  O   UNL     1      -8.472  11.374  68.730  1.00  0.00    -0.151 OA 
HETATM   11  C   UNL     1      -9.330   6.007  73.374  1.00  0.00    -0.134 C  
HETATM   12  O   UNL     1      -7.645   7.293  71.557  1.00  0.00    -0.084 OA 
HETATM   13  C   UNL     1      -9.459   8.437  70.462  1.00  0.00    -0.169 C  
HETATM   14  O   UNL     1      -7.254   9.389  70.060  1.00  0.00    -0.068 OA 
HETATM   15  N   UNL     1      -9.759   6.574  72.086  1.00  0.00    -0.152 N  
HETATM   16  C   UNL     1      -8.857   7.373  71.373  1.00  0.00    -0.126 C  
HETATM   17  O   UNL     1     -12.006   5.758  72.444  1.00  0.00    -0.275 OA 
HETATM   18  H   UNL     1      -6.873   8.655  70.526  1.00  0.00     0.000 HD 
HETATM   19  C   UNL     1     -11.489   4.730  73.260  1.00  0.00    -0.273 C  
ENDROOT
BRANCH   5  20
HETATM   20  C   UNL     1     -11.424  11.771  68.486  1.00  0.00    -0.296 C  
HETATM   21  H   UNL     1     -10.997  12.930  70.137  1.00  0.00     0.000 HD 
HETATM   22  N   UNL     1     -11.416  12.935  69.208  1.00  0.00    -0.282 N  
HETATM   23  O   UNL     1     -11.994  11.658  67.392  1.00  0.00    -0.621 OA 
BRANCH  22  24
HETATM   24  C   UNL     1     -11.975  14.169  68.705  1.00  0.00    -0.338 C  
BRANCH  24  25
HETATM   25  C   UNL     1     -10.968  14.955  67.912  1.00  0.00    -0.288 A  
HETATM   26  C   UNL     1      -9.150  16.466  66.427  1.00  0.00    -0.306 A  
HETATM   27  F   UNL     1      -8.290  17.212  65.720  1.00  0.00    -0.257 F  
HETATM   28  C   UNL     1     -10.146  15.762  65.768  1.00  0.00    -0.399 A  
HETATM   29  C   UNL     1      -9.936  15.654  68.556  1.00  0.00    -0.211 A  
HETATM   30  C   UNL     1      -9.031  16.417  67.814  1.00  0.00    -0.198 A  
HETATM   31  C   UNL     1     -11.044  15.007  66.516  1.00  0.00    -0.329 A  
HETATM   32  F   UNL     1     -12.007  14.332  65.875  1.00  0.00    -0.351 F  
ENDBRANCH  24  25
ENDBRANCH  22  24
ENDBRANCH   5  20
TORSDOF 3
ENDMDL
MODEL       68
REMARK 921   NORMALIZED FREE ENERGY PREDICTED BY IDOCK:   -6.40 KCAL/MOL
REMARK 922        TOTAL FREE ENERGY PREDICTED BY IDOCK:   -7.84 KCAL/MOL
REMARK 923 INTER-LIGAND FREE ENERGY PREDICTED BY IDOCK:   -7.31 KCAL/MOL
REMARK 924 INTRA-LIGAND FREE ENERGY PREDICTED BY IDOCK:   -0.53 KCAL/MOL
REMARK 927      BINDING AFFINITY PREDICTED BY RF-SCORE:    0.00 PKD
ROOT
HETATM    1  C   UNL     1     -10.696  18.017  66.421  1.00  0.00    -0.127 C  
HETATM    2  C   UNL     1     -10.457  16.683  65.695  1.00  0.00    -0.297 C  
HETATM    3  N   UNL     1     -10.888  15.511  66.470  1.00  0.00    -0.308 NA 
HETATM    4  C   UNL     1     -10.918  14.265  65.843  1.00  0.00    -0.304 C  
HETATM    5  C   UNL     1     -11.067  13.085  66.462  1.00  0.00    -0.315 C  
HETATM    6  C   UNL     1     -11.229  13.137  67.929  1.00  0.00    -0.270 C  
HETATM    7  C   UNL     1     -10.030  19.734  69.624  1.00  0.00    -0.006 C  
HETATM    8  C   UNL     1     -11.150  14.458  68.625  1.00  0.00    -0.251 C  
HETATM    9  C   UNL     1      -8.850  20.009  67.432  1.00  0.00    -0.428 C  
HETATM   10  O   UNL     1     -11.383  12.123  68.614  1.00  0.00    -0.233 OA 
HETATM   11  C   UNL     1      -9.420  18.995  68.421  1.00  0.00    -0.364 C  
HETATM   12  O   UNL     1     -10.722  16.963  69.825  1.00  0.00    -0.291 OA 
HETATM   13  C   UNL     1     -10.961  15.569  67.876  1.00  0.00    -0.316 C  
HETATM   14  O   UNL     1     -11.214  14.411  70.003  1.00  0.00    -0.387 OA 
HETATM   15  N   UNL     1     -10.267  17.960  67.809  1.00  0.00    -0.350 N  
HETATM   16  C   UNL     1     -10.686  16.883  68.600  1.00  0.00    -0.345 C  
HETATM   17  O   UNL     1      -9.990  18.979  65.634  1.00  0.00    -0.421 OA 
HETATM   18  H   UNL     1     -11.164  15.250  70.445  1.00  0.00     0.000 HD 
HETATM   19  C   UNL     1      -9.773  20.224  66.260  1.00  0.00    -0.330 C  
ENDROOT
BRANCH   5  20
HETATM   20  C   UNL     1     -11.025  11.831  65.661  1.00  0.00    -0.295 C  
HETATM   21  H   UNL     1      -9.077  11.514  66.256  1.00  0.00     0.000 HD 
HETATM   22  N   UNL     1      -9.860  11.118  65.737  1.00  0.00    -0.224 N  
HETATM   23  O   UNL     1     -11.993  11.475  64.975  1.00  0.00    -0.037 OA 
BRANCH  22  24
HETATM   24  C   UNL     1      -9.694   9.824  65.112  1.00  0.00    -0.268 C  
BRANCH  24  25
HETATM   25  C   UNL     1      -9.057   8.833  66.046  1.00  0.00    -0.265 A  
HETATM   26  C   UNL     1      -7.864   7.047  67.830  1.00  0.00    -0.113 A  
HETATM   27  F   UNL     1      -7.297   6.205  68.705  1.00  0.00    -0.076 F  
HETATM   28  C   UNL     1      -7.068   7.941  67.130  1.00  0.00    -0.079 A  
HETATM   29  C   UNL     1      -9.839   7.902  66.745  1.00  0.00    -0.318 A  
HETATM   30  C   UNL     1      -9.243   7.014  67.644  1.00  0.00    -0.120 A  
HETATM   31  C   UNL     1      -7.671   8.823  66.238  1.00  0.00    -0.098 A  
HETATM   32  F   UNL     1      -6.899   9.688  65.568  1.00  0.00    -0.077 F  
ENDBRANCH  24  25
ENDBRANCH  22  24
ENDBRANCH   5  20
TORSDOF 3
ENDMDL
MODEL       69
REMARK 921   NORMALIZED FREE ENERGY PREDICTED BY IDOCK:   -6.39 KCAL/MOL
REMARK 922        TOTAL FREE ENERGY PREDICTED BY IDOCK:   -7.83 KCAL/MOL
REMARK 923 INTER-LIGAND FREE ENERGY PREDICTED BY IDOCK:   -7.83 KCAL/MOL
REMARK 924 INTRA-LIGAND FREE ENERGY PREDICTED BY IDOCK:   -0.00 KCAL/MOL
REMARK 927      BINDING AFFINITY PREDICTED BY RF-SCORE:    0.00 PKD
ROOT
HETATM    1  C   UNL     1      -8.560  17.395  67.748  1.00  0.00    -0.227 C  
HETATM    2  C   UNL     1      -8.640  16.022  68.434  1.00  0.00    -0.185 C  
HETATM    3  N   UNL     1      -9.009  14.932  67.520  1.00  0.00    -0.179 NA 
HETATM    4  C   UNL     1      -8.913  13.616  67.972  1.00  0.00    -0.188 C  
HETATM    5  C   UNL     1      -9.418  12.541  67.349  1.00  0.00    -0.184 C  
HETATM    6  C   UNL     1     -10.114  12.796  66.073  1.00  0.00    -0.268 C  
HETATM    7  C   UNL     1     -10.519  19.685  65.610  1.00  0.00    -0.445 C  
HETATM    8  C   UNL     1     -10.271  14.205  65.597  1.00  0.00    -0.339 C  
HETATM    9  C   UNL     1     -10.139  19.802  68.083  1.00  0.00    -0.574 C  
HETATM   10  O   UNL     1     -10.615  11.892  65.399  1.00  0.00    -0.253 OA 
HETATM   11  C   UNL     1     -10.484  18.877  66.918  1.00  0.00    -0.427 C  
HETATM   12  O   UNL     1     -10.721  16.904  64.957  1.00  0.00    -0.700 OA 
HETATM   13  C   UNL     1      -9.740  15.199  66.346  1.00  0.00    -0.278 C  
HETATM   14  O   UNL     1     -11.017  14.367  64.447  1.00  0.00    -0.595 OA 
HETATM   15  N   UNL     1      -9.703  17.631  66.880  1.00  0.00    -0.280 N  
HETATM   16  C   UNL     1     -10.069  16.639  65.963  1.00  0.00    -0.340 C  
HETATM   17  O   UNL     1      -8.450  18.325  68.828  1.00  0.00    -0.300 OA 
HETATM   18  H   UNL     1     -11.116  15.262  64.145  1.00  0.00     0.000 HD 
HETATM   19  C   UNL     1      -8.693  19.672  68.488  1.00  0.00    -0.299 C  
ENDROOT
BRANCH   5  20
HETATM   20  C   UNL     1      -9.281  11.201  67.983  1.00  0.00    -0.159 C  
HETATM   21  H   UNL     1     -11.171  10.697  67.330  1.00  0.00     0.000 HD 
HETATM   22  N   UNL     1     -10.337  10.349  67.803  1.00  0.00    -0.192 N  
HETATM   23  O   UNL     1      -8.269  10.896  68.628  1.00  0.00    -0.130 OA 
BRANCH  22  24
HETATM   24  C   UNL     1     -10.319   8.976  68.255  1.00  0.00    -0.209 C  
BRANCH  24  25
HETATM   25  C   UNL     1      -9.447   8.114  67.384  1.00  0.00    -0.191 A  
HETATM   26  C   UNL     1      -7.886   6.467  65.758  1.00  0.00    -0.104 A  
HETATM   27  F   UNL     1      -7.157   5.667  64.968  1.00  0.00    -0.057 F  
HETATM   28  C   UNL     1      -8.137   6.088  67.068  1.00  0.00    -0.106 A  
HETATM   29  C   UNL     1      -9.158   8.491  66.064  1.00  0.00    -0.246 A  
HETATM   30  C   UNL     1      -8.383   7.663  65.248  1.00  0.00    -0.121 A  
HETATM   31  C   UNL     1      -8.911   6.918  67.872  1.00  0.00    -0.121 A  
HETATM   32  F   UNL     1      -9.156   6.545  69.135  1.00  0.00    -0.134 F  
ENDBRANCH  24  25
ENDBRANCH  22  24
ENDBRANCH   5  20
TORSDOF 3
ENDMDL
MODEL       70
REMARK 921   NORMALIZED FREE ENERGY PREDICTED BY IDOCK:   -6.38 KCAL/MOL
REMARK 922        TOTAL FREE ENERGY PREDICTED BY IDOCK:   -7.82 KCAL/MOL
REMARK 923 INTER-LIGAND FREE ENERGY PREDICTED BY IDOCK:   -7.42 KCAL/MOL
REMARK 924 INTRA-LIGAND FREE ENERGY PREDICTED BY IDOCK:   -0.40 KCAL/MOL
REMARK 927      BINDING AFFINITY PREDICTED BY RF-SCORE:    0.00 PKD
ROOT
HETATM    1  C   UNL     1      -8.872   7.196  72.252  1.00  0.00    -0.128 C  
HETATM    2  C   UNL     1      -9.589   8.523  71.959  1.00  0.00    -0.301 C  
HETATM    3  N   UNL     1      -9.726   8.808  70.524  1.00  0.00    -0.179 NA 
HETATM    4  C   UNL     1     -10.535   9.873  70.125  1.00  0.00    -0.285 C  
HETATM    5  C   UNL     1     -10.584  10.394  68.891  1.00  0.00    -0.241 C  
HETATM    6  C   UNL     1      -9.711   9.761  67.883  1.00  0.00    -0.144 C  
HETATM    7  C   UNL     1      -5.780   5.334  71.460  1.00  0.00    -0.013 C  
HETATM    8  C   UNL     1      -8.799   8.652  68.302  1.00  0.00    -0.142 C  
HETATM    9  C   UNL     1      -6.335   6.626  73.533  1.00  0.00    -0.064 C  
HETATM   10  O   UNL     1      -9.669  10.140  66.710  1.00  0.00    -0.173 OA 
HETATM   11  C   UNL     1      -6.379   6.641  72.006  1.00  0.00    -0.049 C  
HETATM   12  O   UNL     1      -6.957   6.766  69.278  1.00  0.00    -0.069 OA 
HETATM   13  C   UNL     1      -8.829   8.248  69.594  1.00  0.00    -0.139 C  
HETATM   14  O   UNL     1      -7.946   8.179  67.325  1.00  0.00    -0.110 OA 
HETATM   15  N   UNL     1      -7.678   7.037  71.439  1.00  0.00    -0.093 N  
HETATM   16  C   UNL     1      -7.766   7.258  70.060  1.00  0.00    -0.096 C  
HETATM   17  O   UNL     1      -8.617   7.234  73.658  1.00  0.00    -0.133 OA 
HETATM   18  H   UNL     1      -7.367   7.475  67.592  1.00  0.00     0.000 HD 
HETATM   19  C   UNL     1      -7.679   6.289  74.125  1.00  0.00    -0.087 C  
ENDROOT
BRANCH   5  20
HETATM   20  C   UNL     1     -11.462  11.567  68.629  1.00  0.00    -0.293 C  
HETATM   21  H   UNL     1     -10.782  12.464  70.357  1.00  0.00     0.000 HD 
HETATM   22  N   UNL     1     -11.369  12.591  69.533  1.00  0.00    -0.213 N  
HETATM   23  O   UNL     1     -12.223  11.595  67.652  1.00  0.00    -0.544 OA 
BRANCH  22  24
HETATM   24  C   UNL     1     -12.067  13.846  69.366  1.00  0.00    -0.337 C  
BRANCH  24  25
HETATM   25  C   UNL     1     -12.343  14.509  70.687  1.00  0.00    -0.407 A  
HETATM   26  C   UNL     1     -12.871  15.804  73.103  1.00  0.00    -0.522 A  
HETATM   27  F   UNL     1     -13.140  16.443  74.251  1.00  0.00    -0.428 F  
HETATM   28  C   UNL     1     -11.693  16.083  72.427  1.00  0.00    -0.573 A  
HETATM   29  C   UNL     1     -13.516  14.224  71.401  1.00  0.00    -0.402 A  
HETATM   30  C   UNL     1     -13.784  14.878  72.606  1.00  0.00    -0.552 A  
HETATM   31  C   UNL     1     -11.435  15.428  71.226  1.00  0.00    -0.389 A  
HETATM   32  F   UNL     1     -10.299  15.703  70.574  1.00  0.00    -0.317 F  
ENDBRANCH  24  25
ENDBRANCH  22  24
ENDBRANCH   5  20
TORSDOF 3
ENDMDL
MODEL       71
REMARK 921   NORMALIZED FREE ENERGY PREDICTED BY IDOCK:   -6.36 KCAL/MOL
REMARK 922        TOTAL FREE ENERGY PREDICTED BY IDOCK:   -7.80 KCAL/MOL
REMARK 923 INTER-LIGAND FREE ENERGY PREDICTED BY IDOCK:   -7.20 KCAL/MOL
REMARK 924 INTRA-LIGAND FREE ENERGY PREDICTED BY IDOCK:   -0.60 KCAL/MOL
REMARK 927      BINDING AFFINITY PREDICTED BY RF-SCORE:    0.00 PKD
ROOT
HETATM    1  C   UNL     1      -9.975  13.253  66.746  1.00  0.00    -0.263 C  
HETATM    2  C   UNL     1      -9.731  12.591  68.111  1.00  0.00    -0.222 C  
HETATM    3  N   UNL     1      -9.231  11.213  68.012  1.00  0.00    -0.154 NA 
HETATM    4  C   UNL     1      -8.776  10.578  69.168  1.00  0.00    -0.147 C  
HETATM    5  C   UNL     1      -8.506   9.270  69.283  1.00  0.00    -0.137 C  
HETATM    6  C   UNL     1      -8.697   8.458  68.066  1.00  0.00    -0.139 C  
HETATM    7  C   UNL     1     -11.725  12.718  63.536  1.00  0.00    -0.597 C  
HETATM    8  C   UNL     1      -9.232   9.109  66.831  1.00  0.00    -0.148 C  
HETATM    9  C   UNL     1     -12.407  14.166  65.463  1.00  0.00    -0.472 C  
HETATM   10  O   UNL     1      -8.475   7.245  68.037  1.00  0.00    -0.122 OA 
HETATM   11  C   UNL     1     -11.860  12.797  65.066  1.00  0.00    -0.382 C  
HETATM   12  O   UNL     1     -10.482  10.401  64.670  1.00  0.00    -0.259 OA 
HETATM   13  C   UNL     1      -9.495  10.437  66.867  1.00  0.00    -0.168 C  
HETATM   14  O   UNL     1      -9.474   8.264  65.766  1.00  0.00    -0.422 OA 
HETATM   15  N   UNL     1     -10.682  12.367  65.837  1.00  0.00    -0.259 N  
HETATM   16  C   UNL     1     -10.220  11.056  65.676  1.00  0.00    -0.260 C  
HETATM   17  O   UNL     1     -10.685  14.455  67.057  1.00  0.00    -0.279 OA 
HETATM   18  H   UNL     1      -9.813   8.678  64.982  1.00  0.00     0.000 HD 
HETATM   19  C   UNL     1     -11.317  15.079  65.961  1.00  0.00    -0.270 C  
ENDROOT
BRANCH   5  20
HETATM   20  C   UNL     1      -8.077   8.728  70.601  1.00  0.00    -0.133 C  
HETATM   21  H   UNL     1      -9.856   9.350  71.438  1.00  0.00     0.000 HD 
HETATM   22  N   UNL     1      -8.990   8.841  71.615  1.00  0.00    -0.236 N  
HETATM   23  O   UNL     1      -6.961   8.212  70.751  1.00  0.00    -0.040 OA 
BRANCH  22  24
HETATM   24  C   UNL     1      -8.778   8.267  72.925  1.00  0.00    -0.221 C  
BRANCH  24  25
HETATM   25  C   UNL     1      -9.402   6.904  73.043  1.00  0.00    -0.162 A  
HETATM   26  C   UNL     1     -10.580   4.378  73.191  1.00  0.00    -0.200 A  
HETATM   27  F   UNL     1     -11.143   3.162  73.236  1.00  0.00    -0.258 F  
HETATM   28  C   UNL     1     -11.388   5.504  73.179  1.00  0.00    -0.282 A  
HETATM   29  C   UNL     1      -8.603   5.751  73.083  1.00  0.00    -0.116 A  
HETATM   30  C   UNL     1      -9.193   4.487  73.148  1.00  0.00    -0.128 A  
HETATM   31  C   UNL     1     -10.792   6.759  73.111  1.00  0.00    -0.284 A  
HETATM   32  F   UNL     1     -11.576   7.845  73.095  1.00  0.00    -0.436 F  
ENDBRANCH  24  25
ENDBRANCH  22  24
ENDBRANCH   5  20
TORSDOF 3
ENDMDL
MODEL       72
REMARK 921   NORMALIZED FREE ENERGY PREDICTED BY IDOCK:   -6.35 KCAL/MOL
REMARK 922        TOTAL FREE ENERGY PREDICTED BY IDOCK:   -7.79 KCAL/MOL
REMARK 923 INTER-LIGAND FREE ENERGY PREDICTED BY IDOCK:   -7.30 KCAL/MOL
REMARK 924 INTRA-LIGAND FREE ENERGY PREDICTED BY IDOCK:   -0.49 KCAL/MOL
REMARK 927      BINDING AFFINITY PREDICTED BY RF-SCORE:    0.00 PKD
ROOT
HETATM    1  C   UNL     1     -10.885  10.881  65.538  1.00  0.00    -0.036 C  
HETATM    2  C   UNL     1      -9.887   9.943  66.234  1.00  0.00    -0.245 C  
HETATM    3  N   UNL     1     -10.199   9.704  67.651  1.00  0.00    -0.201 NA 
HETATM    4  C   UNL     1      -9.494   8.714  68.336  1.00  0.00    -0.138 C  
HETATM    5  C   UNL     1      -9.502   8.531  69.664  1.00  0.00    -0.165 C  
HETATM    6  C   UNL     1     -10.347   9.457  70.443  1.00  0.00    -0.262 C  
HETATM    7  C   UNL     1     -12.460  14.206  65.880  1.00  0.00    -0.479 C  
HETATM    8  C   UNL     1     -11.070  10.556  69.733  1.00  0.00    -0.295 C  
HETATM    9  C   UNL     1     -10.559  13.525  64.398  1.00  0.00    -0.394 C  
HETATM   10  O   UNL     1     -10.447   9.390  71.671  1.00  0.00    -0.325 OA 
HETATM   11  C   UNL     1     -11.140  13.420  65.807  1.00  0.00    -0.282 C  
HETATM   12  O   UNL     1     -12.159  12.723  68.311  1.00  0.00    -0.282 OA 
HETATM   13  C   UNL     1     -10.945  10.644  68.388  1.00  0.00    -0.251 C  
HETATM   14  O   UNL     1     -11.760  11.437  70.541  1.00  0.00    -0.423 OA 
HETATM   15  N   UNL     1     -11.177  12.053  66.348  1.00  0.00    -0.322 N  
HETATM   16  C   UNL     1     -11.520  11.874  67.693  1.00  0.00    -0.317 C  
HETATM   17  O   UNL     1     -10.272  11.181  64.282  1.00  0.00    -0.286 OA 
HETATM   18  H   UNL     1     -12.219  12.135  70.090  1.00  0.00     0.000 HD 
HETATM   19  C   UNL     1     -10.824  12.280  63.592  1.00  0.00    -0.469 C  
ENDROOT
BRANCH   5  20
HETATM   20  C   UNL     1      -8.654   7.460  70.257  1.00  0.00    -0.145 C  
HETATM   21  H   UNL     1     -10.257   6.164  70.210  1.00  0.00     0.000 HD 
HETATM   22  N   UNL     1      -9.263   6.245  70.420  1.00  0.00    -0.154 N  
HETATM   23  O   UNL     1      -7.478   7.676  70.578  1.00  0.00    -0.076 OA 
BRANCH  22  24
HETATM   24  C   UNL     1      -8.553   5.071  70.877  1.00  0.00    -0.121 C  
BRANCH  24  25
HETATM   25  C   UNL     1      -9.422   4.194  71.735  1.00  0.00    -0.210 A  
HETATM   26  C   UNL     1     -10.973   2.544  73.366  1.00  0.00    -0.193 A  
HETATM   27  F   UNL     1     -11.700   1.752  74.168  1.00  0.00    -0.211 F  
HETATM   28  C   UNL     1     -10.196   1.975  72.368  1.00  0.00    -0.230 A  
HETATM   29  C   UNL     1     -10.235   4.749  72.734  1.00  0.00    -0.232 A  
HETATM   30  C   UNL     1     -11.006   3.922  73.555  1.00  0.00    -0.343 A  
HETATM   31  C   UNL     1      -9.431   2.806  71.556  1.00  0.00    -0.142 A  
HETATM   32  F   UNL     1      -8.678   2.253  70.597  1.00  0.00    -0.074 F  
ENDBRANCH  24  25
ENDBRANCH  22  24
ENDBRANCH   5  20
TORSDOF 3
ENDMDL
MODEL       73
REMARK 921   NORMALIZED FREE ENERGY PREDICTED BY IDOCK:   -6.30 KCAL/MOL
REMARK 922        TOTAL FREE ENERGY PREDICTED BY IDOCK:   -7.73 KCAL/MOL
REMARK 923 INTER-LIGAND FREE ENERGY PREDICTED BY IDOCK:   -7.20 KCAL/MOL
REMARK 924 INTRA-LIGAND FREE ENERGY PREDICTED BY IDOCK:   -0.53 KCAL/MOL
REMARK 927      BINDING AFFINITY PREDICTED BY RF-SCORE:    0.00 PKD
ROOT
HETATM    1  C   UNL     1     -11.722  13.163  69.257  1.00  0.00    -0.321 C  
HETATM    2  C   UNL     1     -10.559  12.185  69.032  1.00  0.00    -0.079 C  
HETATM    3  N   UNL     1     -10.820  10.836  69.552  1.00  0.00    -0.238 NA 
HETATM    4  C   UNL     1      -9.933   9.808  69.229  1.00  0.00    -0.192 C  
HETATM    5  C   UNL     1      -9.907   8.595  69.798  1.00  0.00    -0.183 C  
HETATM    6  C   UNL     1     -10.923   8.344  70.840  1.00  0.00    -0.243 C  
HETATM    7  C   UNL     1     -13.931  14.479  71.910  1.00  0.00    -0.569 C  
HETATM    8  C   UNL     1     -11.849   9.448  71.236  1.00  0.00    -0.360 C  
HETATM    9  C   UNL     1     -11.929  15.563  70.868  1.00  0.00    -0.420 C  
HETATM   10  O   UNL     1     -11.011   7.266  71.434  1.00  0.00    -0.231 OA 
HETATM   11  C   UNL     1     -12.481  14.262  71.448  1.00  0.00    -0.360 C  
HETATM   12  O   UNL     1     -13.346  11.680  72.061  1.00  0.00    -0.481 OA 
HETATM   13  C   UNL     1     -11.741  10.638  70.599  1.00  0.00    -0.356 C  
HETATM   14  O   UNL     1     -12.704   9.165  72.282  1.00  0.00    -0.383 OA 
HETATM   15  N   UNL     1     -12.245  13.076  70.610  1.00  0.00    -0.359 N  
HETATM   16  C   UNL     1     -12.549  11.815  71.136  1.00  0.00    -0.309 C  
HETATM   17  O   UNL     1     -11.179  14.443  68.925  1.00  0.00    -0.238 OA 
HETATM   18  H   UNL     1     -13.292   9.867  72.533  1.00  0.00     0.000 HD 
HETATM   19  C   UNL     1     -11.938  15.549  69.361  1.00  0.00    -0.336 C  
ENDROOT
BRANCH   5  20
HETATM   20  C   UNL     1      -8.865   7.617  69.383  1.00  0.00    -0.139 C  
HETATM   21  H   UNL     1      -9.337   7.951  67.404  1.00  0.00     0.000 HD 
HETATM   22  N   UNL     1      -8.699   7.464  68.032  1.00  0.00    -0.125 N  
HETATM   23  O   UNL     1      -8.202   6.990  70.220  1.00  0.00    -0.124 OA 
BRANCH  22  24
HETATM   24  C   UNL     1      -7.657   6.641  67.462  1.00  0.00    -0.105 C  
BRANCH  24  25
HETATM   25  C   UNL     1      -8.223   5.465  66.713  1.00  0.00    -0.108 A  
HETATM   26  C   UNL     1      -9.343   3.304  65.348  1.00  0.00    -0.140 A  
HETATM   27  F   UNL     1      -9.903   2.278  64.691  1.00  0.00    -0.131 F  
HETATM   28  C   UNL     1      -9.220   3.245  66.728  1.00  0.00    -0.187 A  
HETATM   29  C   UNL     1      -8.334   5.492  65.315  1.00  0.00    -0.144 A  
HETATM   30  C   UNL     1      -8.902   4.414  64.633  1.00  0.00    -0.147 A  
HETATM   31  C   UNL     1      -8.655   4.325  67.399  1.00  0.00    -0.104 A  
HETATM   32  F   UNL     1      -8.541   4.266  68.732  1.00  0.00    -0.084 F  
ENDBRANCH  24  25
ENDBRANCH  22  24
ENDBRANCH   5  20
TORSDOF 3
ENDMDL
MODEL       74
REMARK 921   NORMALIZED FREE ENERGY PREDICTED BY IDOCK:   -6.30 KCAL/MOL
REMARK 922        TOTAL FREE ENERGY PREDICTED BY IDOCK:   -7.72 KCAL/MOL
REMARK 923 INTER-LIGAND FREE ENERGY PREDICTED BY IDOCK:   -7.20 KCAL/MOL
REMARK 924 INTRA-LIGAND FREE ENERGY PREDICTED BY IDOCK:   -0.52 KCAL/MOL
REMARK 927      BINDING AFFINITY PREDICTED BY RF-SCORE:    0.00 PKD
ROOT
HETATM    1  C   UNL     1      -8.480   5.820  71.714  1.00  0.00    -0.131 C  
HETATM    2  C   UNL     1      -8.095   6.499  70.390  1.00  0.00    -0.117 C  
HETATM    3  N   UNL     1      -8.926   7.668  70.070  1.00  0.00    -0.143 NA 
HETATM    4  C   UNL     1      -8.548   8.491  69.008  1.00  0.00    -0.130 C  
HETATM    5  C   UNL     1      -9.307   9.448  68.457  1.00  0.00    -0.139 C  
HETATM    6  C   UNL     1     -10.644   9.641  69.051  1.00  0.00    -0.218 C  
HETATM    7  C   UNL     1     -11.383   4.405  73.509  1.00  0.00    -0.334 C  
HETATM    8  C   UNL     1     -11.087   8.737  70.157  1.00  0.00    -0.202 C  
HETATM    9  C   UNL     1      -9.569   3.194  72.278  1.00  0.00    -0.204 C  
HETATM   10  O   UNL     1     -11.435  10.494  68.641  1.00  0.00    -0.266 OA 
HETATM   11  C   UNL     1     -10.537   4.374  72.225  1.00  0.00    -0.071 C  
HETATM   12  O   UNL     1     -11.888   6.810  72.040  1.00  0.00    -0.292 OA 
HETATM   13  C   UNL     1     -10.228   7.786  70.594  1.00  0.00    -0.199 C  
HETATM   14  O   UNL     1     -12.385   8.918  70.592  1.00  0.00    -0.494 OA 
HETATM   15  N   UNL     1      -9.919   5.650  71.834  1.00  0.00    -0.176 N  
HETATM   16  C   UNL     1     -10.751   6.747  71.580  1.00  0.00    -0.226 C  
HETATM   17  O   UNL     1      -7.749   4.592  71.707  1.00  0.00    -0.085 OA 
HETATM   18  H   UNL     1     -12.666   8.344  71.294  1.00  0.00     0.000 HD 
HETATM   19  C   UNL     1      -8.176   3.633  72.650  1.00  0.00    -0.081 C  
ENDROOT
BRANCH   5  20
HETATM   20  C   UNL     1      -8.784  10.211  67.290  1.00  0.00    -0.129 C  
HETATM   21  H   UNL     1     -10.289   9.441  66.110  1.00  0.00     0.000 HD 
HETATM   22  N   UNL     1      -9.504  10.092  66.132  1.00  0.00    -0.178 N  
HETATM   23  O   UNL     1      -7.760  10.902  67.381  1.00  0.00    -0.103 OA 
BRANCH  22  24
HETATM   24  C   UNL     1      -9.199  10.852  64.941  1.00  0.00    -0.204 C  
BRANCH  24  25
HETATM   25  C   UNL     1     -10.204  11.946  64.706  1.00  0.00    -0.314 A  
HETATM   26  C   UNL     1     -12.015  14.017  64.234  1.00  0.00    -0.435 A  
HETATM   27  F   UNL     1     -12.872  15.018  63.986  1.00  0.00    -0.320 F  
HETATM   28  C   UNL     1     -11.029  14.183  65.194  1.00  0.00    -0.361 A  
HETATM   29  C   UNL     1     -11.226  11.790  63.758  1.00  0.00    -0.518 A  
HETATM   30  C   UNL     1     -12.128  12.829  63.516  1.00  0.00    -0.642 A  
HETATM   31  C   UNL     1     -10.134  13.144  65.427  1.00  0.00    -0.248 A  
HETATM   32  F   UNL     1      -9.180  13.310  66.351  1.00  0.00    -0.246 F  
ENDBRANCH  24  25
ENDBRANCH  22  24
ENDBRANCH   5  20
TORSDOF 3
ENDMDL
MODEL       75
REMARK 921   NORMALIZED FREE ENERGY PREDICTED BY IDOCK:   -6.28 KCAL/MOL
REMARK 922        TOTAL FREE ENERGY PREDICTED BY IDOCK:   -7.70 KCAL/MOL
REMARK 923 INTER-LIGAND FREE ENERGY PREDICTED BY IDOCK:   -7.17 KCAL/MOL
REMARK 924 INTRA-LIGAND FREE ENERGY PREDICTED BY IDOCK:   -0.53 KCAL/MOL
REMARK 927      BINDING AFFINITY PREDICTED BY RF-SCORE:    0.00 PKD
ROOT
HETATM    1  C   UNL     1     -12.031  13.738  66.158  1.00  0.00    -0.418 C  
HETATM    2  C   UNL     1     -11.904  12.207  66.136  1.00  0.00    -0.254 C  
HETATM    3  N   UNL     1     -11.029  11.678  67.192  1.00  0.00    -0.264 NA 
HETATM    4  C   UNL     1     -10.995  10.299  67.408  1.00  0.00    -0.252 C  
HETATM    5  C   UNL     1     -10.097   9.652  68.165  1.00  0.00    -0.205 C  
HETATM    6  C   UNL     1      -9.080  10.492  68.828  1.00  0.00    -0.166 C  
HETATM    7  C   UNL     1      -9.987  16.816  66.179  1.00  0.00    -0.345 C  
HETATM    8  C   UNL     1      -9.069  11.964  68.568  1.00  0.00    -0.123 C  
HETATM    9  C   UNL     1     -11.198  15.760  64.257  1.00  0.00    -0.119 C  
HETATM   10  O   UNL     1      -8.204  10.020  69.557  1.00  0.00    -0.138 OA 
HETATM   11  C   UNL     1     -10.294  15.492  65.459  1.00  0.00    -0.394 C  
HETATM   12  O   UNL     1      -9.002  14.664  67.791  1.00  0.00    -0.172 OA 
HETATM   13  C   UNL     1     -10.017  12.481  67.752  1.00  0.00    -0.210 C  
HETATM   14  O   UNL     1      -8.029  12.665  69.147  1.00  0.00    -0.319 OA 
HETATM   15  N   UNL     1     -10.738  14.384  66.317  1.00  0.00    -0.301 N  
HETATM   16  C   UNL     1      -9.885  13.942  67.336  1.00  0.00    -0.237 C  
HETATM   17  O   UNL     1     -12.692  14.056  64.931  1.00  0.00    -0.647 OA 
HETATM   18  H   UNL     1      -8.022  13.600  68.982  1.00  0.00     0.000 HD 
HETATM   19  C   UNL     1     -12.634  15.413  64.552  1.00  0.00     0.215 C  
ENDROOT
BRANCH   5  20
HETATM   20  C   UNL     1     -10.158   8.168  68.258  1.00  0.00    -0.197 C  
HETATM   21  H   UNL     1     -11.375   8.321  69.916  1.00  0.00     0.000 HD 
HETATM   22  N   UNL     1     -10.949   7.669  69.258  1.00  0.00    -0.089 N  
HETATM   23  O   UNL     1      -9.525   7.448  67.474  1.00  0.00    -0.134 OA 
BRANCH  22  24
HETATM   24  C   UNL     1     -11.207   6.255  69.418  1.00  0.00    -0.420 C  
BRANCH  24  25
HETATM   25  C   UNL     1     -10.757   5.756  70.764  1.00  0.00    -0.342 A  
HETATM   26  C   UNL     1      -9.979   4.779  73.260  1.00  0.00    -0.155 A  
HETATM   27  F   UNL     1      -9.615   4.288  74.453  1.00  0.00    -0.112 F  
HETATM   28  C   UNL     1     -11.117   5.566  73.163  1.00  0.00    -0.337 A  
HETATM   29  C   UNL     1      -9.595   4.981  70.889  1.00  0.00    -0.242 A  
HETATM   30  C   UNL     1      -9.210   4.485  72.137  1.00  0.00    -0.165 A  
HETATM   31  C   UNL     1     -11.494   6.053  71.916  1.00  0.00    -0.269 A  
HETATM   32  F   UNL     1     -12.596   6.808  71.826  1.00  0.00    -0.364 F  
ENDBRANCH  24  25
ENDBRANCH  22  24
ENDBRANCH   5  20
TORSDOF 3
ENDMDL
MODEL       76
REMARK 921   NORMALIZED FREE ENERGY PREDICTED BY IDOCK:   -6.27 KCAL/MOL
REMARK 922        TOTAL FREE ENERGY PREDICTED BY IDOCK:   -7.69 KCAL/MOL
REMARK 923 INTER-LIGAND FREE ENERGY PREDICTED BY IDOCK:   -7.62 KCAL/MOL
REMARK 924 INTRA-LIGAND FREE ENERGY PREDICTED BY IDOCK:   -0.07 KCAL/MOL
REMARK 927      BINDING AFFINITY PREDICTED BY RF-SCORE:    0.00 PKD
ROOT
HETATM    1  C   UNL     1      -8.962  11.290  68.583  1.00  0.00    -0.147 C  
HETATM    2  C   UNL     1      -8.355  12.643  68.177  1.00  0.00    -0.175 C  
HETATM    3  N   UNL     1      -9.284  13.498  67.426  1.00  0.00    -0.213 NA 
HETATM    4  C   UNL     1      -8.927  14.825  67.182  1.00  0.00    -0.224 C  
HETATM    5  C   UNL     1      -9.550  15.655  66.333  1.00  0.00    -0.316 C  
HETATM    6  C   UNL     1     -10.719  15.101  65.623  1.00  0.00    -0.363 C  
HETATM    7  C   UNL     1     -10.716   8.360  67.173  1.00  0.00    -0.222 C  
HETATM    8  C   UNL     1     -11.088  13.667  65.833  1.00  0.00    -0.284 C  
HETATM    9  C   UNL     1      -8.302   8.579  67.802  1.00  0.00    -0.130 C  
HETATM   10  O   UNL     1     -11.384  15.764  64.823  1.00  0.00    -0.392 OA 
HETATM   11  C   UNL     1      -9.472   9.262  67.098  1.00  0.00    -0.149 C  
HETATM   12  O   UNL     1     -11.508  10.903  66.120  1.00  0.00     0.002 OA 
HETATM   13  C   UNL     1     -10.347  12.933  66.696  1.00  0.00    -0.251 C  
HETATM   14  O   UNL     1     -12.132  13.200  65.061  1.00  0.00    -0.367 OA 
HETATM   15  N   UNL     1      -9.675  10.667  67.480  1.00  0.00    -0.164 N  
HETATM   16  C   UNL     1     -10.602  11.430  66.760  1.00  0.00    -0.255 C  
HETATM   17  O   UNL     1      -7.848  10.530  69.057  1.00  0.00    -0.109 OA 
HETATM   18  H   UNL     1     -12.366  12.289  65.195  1.00  0.00     0.000 HD 
HETATM   19  C   UNL     1      -8.075   9.144  69.181  1.00  0.00    -0.105 C  
ENDROOT
BRANCH   5  20
HETATM   20  C   UNL     1      -9.019  17.032  66.138  1.00  0.00    -0.208 C  
HETATM   21  H   UNL     1     -10.864  17.814  66.624  1.00  0.00     0.000 HD 
HETATM   22  N   UNL     1      -9.898  18.049  66.399  1.00  0.00    -0.337 N  
HETATM   23  O   UNL     1      -7.854  17.224  65.763  1.00  0.00    -0.495 OA 
BRANCH  22  24
HETATM   24  C   UNL     1      -9.511  19.442  66.367  1.00  0.00    -0.373 C  
BRANCH  24  25
HETATM   25  C   UNL     1      -8.365  19.723  67.299  1.00  0.00    -0.351 A  
HETATM   26  C   UNL     1      -6.260  20.315  69.034  1.00  0.00    -0.331 A  
HETATM   27  F   UNL     1      -5.262  20.619  69.875  1.00  0.00    -0.261 F  
HETATM   28  C   UNL     1      -6.191  20.734  67.714  1.00  0.00    -0.357 A  
HETATM   29  C   UNL     1      -8.401  19.286  68.632  1.00  0.00    -0.407 A  
HETATM   30  C   UNL     1      -7.351  19.590  69.502  1.00  0.00    -0.161 A  
HETATM   31  C   UNL     1      -7.242  20.429  66.855  1.00  0.00    -0.283 A  
HETATM   32  F   UNL     1      -7.174  20.840  65.582  1.00  0.00    -0.191 F  
ENDBRANCH  24  25
ENDBRANCH  22  24
ENDBRANCH   5  20
TORSDOF 3
ENDMDL
MODEL       77
REMARK 921   NORMALIZED FREE ENERGY PREDICTED BY IDOCK:   -6.24 KCAL/MOL
REMARK 922        TOTAL FREE ENERGY PREDICTED BY IDOCK:   -7.66 KCAL/MOL
REMARK 923 INTER-LIGAND FREE ENERGY PREDICTED BY IDOCK:   -7.10 KCAL/MOL
REMARK 924 INTRA-LIGAND FREE ENERGY PREDICTED BY IDOCK:   -0.56 KCAL/MOL
REMARK 927      BINDING AFFINITY PREDICTED BY RF-SCORE:    0.00 PKD
ROOT
HETATM    1  C   UNL     1     -11.045   6.371  70.254  1.00  0.00    -0.354 C  
HETATM    2  C   UNL     1     -10.638   7.632  69.476  1.00  0.00    -0.227 C  
HETATM    3  N   UNL     1     -10.092   7.345  68.142  1.00  0.00    -0.173 NA 
HETATM    4  C   UNL     1      -9.879   8.405  67.260  1.00  0.00    -0.203 C  
HETATM    5  C   UNL     1      -9.189   8.337  66.113  1.00  0.00    -0.250 C  
HETATM    6  C   UNL     1      -8.632   7.015  65.767  1.00  0.00    -0.130 C  
HETATM    7  C   UNL     1      -9.737   3.097  71.359  1.00  0.00    -0.219 C  
HETATM    8  C   UNL     1      -8.805   5.878  66.723  1.00  0.00    -0.118 C  
HETATM    9  C   UNL     1     -10.004   5.201  72.692  1.00  0.00    -0.203 C  
HETATM   10  O   UNL     1      -7.985   6.818  64.736  1.00  0.00    -0.118 OA 
HETATM   11  C   UNL     1      -9.530   4.621  71.361  1.00  0.00    -0.157 C  
HETATM   12  O   UNL     1      -8.979   3.907  68.719  1.00  0.00    -0.101 OA 
HETATM   13  C   UNL     1      -9.498   6.098  67.865  1.00  0.00    -0.115 C  
HETATM   14  O   UNL     1      -8.173   4.702  66.373  1.00  0.00    -0.106 OA 
HETATM   15  N   UNL     1     -10.027   5.337  70.176  1.00  0.00    -0.221 N  
HETATM   16  C   UNL     1      -9.505   4.998  68.922  1.00  0.00    -0.140 C  
HETATM   17  O   UNL     1     -11.296   6.840  71.581  1.00  0.00    -0.244 OA 
HETATM   18  H   UNL     1      -8.283   3.980  66.980  1.00  0.00     0.000 HD 
HETATM   19  C   UNL     1     -11.365   5.837  72.570  1.00  0.00    -0.307 C  
ENDROOT
BRANCH   5  20
HETATM   20  C   UNL     1      -9.003   9.570  65.300  1.00  0.00    -0.200 C  
HETATM   21  H   UNL     1     -11.042   9.691  65.013  1.00  0.00     0.000 HD 
HETATM   22  N   UNL     1     -10.152  10.161  64.846  1.00  0.00    -0.295 N  
HETATM   23  O   UNL     1      -7.873  10.017  65.060  1.00  0.00    -0.127 OA 
BRANCH  22  24
HETATM   24  C   UNL     1     -10.156  11.422  64.140  1.00  0.00    -0.309 C  
BRANCH  24  25
HETATM   25  C   UNL     1     -10.656  12.544  65.007  1.00  0.00    -0.329 A  
HETATM   26  C   UNL     1     -11.626  14.577  66.655  1.00  0.00    -0.375 A  
HETATM   27  F   UNL     1     -12.097  15.536  67.465  1.00  0.00    -0.139 F  
HETATM   28  C   UNL     1     -12.451  14.045  65.676  1.00  0.00    -0.531 A  
HETATM   29  C   UNL     1      -9.831  13.115  65.987  1.00  0.00    -0.266 A  
HETATM   30  C   UNL     1     -10.319  14.127  66.817  1.00  0.00    -0.274 A  
HETATM   31  C   UNL     1     -11.957  13.036  64.855  1.00  0.00    -0.396 A  
HETATM   32  F   UNL     1     -12.758  12.521  63.914  1.00  0.00    -0.477 F  
ENDBRANCH  24  25
ENDBRANCH  22  24
ENDBRANCH   5  20
TORSDOF 3
ENDMDL
MODEL       78
REMARK 921   NORMALIZED FREE ENERGY PREDICTED BY IDOCK:   -6.24 KCAL/MOL
REMARK 922        TOTAL FREE ENERGY PREDICTED BY IDOCK:   -7.66 KCAL/MOL
REMARK 923 INTER-LIGAND FREE ENERGY PREDICTED BY IDOCK:   -7.42 KCAL/MOL
REMARK 924 INTRA-LIGAND FREE ENERGY PREDICTED BY IDOCK:   -0.24 KCAL/MOL
REMARK 927      BINDING AFFINITY PREDICTED BY RF-SCORE:    0.00 PKD
ROOT
HETATM    1  C   UNL     1     -10.265   8.511  66.712  1.00  0.00    -0.300 C  
HETATM    2  C   UNL     1     -10.755   9.723  67.518  1.00  0.00    -0.264 C  
HETATM    3  N   UNL     1      -9.938  10.928  67.316  1.00  0.00    -0.182 NA 
HETATM    4  C   UNL     1     -10.396  12.144  67.826  1.00  0.00    -0.206 C  
HETATM    5  C   UNL     1      -9.675  13.269  67.922  1.00  0.00    -0.224 C  
HETATM    6  C   UNL     1      -8.288  13.196  67.423  1.00  0.00    -0.188 C  
HETATM    7  C   UNL     1      -7.236   6.499  66.053  1.00  0.00    -0.071 C  
HETATM    8  C   UNL     1      -7.762  11.891  66.919  1.00  0.00    -0.106 C  
HETATM    9  C   UNL     1      -9.170   5.962  67.551  1.00  0.00    -0.108 C  
HETATM   10  O   UNL     1      -7.523  14.164  67.446  1.00  0.00    -0.175 OA 
HETATM   11  C   UNL     1      -8.193   7.054  67.122  1.00  0.00    -0.118 C  
HETATM   12  O   UNL     1      -6.827   9.326  66.247  1.00  0.00    -0.080 OA 
HETATM   13  C   UNL     1      -8.593  10.822  66.912  1.00  0.00    -0.132 C  
HETATM   14  O   UNL     1      -6.428  11.881  66.562  1.00  0.00    -0.359 OA 
HETATM   15  N   UNL     1      -8.824   8.345  66.809  1.00  0.00    -0.133 N  
HETATM   16  C   UNL     1      -8.001   9.456  66.584  1.00  0.00    -0.108 C  
HETATM   17  O   UNL     1     -11.012   7.411  67.236  1.00  0.00    -0.280 OA 
HETATM   18  H   UNL     1      -6.095  11.052  66.241  1.00  0.00     0.000 HD 
HETATM   19  C   UNL     1     -10.518   6.133  66.899  1.00  0.00    -0.276 C  
ENDROOT
BRANCH   5  20
HETATM   20  C   UNL     1     -10.287  14.478  68.539  1.00  0.00    -0.242 C  
HETATM   21  H   UNL     1      -9.946  15.539  66.804  1.00  0.00     0.000 HD 
HETATM   22  N   UNL     1     -10.371  15.579  67.730  1.00  0.00    -0.258 N  
HETATM   23  O   UNL     1     -10.688  14.467  69.711  1.00  0.00    -0.170 OA 
BRANCH  22  24
HETATM   24  C   UNL     1     -11.038  16.797  68.135  1.00  0.00    -0.254 C  
BRANCH  24  25
HETATM   25  C   UNL     1     -10.166  18.004  67.927  1.00  0.00    -0.386 A  
HETATM   26  C   UNL     1      -8.512  20.209  67.484  1.00  0.00    -0.335 A  
HETATM   27  F   UNL     1      -7.714  21.259  67.247  1.00  0.00    -0.397 F  
HETATM   28  C   UNL     1      -8.002  19.098  68.138  1.00  0.00    -0.339 A  
HETATM   29  C   UNL     1     -10.668  19.149  67.290  1.00  0.00    -0.585 A  
HETATM   30  C   UNL     1      -9.838  20.249  67.061  1.00  0.00    -0.607 A  
HETATM   31  C   UNL     1      -8.835  18.006  68.360  1.00  0.00    -0.292 A  
HETATM   32  F   UNL     1      -8.338  16.933  68.988  1.00  0.00    -0.241 F  
ENDBRANCH  24  25
ENDBRANCH  22  24
ENDBRANCH   5  20
TORSDOF 3
ENDMDL
MODEL       79
REMARK 921   NORMALIZED FREE ENERGY PREDICTED BY IDOCK:   -6.23 KCAL/MOL
REMARK 922        TOTAL FREE ENERGY PREDICTED BY IDOCK:   -7.65 KCAL/MOL
REMARK 923 INTER-LIGAND FREE ENERGY PREDICTED BY IDOCK:   -7.18 KCAL/MOL
REMARK 924 INTRA-LIGAND FREE ENERGY PREDICTED BY IDOCK:   -0.47 KCAL/MOL
REMARK 927      BINDING AFFINITY PREDICTED BY RF-SCORE:    0.00 PKD
ROOT
HETATM    1  C   UNL     1      -7.373   9.209  70.773  1.00  0.00    -0.114 C  
HETATM    2  C   UNL     1      -7.421  10.012  69.463  1.00  0.00    -0.123 C  
HETATM    3  N   UNL     1      -8.731  10.626  69.201  1.00  0.00    -0.154 NA 
HETATM    4  C   UNL     1      -8.845  11.546  68.158  1.00  0.00    -0.165 C  
HETATM    5  C   UNL     1      -9.996  12.014  67.656  1.00  0.00    -0.196 C  
HETATM    6  C   UNL     1     -11.232  11.513  68.288  1.00  0.00    -0.261 C  
HETATM    7  C   UNL     1      -9.137   6.517  72.587  1.00  0.00    -0.134 C  
HETATM    8  C   UNL     1     -11.133  10.489  69.373  1.00  0.00    -0.258 C  
HETATM    9  C   UNL     1      -7.008   6.379  71.275  1.00  0.00    -0.075 C  
HETATM   10  O   UNL     1     -12.355  11.872  67.925  1.00  0.00    -0.367 OA 
HETATM   11  C   UNL     1      -8.433   6.929  71.284  1.00  0.00    -0.120 C  
HETATM   12  O   UNL     1     -10.813   8.386  71.210  1.00  0.00    -0.224 OA 
HETATM   13  C   UNL     1      -9.902  10.078  69.759  1.00  0.00    -0.235 C  
HETATM   14  O   UNL     1     -12.335   9.999  69.844  1.00  0.00    -0.493 OA 
HETATM   15  N   UNL     1      -8.537   8.350  70.920  1.00  0.00    -0.134 N  
HETATM   16  C   UNL     1      -9.810   8.899  70.722  1.00  0.00    -0.223 C  
HETATM   17  O   UNL     1      -6.133   8.501  70.709  1.00  0.00    -0.032 OA 
HETATM   18  H   UNL     1     -12.271   9.349  70.534  1.00  0.00     0.000 HD 
HETATM   19  C   UNL     1      -5.999   7.440  71.629  1.00  0.00    -0.036 C  
ENDROOT
BRANCH   5  20
HETATM   20  C   UNL     1      -9.959  12.956  66.504  1.00  0.00    -0.259 C  
HETATM   21  H   UNL     1      -9.885  14.551  67.808  1.00  0.00     0.000 HD 
HETATM   22  N   UNL     1      -9.851  14.282  66.825  1.00  0.00    -0.261 N  
HETATM   23  O   UNL     1     -10.025  12.546  65.337  1.00  0.00    -0.265 OA 
BRANCH  22  24
HETATM   24  C   UNL     1      -9.690  15.317  65.828  1.00  0.00    -0.350 C  
BRANCH  24  25
HETATM   25  C   UNL     1      -9.701  16.689  66.443  1.00  0.00    -0.306 A  
HETATM   26  C   UNL     1      -9.793  19.224  67.608  1.00  0.00    -0.339 A  
HETATM   27  F   UNL     1      -9.855  20.433  68.183  1.00  0.00    -0.476 F  
HETATM   28  C   UNL     1     -10.470  18.998  66.420  1.00  0.00    -0.524 A  
HETATM   29  C   UNL     1      -9.002  16.948  67.631  1.00  0.00    -0.219 A  
HETATM   30  C   UNL     1      -9.054  18.214  68.218  1.00  0.00    -0.309 A  
HETATM   31  C   UNL     1     -10.414  17.733  65.843  1.00  0.00    -0.251 A  
HETATM   32  F   UNL     1     -11.074  17.517  64.698  1.00  0.00    -0.276 F  
ENDBRANCH  24  25
ENDBRANCH  22  24
ENDBRANCH   5  20
TORSDOF 3
ENDMDL
MODEL       80
REMARK 921   NORMALIZED FREE ENERGY PREDICTED BY IDOCK:   -6.22 KCAL/MOL
REMARK 922        TOTAL FREE ENERGY PREDICTED BY IDOCK:   -7.64 KCAL/MOL
REMARK 923 INTER-LIGAND FREE ENERGY PREDICTED BY IDOCK:   -7.53 KCAL/MOL
REMARK 924 INTRA-LIGAND FREE ENERGY PREDICTED BY IDOCK:   -0.10 KCAL/MOL
REMARK 927      BINDING AFFINITY PREDICTED BY RF-SCORE:    0.00 PKD
ROOT
HETATM    1  C   UNL     1      -8.001   6.183  66.389  1.00  0.00    -0.106 C  
HETATM    2  C   UNL     1      -8.453   7.361  65.513  1.00  0.00    -0.118 C  
HETATM    3  N   UNL     1      -9.164   8.407  66.263  1.00  0.00    -0.195 NA 
HETATM    4  C   UNL     1      -9.442   9.618  65.627  1.00  0.00    -0.255 C  
HETATM    5  C   UNL     1     -10.266  10.569  66.090  1.00  0.00    -0.299 C  
HETATM    6  C   UNL     1     -10.907  10.297  67.391  1.00  0.00    -0.277 C  
HETATM    7  C   UNL     1      -9.284   3.731  68.838  1.00  0.00    -0.220 C  
HETATM    8  C   UNL     1     -10.661   8.984  68.064  1.00  0.00    -0.125 C  
HETATM    9  C   UNL     1      -8.785   3.393  66.407  1.00  0.00    -0.126 C  
HETATM   10  O   UNL     1     -11.678  11.094  67.929  1.00  0.00    -0.542 OA 
HETATM   11  C   UNL     1      -9.435   4.325  67.428  1.00  0.00    -0.180 C  
HETATM   12  O   UNL     1     -10.321   6.388  69.086  1.00  0.00    -0.179 OA 
HETATM   13  C   UNL     1      -9.831   8.099  67.464  1.00  0.00    -0.177 C  
HETATM   14  O   UNL     1     -11.372   8.768  69.227  1.00  0.00    -0.416 OA 
HETATM   15  N   UNL     1      -9.057   5.740  67.284  1.00  0.00    -0.111 N  
HETATM   16  C   UNL     1      -9.737   6.695  68.051  1.00  0.00    -0.123 C  
HETATM   17  O   UNL     1      -7.578   5.188  65.454  1.00  0.00    -0.082 OA 
HETATM   18  H   UNL     1     -11.216   7.934  69.655  1.00  0.00     0.000 HD 
HETATM   19  C   UNL     1      -7.427   3.890  65.984  1.00  0.00    -0.084 C  
ENDROOT
BRANCH   5  20
HETATM   20  C   UNL     1     -10.503  11.789  65.270  1.00  0.00    -0.274 C  
HETATM   21  H   UNL     1     -10.170  12.969  66.928  1.00  0.00     0.000 HD 
HETATM   22  N   UNL     1     -10.351  12.982  65.925  1.00  0.00    -0.283 N  
HETATM   23  O   UNL     1     -10.820  11.709  64.075  1.00  0.00    -0.334 OA 
BRANCH  22  24
HETATM   24  C   UNL     1     -10.435  14.258  65.251  1.00  0.00    -0.389 C  
BRANCH  24  25
HETATM   25  C   UNL     1     -10.330  15.406  66.218  1.00  0.00    -0.304 A  
HETATM   26  C   UNL     1     -10.096  17.490  68.060  1.00  0.00    -0.332 A  
HETATM   27  F   UNL     1      -9.964  18.480  68.954  1.00  0.00    -0.358 F  
HETATM   28  C   UNL     1     -11.007  16.472  68.298  1.00  0.00    -0.346 A  
HETATM   29  C   UNL     1      -9.434  16.460  65.984  1.00  0.00    -0.345 A  
HETATM   30  C   UNL     1      -9.312  17.499  66.910  1.00  0.00    -0.275 A  
HETATM   31  C   UNL     1     -11.120  15.440  67.372  1.00  0.00    -0.311 A  
HETATM   32  F   UNL     1     -11.998  14.456  67.608  1.00  0.00    -0.367 F  
ENDBRANCH  24  25
ENDBRANCH  22  24
ENDBRANCH   5  20
TORSDOF 3
ENDMDL
MODEL       81
REMARK 921   NORMALIZED FREE ENERGY PREDICTED BY IDOCK:   -6.18 KCAL/MOL
REMARK 922        TOTAL FREE ENERGY PREDICTED BY IDOCK:   -7.58 KCAL/MOL
REMARK 923 INTER-LIGAND FREE ENERGY PREDICTED BY IDOCK:   -7.18 KCAL/MOL
REMARK 924 INTRA-LIGAND FREE ENERGY PREDICTED BY IDOCK:   -0.40 KCAL/MOL
REMARK 927      BINDING AFFINITY PREDICTED BY RF-SCORE:    0.00 PKD
ROOT
HETATM    1  C   UNL     1      -9.399   8.035  67.879  1.00  0.00    -0.138 C  
HETATM    2  C   UNL     1      -9.845   9.503  67.793  1.00  0.00    -0.160 C  
HETATM    3  N   UNL     1     -10.040   9.974  66.415  1.00  0.00    -0.239 NA 
HETATM    4  C   UNL     1     -10.640  11.217  66.208  1.00  0.00    -0.263 C  
HETATM    5  C   UNL     1     -10.682  11.877  65.042  1.00  0.00    -0.341 C  
HETATM    6  C   UNL     1     -10.048  11.204  63.891  1.00  0.00    -0.348 C  
HETATM    7  C   UNL     1      -6.841   5.702  66.588  1.00  0.00    -0.063 C  
HETATM    8  C   UNL     1      -9.356   9.896  64.102  1.00  0.00    -0.237 C  
HETATM    9  C   UNL     1      -6.938   6.829  68.822  1.00  0.00    -0.079 C  
HETATM   10  O   UNL     1     -10.027  11.702  62.763  1.00  0.00    -0.263 OA 
HETATM   11  C   UNL     1      -7.106   7.029  67.318  1.00  0.00    -0.084 C  
HETATM   12  O   UNL     1      -7.873   7.582  64.691  1.00  0.00    -0.118 OA 
HETATM   13  C   UNL     1      -9.361   9.359  65.345  1.00  0.00    -0.247 C  
HETATM   14  O   UNL     1      -8.705   9.380  63.000  1.00  0.00    -0.213 OA 
HETATM   15  N   UNL     1      -8.336   7.738  66.933  1.00  0.00    -0.122 N  
HETATM   16  C   UNL     1      -8.493   8.131  65.598  1.00  0.00    -0.156 C  
HETATM   17  O   UNL     1      -9.024   7.859  69.248  1.00  0.00    -0.144 OA 
HETATM   18  H   UNL     1      -8.266   8.549  63.134  1.00  0.00     0.000 HD 
HETATM   19  C   UNL     1      -8.268   6.699  69.519  1.00  0.00    -0.130 C  
ENDROOT
BRANCH   5  20
HETATM   20  C   UNL     1     -11.315  13.223  64.989  1.00  0.00    -0.305 C  
HETATM   21  H   UNL     1      -9.461  14.105  65.179  1.00  0.00     0.000 HD 
HETATM   22  N   UNL     1     -10.454  14.286  65.033  1.00  0.00    -0.414 N  
HETATM   23  O   UNL     1     -12.545  13.352  64.912  1.00  0.00    -0.562 OA 
BRANCH  22  24
HETATM   24  C   UNL     1     -10.893  15.655  64.880  1.00  0.00    -0.418 C  
BRANCH  24  25
HETATM   25  C   UNL     1     -10.571  16.482  66.093  1.00  0.00    -0.239 A  
HETATM   26  C   UNL     1      -9.920  17.966  68.366  1.00  0.00    -0.367 A  
HETATM   27  F   UNL     1      -9.585  18.668  69.458  1.00  0.00    -0.127 F  
HETATM   28  C   UNL     1     -10.686  16.819  68.501  1.00  0.00    -0.358 A  
HETATM   29  C   UNL     1      -9.819  17.661  65.978  1.00  0.00    -0.184 A  
HETATM   30  C   UNL     1      -9.487  18.399  67.116  1.00  0.00    -0.282 A  
HETATM   31  C   UNL     1     -11.010  16.089  67.362  1.00  0.00    -0.237 A  
HETATM   32  F   UNL     1     -11.747  14.978  67.496  1.00  0.00    -0.344 F  
ENDBRANCH  24  25
ENDBRANCH  22  24
ENDBRANCH   5  20
TORSDOF 3
ENDMDL
MODEL       82
REMARK 921   NORMALIZED FREE ENERGY PREDICTED BY IDOCK:   -6.15 KCAL/MOL
REMARK 922        TOTAL FREE ENERGY PREDICTED BY IDOCK:   -7.55 KCAL/MOL
REMARK 923 INTER-LIGAND FREE ENERGY PREDICTED BY IDOCK:   -7.02 KCAL/MOL
REMARK 924 INTRA-LIGAND FREE ENERGY PREDICTED BY IDOCK:   -0.52 KCAL/MOL
REMARK 927      BINDING AFFINITY PREDICTED BY RF-SCORE:    0.00 PKD
ROOT
HETATM    1  C   UNL     1      -9.790   8.698  66.755  1.00  0.00    -0.253 C  
HETATM    2  C   UNL     1     -10.516  10.049  66.849  1.00  0.00    -0.218 C  
HETATM    3  N   UNL     1      -9.604  11.201  66.890  1.00  0.00    -0.184 NA 
HETATM    4  C   UNL     1     -10.137  12.484  66.766  1.00  0.00    -0.223 C  
HETATM    5  C   UNL     1      -9.478  13.627  67.005  1.00  0.00    -0.252 C  
HETATM    6  C   UNL     1      -8.067  13.490  67.417  1.00  0.00    -0.176 C  
HETATM    7  C   UNL     1      -7.148   6.706  68.402  1.00  0.00    -0.083 C  
HETATM    8  C   UNL     1      -7.492  12.123  67.604  1.00  0.00    -0.129 C  
HETATM    9  C   UNL     1      -9.634   6.471  68.603  1.00  0.00    -0.125 C  
HETATM   10  O   UNL     1      -7.350  14.464  67.658  1.00  0.00    -0.151 OA 
HETATM   11  C   UNL     1      -8.474   7.464  68.581  1.00  0.00    -0.129 C  
HETATM   12  O   UNL     1      -6.621   9.511  68.168  1.00  0.00    -0.061 OA 
HETATM   13  C   UNL     1      -8.284  11.053  67.359  1.00  0.00    -0.122 C  
HETATM   14  O   UNL     1      -6.198  12.080  68.083  1.00  0.00    -0.050 OA 
HETATM   15  N   UNL     1      -8.679   8.617  67.690  1.00  0.00    -0.135 N  
HETATM   16  C   UNL     1      -7.759   9.671  67.737  1.00  0.00    -0.094 C  
HETATM   17  O   UNL     1     -10.815   7.728  66.986  1.00  0.00    -0.316 OA 
HETATM   18  H   UNL     1      -5.833  11.211  68.202  1.00  0.00     0.000 HD 
HETATM   19  C   UNL     1     -10.356   6.427  67.281  1.00  0.00    -0.218 C  
ENDROOT
BRANCH   5  20
HETATM   20  C   UNL     1     -10.199  14.924  66.880  1.00  0.00    -0.254 C  
HETATM   21  H   UNL     1      -9.990  15.238  68.907  1.00  0.00     0.000 HD 
HETATM   22  N   UNL     1     -10.318  15.650  68.034  1.00  0.00    -0.241 N  
HETATM   23  O   UNL     1     -10.656  15.302  65.793  1.00  0.00    -0.308 OA 
BRANCH  22  24
HETATM   24  C   UNL     1     -10.889  16.978  68.066  1.00  0.00    -0.330 C  
BRANCH  24  25
HETATM   25  C   UNL     1      -9.832  18.041  67.948  1.00  0.00    -0.308 A  
HETATM   26  C   UNL     1      -7.904  20.053  67.785  1.00  0.00    -0.295 A  
HETATM   27  F   UNL     1      -6.983  21.025  67.731  1.00  0.00    -0.349 F  
HETATM   28  C   UNL     1      -9.171  20.283  67.271  1.00  0.00    -0.523 A  
HETATM   29  C   UNL     1      -8.536  17.821  68.438  1.00  0.00    -0.292 A  
HETATM   30  C   UNL     1      -7.574  18.830  68.363  1.00  0.00    -0.329 A  
HETATM   31  C   UNL     1     -10.124  19.273  67.351  1.00  0.00    -0.389 A  
HETATM   32  F   UNL     1     -11.348  19.501  66.858  1.00  0.00    -0.484 F  
ENDBRANCH  24  25
ENDBRANCH  22  24
ENDBRANCH   5  20
TORSDOF 3
ENDMDL
MODEL       83
REMARK 921   NORMALIZED FREE ENERGY PREDICTED BY IDOCK:   -6.08 KCAL/MOL
REMARK 922        TOTAL FREE ENERGY PREDICTED BY IDOCK:   -7.47 KCAL/MOL
REMARK 923 INTER-LIGAND FREE ENERGY PREDICTED BY IDOCK:   -7.16 KCAL/MOL
REMARK 924 INTRA-LIGAND FREE ENERGY PREDICTED BY IDOCK:   -0.31 KCAL/MOL
REMARK 927      BINDING AFFINITY PREDICTED BY RF-SCORE:    0.00 PKD
ROOT
HETATM    1  C   UNL     1     -11.094  14.987  67.184  1.00  0.00    -0.332 C  
HETATM    2  C   UNL     1     -10.186  14.058  66.364  1.00  0.00    -0.291 C  
HETATM    3  N   UNL     1     -10.526  12.635  66.504  1.00  0.00    -0.245 NA 
HETATM    4  C   UNL     1      -9.915  11.711  65.655  1.00  0.00    -0.240 C  
HETATM    5  C   UNL     1      -9.946  10.379  65.803  1.00  0.00    -0.334 C  
HETATM    6  C   UNL     1     -10.712   9.871  66.958  1.00  0.00    -0.167 C  
HETATM    7  C   UNL     1     -12.374  15.504  70.612  1.00  0.00    -0.462 C  
HETATM    8  C   UNL     1     -11.331  10.846  67.908  1.00  0.00    -0.308 C  
HETATM    9  C   UNL     1     -10.531  16.724  69.434  1.00  0.00    -0.312 C  
HETATM   10  O   UNL     1     -10.825   8.667  67.200  1.00  0.00    -0.212 OA 
HETATM   11  C   UNL     1     -11.127  15.349  69.724  1.00  0.00    -0.288 C  
HETATM   12  O   UNL     1     -12.218  12.779  69.745  1.00  0.00    -0.245 OA 
HETATM   13  C   UNL     1     -11.191  12.168  67.655  1.00  0.00    -0.286 C  
HETATM   14  O   UNL     1     -11.946  10.294  69.014  1.00  0.00    -0.541 OA 
HETATM   15  N   UNL     1     -11.287  14.494  68.538  1.00  0.00    -0.271 N  
HETATM   16  C   UNL     1     -11.653  13.155  68.722  1.00  0.00    -0.308 C  
HETATM   17  O   UNL     1     -10.450  16.261  67.117  1.00  0.00    -0.294 OA 
HETATM   18  H   UNL     1     -12.340  10.913  69.616  1.00  0.00     0.000 HD 
HETATM   19  C   UNL     1     -10.899  17.212  68.057  1.00  0.00    -0.317 C  
ENDROOT
BRANCH   5  20
HETATM   20  C   UNL     1      -9.199   9.522  64.842  1.00  0.00    -0.223 C  
HETATM   21  H   UNL     1      -8.391   8.461  66.415  1.00  0.00     0.000 HD 
HETATM   22  N   UNL     1      -8.457   8.515  65.399  1.00  0.00    -0.165 N  
HETATM   23  O   UNL     1      -9.258   9.723  63.622  1.00  0.00    -0.259 OA 
BRANCH  22  24
HETATM   24  C   UNL     1      -7.763   7.526  64.605  1.00  0.00    -0.122 C  
BRANCH  24  25
HETATM   25  C   UNL     1      -8.236   6.132  64.914  1.00  0.00    -0.125 A  
HETATM   26  C   UNL     1      -9.044   3.525  65.499  1.00  0.00    -0.147 A  
HETATM   27  F   UNL     1      -9.410   2.270  65.794  1.00  0.00    -0.133 F  
HETATM   28  C   UNL     1      -8.455   3.795  64.273  1.00  0.00    -0.091 A  
HETATM   29  C   UNL     1      -8.858   5.842  66.138  1.00  0.00    -0.146 A  
HETATM   30  C   UNL     1      -9.255   4.536  66.434  1.00  0.00    -0.137 A  
HETATM   31  C   UNL     1      -8.061   5.098  63.988  1.00  0.00    -0.119 A  
HETATM   32  F   UNL     1      -7.488   5.354  62.805  1.00  0.00    -0.042 F  
ENDBRANCH  24  25
ENDBRANCH  22  24
ENDBRANCH   5  20
TORSDOF 3
ENDMDL
MODEL       84
REMARK 921   NORMALIZED FREE ENERGY PREDICTED BY IDOCK:   -6.08 KCAL/MOL
REMARK 922        TOTAL FREE ENERGY PREDICTED BY IDOCK:   -7.47 KCAL/MOL
REMARK 923 INTER-LIGAND FREE ENERGY PREDICTED BY IDOCK:   -7.24 KCAL/MOL
REMARK 924 INTRA-LIGAND FREE ENERGY PREDICTED BY IDOCK:   -0.23 KCAL/MOL
REMARK 927      BINDING AFFINITY PREDICTED BY RF-SCORE:    0.00 PKD
ROOT
HETATM    1  C   UNL     1      -8.570  17.237  66.142  1.00  0.00    -0.172 C  
HETATM    2  C   UNL     1      -8.219  15.773  66.451  1.00  0.00    -0.171 C  
HETATM    3  N   UNL     1      -9.313  15.033  67.095  1.00  0.00    -0.208 NA 
HETATM    4  C   UNL     1      -9.197  13.650  67.237  1.00  0.00    -0.232 C  
HETATM    5  C   UNL     1      -9.990  12.875  67.991  1.00  0.00    -0.236 C  
HETATM    6  C   UNL     1     -11.082  13.564  68.706  1.00  0.00    -0.264 C  
HETATM    7  C   UNL     1      -9.871  20.305  67.738  1.00  0.00    -0.534 C  
HETATM    8  C   UNL     1     -11.193  15.052  68.607  1.00  0.00    -0.278 C  
HETATM    9  C   UNL     1      -7.501  19.725  67.173  1.00  0.00    -0.280 C  
HETATM   10  O   UNL     1     -11.885  12.965  69.425  1.00  0.00    -0.303 OA 
HETATM   11  C   UNL     1      -8.801  19.200  67.778  1.00  0.00    -0.301 C  
HETATM   12  O   UNL     1     -11.128  17.861  68.543  1.00  0.00     0.071 OA 
HETATM   13  C   UNL     1     -10.299  15.714  67.835  1.00  0.00    -0.259 C  
HETATM   14  O   UNL     1     -12.179  15.630  69.381  1.00  0.00    -0.524 OA 
HETATM   15  N   UNL     1      -9.220  17.885  67.270  1.00  0.00    -0.252 N  
HETATM   16  C   UNL     1     -10.295  17.238  67.892  1.00  0.00    -0.360 C  
HETATM   17  O   UNL     1      -7.323  17.829  65.772  1.00  0.00    -0.505 OA 
HETATM   18  H   UNL     1     -12.250  16.575  69.318  1.00  0.00     0.000 HD 
HETATM   19  C   UNL     1      -7.307  19.240  65.760  1.00  0.00    -0.235 C  
ENDROOT
BRANCH   5  20
HETATM   20  C   UNL     1      -9.708  11.416  68.085  1.00  0.00    -0.192 C  
HETATM   21  H   UNL     1     -11.544  11.005  67.241  1.00  0.00     0.000 HD 
HETATM   22  N   UNL     1     -10.673  10.592  67.573  1.00  0.00    -0.256 N  
HETATM   23  O   UNL     1      -8.662  10.996  68.598  1.00  0.00    -0.152 OA 
BRANCH  22  24
HETATM   24  C   UNL     1     -10.508   9.158  67.483  1.00  0.00    -0.270 C  
BRANCH  24  25
HETATM   25  C   UNL     1      -9.466   8.780  66.467  1.00  0.00    -0.281 A  
HETATM   26  C   UNL     1      -7.499   8.147  64.590  1.00  0.00    -0.096 A  
HETATM   27  F   UNL     1      -6.540   7.860  63.699  1.00  0.00    -0.060 F  
HETATM   28  C   UNL     1      -8.528   9.005  64.233  1.00  0.00    -0.185 A  
HETATM   29  C   UNL     1      -8.430   7.894  66.798  1.00  0.00    -0.129 A  
HETATM   30  C   UNL     1      -7.442   7.583  65.861  1.00  0.00    -0.082 A  
HETATM   31  C   UNL     1      -9.507   9.310  65.173  1.00  0.00    -0.114 A  
HETATM   32  F   UNL     1     -10.496  10.143  64.826  1.00  0.00    -0.381 F  
ENDBRANCH  24  25
ENDBRANCH  22  24
ENDBRANCH   5  20
TORSDOF 3
ENDMDL
MODEL       85
REMARK 921   NORMALIZED FREE ENERGY PREDICTED BY IDOCK:   -6.07 KCAL/MOL
REMARK 922        TOTAL FREE ENERGY PREDICTED BY IDOCK:   -7.46 KCAL/MOL
REMARK 923 INTER-LIGAND FREE ENERGY PREDICTED BY IDOCK:   -6.89 KCAL/MOL
REMARK 924 INTRA-LIGAND FREE ENERGY PREDICTED BY IDOCK:   -0.57 KCAL/MOL
REMARK 927      BINDING AFFINITY PREDICTED BY RF-SCORE:    0.00 PKD
ROOT
HETATM    1  C   UNL     1     -11.426  12.605  66.696  1.00  0.00    -0.351 C  
HETATM    2  C   UNL     1     -10.756  11.308  67.174  1.00  0.00    -0.253 C  
HETATM    3  N   UNL     1      -9.555  11.536  67.989  1.00  0.00    -0.174 NA 
HETATM    4  C   UNL     1      -8.977  10.453  68.653  1.00  0.00    -0.146 C  
HETATM    5  C   UNL     1      -7.773  10.453  69.241  1.00  0.00    -0.140 C  
HETATM    6  C   UNL     1      -7.021  11.723  69.184  1.00  0.00    -0.091 C  
HETATM    7  C   UNL     1     -10.689  15.774  64.944  1.00  0.00    -0.385 C  
HETATM    8  C   UNL     1      -7.601  12.879  68.434  1.00  0.00    -0.133 C  
HETATM    9  C   UNL     1     -11.790  13.712  64.042  1.00  0.00    -0.444 C  
HETATM   10  O   UNL     1      -5.906  11.857  69.694  1.00  0.00    -0.077 OA 
HETATM   11  C   UNL     1     -10.629  14.238  64.884  1.00  0.00    -0.431 C  
HETATM   12  O   UNL     1      -8.683  14.878  66.781  1.00  0.00    -0.243 OA 
HETATM   13  C   UNL     1      -8.816  12.728  67.856  1.00  0.00    -0.186 C  
HETATM   14  O   UNL     1      -6.795  13.997  68.344  1.00  0.00    -0.082 OA 
HETATM   15  N   UNL     1     -10.455  13.553  66.174  1.00  0.00    -0.291 N  
HETATM   16  C   UNL     1      -9.313  13.836  66.934  1.00  0.00    -0.261 C  
HETATM   17  O   UNL     1     -12.390  12.172  65.733  1.00  0.00    -0.564 OA 
HETATM   18  H   UNL     1      -7.164  14.731  67.869  1.00  0.00     0.000 HD 
HETATM   19  C   UNL     1     -12.910  13.188  64.904  1.00  0.00    -0.280 C  
ENDROOT
BRANCH   5  20
HETATM   20  C   UNL     1      -7.267   9.201  69.867  1.00  0.00    -0.062 C  
HETATM   21  H   UNL     1      -8.254   9.673  71.615  1.00  0.00     0.000 HD 
HETATM   22  N   UNL     1      -7.696   8.961  71.145  1.00  0.00    -0.130 N  
HETATM   23  O   UNL     1      -6.506   8.439  69.255  1.00  0.00    -0.038 OA 
BRANCH  22  24
HETATM   24  C   UNL     1      -7.390   7.739  71.855  1.00  0.00    -0.070 C  
BRANCH  24  25
HETATM   25  C   UNL     1      -8.637   6.982  72.222  1.00  0.00    -0.129 A  
HETATM   26  C   UNL     1     -10.991   5.638  72.887  1.00  0.00    -0.282 A  
HETATM   27  F   UNL     1     -12.135   5.008  73.191  1.00  0.00    -0.381 F  
HETATM   28  C   UNL     1     -10.482   6.588  73.759  1.00  0.00    -0.335 A  
HETATM   29  C   UNL     1      -9.156   5.999  71.367  1.00  0.00    -0.149 A  
HETATM   30  C   UNL     1     -10.339   5.332  71.696  1.00  0.00    -0.281 A  
HETATM   31  C   UNL     1      -9.305   7.249  73.422  1.00  0.00    -0.197 A  
HETATM   32  F   UNL     1      -8.819   8.169  74.266  1.00  0.00    -0.307 F  
ENDBRANCH  24  25
ENDBRANCH  22  24
ENDBRANCH   5  20
TORSDOF 3
ENDMDL
MODEL       86
REMARK 921   NORMALIZED FREE ENERGY PREDICTED BY IDOCK:   -6.05 KCAL/MOL
REMARK 922        TOTAL FREE ENERGY PREDICTED BY IDOCK:   -7.43 KCAL/MOL
REMARK 923 INTER-LIGAND FREE ENERGY PREDICTED BY IDOCK:   -6.77 KCAL/MOL
REMARK 924 INTRA-LIGAND FREE ENERGY PREDICTED BY IDOCK:   -0.66 KCAL/MOL
REMARK 927      BINDING AFFINITY PREDICTED BY RF-SCORE:    0.00 PKD
ROOT
HETATM    1  C   UNL     1     -11.442  12.977  66.953  1.00  0.00    -0.339 C  
HETATM    2  C   UNL     1     -10.827  11.647  67.417  1.00  0.00    -0.250 C  
HETATM    3  N   UNL     1      -9.563  11.813  68.151  1.00  0.00    -0.187 NA 
HETATM    4  C   UNL     1      -9.015  10.707  68.801  1.00  0.00    -0.172 C  
HETATM    5  C   UNL     1      -7.778  10.640  69.313  1.00  0.00    -0.142 C  
HETATM    6  C   UNL     1      -6.952  11.856  69.179  1.00  0.00    -0.079 C  
HETATM    7  C   UNL     1     -10.617  16.056  65.085  1.00  0.00    -0.394 C  
HETATM    8  C   UNL     1      -7.503  13.034  68.441  1.00  0.00    -0.128 C  
HETATM    9  C   UNL     1     -11.903  14.055  64.303  1.00  0.00    -0.435 C  
HETATM   10  O   UNL     1      -5.800  11.926  69.615  1.00  0.00    -0.077 OA 
HETATM   11  C   UNL     1     -10.660  14.519  65.057  1.00  0.00    -0.437 C  
HETATM   12  O   UNL     1      -8.559  15.067  66.813  1.00  0.00    -0.244 OA 
HETATM   13  C   UNL     1      -8.760  12.951  67.944  1.00  0.00    -0.186 C  
HETATM   14  O   UNL     1      -6.635  14.094  68.275  1.00  0.00    -0.091 OA 
HETATM   15  N   UNL     1     -10.448  13.849  66.349  1.00  0.00    -0.280 N  
HETATM   16  C   UNL     1      -9.244  14.071  67.029  1.00  0.00    -0.254 C  
HETATM   17  O   UNL     1     -12.491  12.589  66.062  1.00  0.00    -0.565 OA 
HETATM   18  H   UNL     1      -6.986  14.842  67.806  1.00  0.00     0.000 HD 
HETATM   19  C   UNL     1     -12.997  13.621  65.244  1.00  0.00    -0.259 C  
ENDROOT
BRANCH   5  20
HETATM   20  C   UNL     1      -7.314   9.369  69.935  1.00  0.00    -0.088 C  
HETATM   21  H   UNL     1      -8.186   9.922  71.720  1.00  0.00     0.000 HD 
HETATM   22  N   UNL     1      -7.693   9.172  71.235  1.00  0.00    -0.081 N  
HETATM   23  O   UNL     1      -6.629   8.556  69.299  1.00  0.00    -0.044 OA 
BRANCH  22  24
HETATM   24  C   UNL     1      -7.422   7.945  71.951  1.00  0.00    -0.080 C  
BRANCH  24  25
HETATM   25  C   UNL     1      -8.685   7.182  72.243  1.00  0.00    -0.133 A  
HETATM   26  C   UNL     1     -10.987   5.701  72.789  1.00  0.00    -0.276 A  
HETATM   27  F   UNL     1     -12.079   4.973  73.062  1.00  0.00    -0.373 F  
HETATM   28  C   UNL     1     -10.423   5.638  71.524  1.00  0.00    -0.298 A  
HETATM   29  C   UNL     1      -9.288   7.252  73.507  1.00  0.00    -0.253 A  
HETATM   30  C   UNL     1     -10.436   6.505  73.783  1.00  0.00    -0.335 A  
HETATM   31  C   UNL     1      -9.279   6.384  71.259  1.00  0.00    -0.156 A  
HETATM   32  F   UNL     1      -8.734   6.315  70.038  1.00  0.00    -0.133 F  
ENDBRANCH  24  25
ENDBRANCH  22  24
ENDBRANCH   5  20
TORSDOF 3
ENDMDL
MODEL       87
REMARK 921   NORMALIZED FREE ENERGY PREDICTED BY IDOCK:   -5.96 KCAL/MOL
REMARK 922        TOTAL FREE ENERGY PREDICTED BY IDOCK:   -7.33 KCAL/MOL
REMARK 923 INTER-LIGAND FREE ENERGY PREDICTED BY IDOCK:   -6.79 KCAL/MOL
REMARK 924 INTRA-LIGAND FREE ENERGY PREDICTED BY IDOCK:   -0.54 KCAL/MOL
REMARK 927      BINDING AFFINITY PREDICTED BY RF-SCORE:    0.00 PKD
ROOT
HETATM    1  C   UNL     1      -9.985  17.520  67.889  1.00  0.00    -0.312 C  
HETATM    2  C   UNL     1     -10.575  16.167  67.462  1.00  0.00    -0.314 C  
HETATM    3  N   UNL     1      -9.619  15.055  67.556  1.00  0.00    -0.203 NA 
HETATM    4  C   UNL     1     -10.087  13.751  67.396  1.00  0.00    -0.244 C  
HETATM    5  C   UNL     1      -9.321  12.663  67.232  1.00  0.00    -0.195 C  
HETATM    6  C   UNL     1      -7.862  12.888  67.242  1.00  0.00    -0.131 C  
HETATM    7  C   UNL     1      -7.121  19.765  67.249  1.00  0.00    -0.250 C  
HETATM    8  C   UNL     1      -7.341  14.285  67.362  1.00  0.00    -0.128 C  
HETATM    9  C   UNL     1      -9.468  19.948  66.394  1.00  0.00    -0.513 C  
HETATM   10  O   UNL     1      -7.049  11.971  67.110  1.00  0.00    -0.137 OA 
HETATM   11  C   UNL     1      -8.301  18.993  66.634  1.00  0.00    -0.301 C  
HETATM   12  O   UNL     1      -6.508  16.969  67.331  1.00  0.00    -0.129 OA 
HETATM   13  C   UNL     1      -8.233  15.296  67.487  1.00  0.00    -0.173 C  
HETATM   14  O   UNL     1      -5.970  14.421  67.265  1.00  0.00    -0.298 OA 
HETATM   15  N   UNL     1      -8.669  17.740  67.311  1.00  0.00    -0.234 N  
HETATM   16  C   UNL     1      -7.709  16.726  67.412  1.00  0.00    -0.169 C  
HETATM   17  O   UNL     1     -10.965  18.478  67.485  1.00  0.00    -0.371 OA 
HETATM   18  H   UNL     1      -5.640  15.308  67.342  1.00  0.00     0.000 HD 
HETATM   19  C   UNL     1     -10.523  19.817  67.463  1.00  0.00    -0.431 C  
ENDROOT
BRANCH   5  20
HETATM   20  C   UNL     1      -9.969  11.340  67.020  1.00  0.00    -0.198 C  
HETATM   21  H   UNL     1      -9.440  10.773  68.931  1.00  0.00     0.000 HD 
HETATM   22  N   UNL     1      -9.953  10.493  68.096  1.00  0.00    -0.150 N  
HETATM   23  O   UNL     1     -10.482  11.042  65.933  1.00  0.00    -0.254 OA 
BRANCH  22  24
HETATM   24  C   UNL     1     -10.634   9.217  68.096  1.00  0.00    -0.198 C  
BRANCH  24  25
HETATM   25  C   UNL     1      -9.718   8.098  67.683  1.00  0.00    -0.200 A  
HETATM   26  C   UNL     1      -8.023   6.044  66.847  1.00  0.00    -0.102 A  
HETATM   27  F   UNL     1      -7.203   5.071  66.425  1.00  0.00    -0.070 F  
HETATM   28  C   UNL     1      -9.383   5.947  66.595  1.00  0.00    -0.156 A  
HETATM   29  C   UNL     1      -8.342   8.162  67.950  1.00  0.00    -0.129 A  
HETATM   30  C   UNL     1      -7.493   7.138  67.524  1.00  0.00    -0.101 A  
HETATM   31  C   UNL     1     -10.221   6.973  67.021  1.00  0.00    -0.260 A  
HETATM   32  F   UNL     1     -11.533   6.878  66.772  1.00  0.00    -0.437 F  
ENDBRANCH  24  25
ENDBRANCH  22  24
ENDBRANCH   5  20
TORSDOF 3
ENDMDL
MODEL       88
REMARK 921   NORMALIZED FREE ENERGY PREDICTED BY IDOCK:   -5.95 KCAL/MOL
REMARK 922        TOTAL FREE ENERGY PREDICTED BY IDOCK:   -7.32 KCAL/MOL
REMARK 923 INTER-LIGAND FREE ENERGY PREDICTED BY IDOCK:   -6.72 KCAL/MOL
REMARK 924 INTRA-LIGAND FREE ENERGY PREDICTED BY IDOCK:   -0.59 KCAL/MOL
REMARK 927      BINDING AFFINITY PREDICTED BY RF-SCORE:    0.00 PKD
ROOT
HETATM    1  C   UNL     1      -7.353  10.301  66.866  1.00  0.00    -0.097 C  
HETATM    2  C   UNL     1      -7.661  11.778  66.577  1.00  0.00     0.046 C  
HETATM    3  N   UNL     1      -8.845  12.279  67.290  1.00  0.00    -0.182 NA 
HETATM    4  C   UNL     1      -9.108  13.649  67.276  1.00  0.00    -0.228 C  
HETATM    5  C   UNL     1     -10.248  14.227  67.680  1.00  0.00    -0.237 C  
HETATM    6  C   UNL     1     -11.291  13.318  68.194  1.00  0.00    -0.288 C  
HETATM    7  C   UNL     1      -8.925   6.957  66.860  1.00  0.00    -0.128 C  
HETATM    8  C   UNL     1     -11.048  11.842  68.171  1.00  0.00    -0.242 C  
HETATM    9  C   UNL     1      -7.391   7.962  65.155  1.00  0.00    -0.071 C  
HETATM   10  O   UNL     1     -12.381  13.724  68.604  1.00  0.00    -0.271 OA 
HETATM   11  C   UNL     1      -8.607   8.219  66.042  1.00  0.00    -0.149 C  
HETATM   12  O   UNL     1     -10.565   9.095  67.829  1.00  0.00    -0.248 OA 
HETATM   13  C   UNL     1      -9.860  11.394  67.702  1.00  0.00    -0.176 C  
HETATM   14  O   UNL     1     -12.107  11.056  68.578  1.00  0.00    -0.694 OA 
HETATM   15  N   UNL     1      -8.550   9.478  66.801  1.00  0.00    -0.127 N  
HETATM   16  C   UNL     1      -9.691   9.892  67.498  1.00  0.00    -0.160 C  
HETATM   17  O   UNL     1      -6.356   9.952  65.903  1.00  0.00    -0.075 OA 
HETATM   18  H   UNL     1     -11.952  10.119  68.563  1.00  0.00     0.000 HD 
HETATM   19  C   UNL     1      -6.139   8.568  65.736  1.00  0.00    -0.048 C  
ENDROOT
BRANCH   5  20
HETATM   20  C   UNL     1     -10.402  15.702  67.555  1.00  0.00    -0.277 C  
HETATM   21  H   UNL     1      -9.832  15.930  69.523  1.00  0.00     0.000 HD 
HETATM   22  N   UNL     1     -10.075  16.429  68.668  1.00  0.00    -0.232 N  
HETATM   23  O   UNL     1     -10.802  16.220  66.503  1.00  0.00    -0.240 OA 
BRANCH  22  24
HETATM   24  C   UNL     1     -10.061  17.875  68.681  1.00  0.00    -0.394 C  
BRANCH  24  25
HETATM   25  C   UNL     1      -8.827  18.425  68.018  1.00  0.00    -0.302 A  
HETATM   26  C   UNL     1      -6.549  19.510  66.826  1.00  0.00    -0.193 A  
HETATM   27  F   UNL     1      -5.453  20.048  66.272  1.00  0.00    -0.169 F  
HETATM   28  C   UNL     1      -7.802  19.897  66.374  1.00  0.00    -0.335 A  
HETATM   29  C   UNL     1      -7.550  18.028  68.441  1.00  0.00    -0.288 A  
HETATM   30  C   UNL     1      -6.410  18.578  67.850  1.00  0.00    -0.196 A  
HETATM   31  C   UNL     1      -8.932  19.346  66.971  1.00  0.00    -0.302 A  
HETATM   32  F   UNL     1     -10.140  19.725  66.535  1.00  0.00    -0.423 F  
ENDBRANCH  24  25
ENDBRANCH  22  24
ENDBRANCH   5  20
TORSDOF 3
ENDMDL
MODEL       89
REMARK 921   NORMALIZED FREE ENERGY PREDICTED BY IDOCK:   -5.92 KCAL/MOL
REMARK 922        TOTAL FREE ENERGY PREDICTED BY IDOCK:   -7.28 KCAL/MOL
REMARK 923 INTER-LIGAND FREE ENERGY PREDICTED BY IDOCK:   -6.81 KCAL/MOL
REMARK 924 INTRA-LIGAND FREE ENERGY PREDICTED BY IDOCK:   -0.47 KCAL/MOL
REMARK 927      BINDING AFFINITY PREDICTED BY RF-SCORE:    0.00 PKD
ROOT
HETATM    1  C   UNL     1     -10.136  15.125  68.155  1.00  0.00    -0.222 C  
HETATM    2  C   UNL     1     -10.729  13.730  67.902  1.00  0.00    -0.247 C  
HETATM    3  N   UNL     1      -9.726  12.655  67.927  1.00  0.00    -0.210 NA 
HETATM    4  C   UNL     1     -10.162  11.330  67.918  1.00  0.00    -0.181 C  
HETATM    5  C   UNL     1      -9.386  10.257  67.714  1.00  0.00    -0.156 C  
HETATM    6  C   UNL     1      -7.950  10.524  67.499  1.00  0.00    -0.107 C  
HETATM    7  C   UNL     1      -7.481  17.405  66.969  1.00  0.00    -0.229 C  
HETATM    8  C   UNL     1      -7.472  11.940  67.455  1.00  0.00    -0.148 C  
HETATM    9  C   UNL     1      -9.931  17.461  66.452  1.00  0.00    -0.322 C  
HETATM   10  O   UNL     1      -7.129   9.624  67.308  1.00  0.00    -0.084 OA 
HETATM   11  C   UNL     1      -8.705  16.559  66.580  1.00  0.00    -0.282 C  
HETATM   12  O   UNL     1      -6.756  14.639  67.136  1.00  0.00    -0.233 OA 
HETATM   13  C   UNL     1      -8.375  12.931  67.644  1.00  0.00    -0.176 C  
HETATM   14  O   UNL     1      -6.135  12.110  67.153  1.00  0.00    -0.143 OA 
HETATM   15  N   UNL     1      -8.926  15.344  67.380  1.00  0.00    -0.186 N  
HETATM   16  C   UNL     1      -7.923  14.368  67.404  1.00  0.00    -0.201 C  
HETATM   17  O   UNL     1     -11.200  16.025  67.837  1.00  0.00    -0.338 OA 
HETATM   18  H   UNL     1      -5.831  13.009  67.125  1.00  0.00     0.000 HD 
HETATM   19  C   UNL     1     -10.817  17.372  67.668  1.00  0.00    -0.233 C  
ENDROOT
BRANCH   5  20
HETATM   20  C   UNL     1     -10.006   8.904  67.681  1.00  0.00    -0.196 C  
HETATM   21  H   UNL     1      -9.522   8.632  69.666  1.00  0.00     0.000 HD 
HETATM   22  N   UNL     1     -10.006   8.223  68.868  1.00  0.00    -0.181 N  
HETATM   23  O   UNL     1     -10.484   8.441  66.636  1.00  0.00    -0.294 OA 
BRANCH  22  24
HETATM   24  C   UNL     1     -10.666   6.947  69.037  1.00  0.00    -0.230 C  
BRANCH  24  25
HETATM   25  C   UNL     1     -10.733   6.542  70.484  1.00  0.00    -0.305 A  
HETATM   26  C   UNL     1     -10.780   5.788  73.171  1.00  0.00    -0.262 A  
HETATM   27  F   UNL     1     -10.780   5.435  74.464  1.00  0.00    -0.285 F  
HETATM   28  C   UNL     1     -10.484   4.839  72.204  1.00  0.00    -0.243 A  
HETATM   29  C   UNL     1     -11.055   7.479  71.476  1.00  0.00    -0.263 A  
HETATM   30  C   UNL     1     -11.072   7.104  72.822  1.00  0.00    -0.339 A  
HETATM   31  C   UNL     1     -10.469   5.222  70.867  1.00  0.00    -0.215 A  
HETATM   32  F   UNL     1     -10.177   4.304  69.937  1.00  0.00    -0.298 F  
ENDBRANCH  24  25
ENDBRANCH  22  24
ENDBRANCH   5  20
TORSDOF 3
ENDMDL
MODEL       90
REMARK 921   NORMALIZED FREE ENERGY PREDICTED BY IDOCK:   -5.88 KCAL/MOL
REMARK 922        TOTAL FREE ENERGY PREDICTED BY IDOCK:   -7.23 KCAL/MOL
REMARK 923 INTER-LIGAND FREE ENERGY PREDICTED BY IDOCK:   -6.72 KCAL/MOL
REMARK 924 INTRA-LIGAND FREE ENERGY PREDICTED BY IDOCK:   -0.51 KCAL/MOL
REMARK 927      BINDING AFFINITY PREDICTED BY RF-SCORE:    0.00 PKD
ROOT
HETATM    1  C   UNL     1     -11.898  13.292  65.989  1.00  0.00    -0.395 C  
HETATM    2  C   UNL     1     -11.590  11.787  65.981  1.00  0.00    -0.134 C  
HETATM    3  N   UNL     1     -10.704  11.365  67.076  1.00  0.00    -0.248 NA 
HETATM    4  C   UNL     1     -10.518  10.001  67.301  1.00  0.00    -0.254 C  
HETATM    5  C   UNL     1      -9.583   9.464  68.099  1.00  0.00    -0.158 C  
HETATM    6  C   UNL     1      -8.701  10.419  68.800  1.00  0.00    -0.146 C  
HETATM    7  C   UNL     1     -10.235  16.590  66.080  1.00  0.00    -0.372 C  
HETATM    8  C   UNL     1      -8.853  11.882  68.533  1.00  0.00    -0.108 C  
HETATM    9  C   UNL     1     -11.228  15.398  64.114  1.00  0.00     0.127 C  
HETATM   10  O   UNL     1      -7.808  10.054  69.568  1.00  0.00    -0.121 OA 
HETATM   11  C   UNL     1     -10.352  15.239  65.355  1.00  0.00    -0.393 C  
HETATM   12  O   UNL     1      -9.072  14.571  67.744  1.00  0.00    -0.181 OA 
HETATM   13  C   UNL     1      -9.819  12.283  67.674  1.00  0.00    -0.196 C  
HETATM   14  O   UNL     1      -7.929  12.700  69.151  1.00  0.00    -0.319 OA 
HETATM   15  N   UNL     1     -10.699  14.086  66.200  1.00  0.00    -0.287 N  
HETATM   16  C   UNL     1      -9.843  13.749  67.256  1.00  0.00    -0.241 C  
HETATM   17  O   UNL     1     -12.538  13.529  64.733  1.00  0.00    -0.583 OA 
HETATM   18  H   UNL     1      -8.025  13.630  68.982  1.00  0.00     0.000 HD 
HETATM   19  C   UNL     1     -12.625  14.884  64.350  1.00  0.00    -0.028 C  
ENDROOT
BRANCH   5  20
HETATM   20  C   UNL     1      -9.472   7.983  68.198  1.00  0.00    -0.143 C  
HETATM   21  H   UNL     1     -11.282   7.913  69.184  1.00  0.00     0.000 HD 
HETATM   22  N   UNL     1     -10.533   7.347  68.784  1.00  0.00    -0.206 N  
HETATM   23  O   UNL     1      -8.475   7.384  67.773  1.00  0.00    -0.118 OA 
BRANCH  22  24
HETATM   24  C   UNL     1     -10.637   5.907  68.859  1.00  0.00    -0.288 C  
BRANCH  24  25
HETATM   25  C   UNL     1     -10.585   5.418  70.280  1.00  0.00    -0.329 A  
HETATM   26  C   UNL     1     -10.417   4.530  72.921  1.00  0.00    -0.190 A  
HETATM   27  F   UNL     1     -10.317   4.118  74.193  1.00  0.00    -0.170 F  
HETATM   28  C   UNL     1      -9.874   3.755  71.908  1.00  0.00    -0.248 A  
HETATM   29  C   UNL     1     -11.151   6.173  71.318  1.00  0.00    -0.351 A  
HETATM   30  C   UNL     1     -11.060   5.733  72.641  1.00  0.00    -0.325 A  
HETATM   31  C   UNL     1      -9.968   4.203  70.594  1.00  0.00    -0.114 A  
HETATM   32  F   UNL     1      -9.438   3.453  69.618  1.00  0.00    -0.201 F  
ENDBRANCH  24  25
ENDBRANCH  22  24
ENDBRANCH   5  20
TORSDOF 3
ENDMDL
MODEL       91
REMARK 921   NORMALIZED FREE ENERGY PREDICTED BY IDOCK:   -5.84 KCAL/MOL
REMARK 922        TOTAL FREE ENERGY PREDICTED BY IDOCK:   -7.19 KCAL/MOL
REMARK 923 INTER-LIGAND FREE ENERGY PREDICTED BY IDOCK:   -6.87 KCAL/MOL
REMARK 924 INTRA-LIGAND FREE ENERGY PREDICTED BY IDOCK:   -0.33 KCAL/MOL
REMARK 927      BINDING AFFINITY PREDICTED BY RF-SCORE:    0.00 PKD
ROOT
HETATM    1  C   UNL     1     -11.371   9.690  69.843  1.00  0.00    -0.159 C  
HETATM    2  C   UNL     1     -11.325  11.138  69.330  1.00  0.00    -0.281 C  
HETATM    3  N   UNL     1     -10.185  11.406  68.441  1.00  0.00    -0.192 NA 
HETATM    4  C   UNL     1     -10.145  12.616  67.747  1.00  0.00    -0.220 C  
HETATM    5  C   UNL     1      -9.084  13.100  67.086  1.00  0.00    -0.230 C  
HETATM    6  C   UNL     1      -7.874  12.254  67.093  1.00  0.00    -0.149 C  
HETATM    7  C   UNL     1      -9.292   7.146  71.535  1.00  0.00    -0.156 C  
HETATM    8  C   UNL     1      -7.880  10.978  67.872  1.00  0.00    -0.110 C  
HETATM    9  C   UNL     1     -11.092   8.590  72.510  1.00  0.00    -0.328 C  
HETATM   10  O   UNL     1      -6.834  12.581  66.515  1.00  0.00     0.294 OA 
HETATM   11  C   UNL     1      -9.868   8.571  71.596  1.00  0.00    -0.247 C  
HETATM   12  O   UNL     1      -7.944   8.748  69.581  1.00  0.00    -0.091 OA 
HETATM   13  C   UNL     1      -9.014  10.629  68.524  1.00  0.00    -0.156 C  
HETATM   14  O   UNL     1      -6.681  10.295  67.908  1.00  0.00    -0.065 OA 
HETATM   15  N   UNL     1     -10.067   9.239  70.301  1.00  0.00    -0.203 N  
HETATM   16  C   UNL     1      -8.956   9.435  69.471  1.00  0.00    -0.164 C  
HETATM   17  O   UNL     1     -12.370   9.709  70.865  1.00  0.00    -0.299 OA 
HETATM   18  H   UNL     1      -6.686   9.484  68.403  1.00  0.00     0.000 HD 
HETATM   19  C   UNL     1     -12.376   8.587  71.721  1.00  0.00    -0.338 C  
ENDROOT
BRANCH   5  20
HETATM   20  C   UNL     1      -9.177  14.435  66.435  1.00  0.00    -0.213 C  
HETATM   21  H   UNL     1      -7.464  15.034  67.414  1.00  0.00     0.000 HD 
HETATM   22  N   UNL     1      -8.163  15.308  66.724  1.00  0.00    -0.223 N  
HETATM   23  O   UNL     1     -10.121  14.720  65.685  1.00  0.00    -0.322 OA 
BRANCH  22  24
HETATM   24  C   UNL     1      -8.041  16.602  66.091  1.00  0.00    -0.238 C  
BRANCH  24  25
HETATM   25  C   UNL     1      -8.820  17.657  66.827  1.00  0.00    -0.275 A  
HETATM   26  C   UNL     1     -10.208  19.665  68.181  1.00  0.00    -0.461 A  
HETATM   27  F   UNL     1     -10.863  20.646  68.818  1.00  0.00    -0.255 F  
HETATM   28  C   UNL     1      -9.123  19.058  68.794  1.00  0.00    -0.374 A  
HETATM   29  C   UNL     1      -9.937  18.266  66.237  1.00  0.00    -0.361 A  
HETATM   30  C   UNL     1     -10.627  19.277  66.911  1.00  0.00    -0.557 A  
HETATM   31  C   UNL     1      -8.441  18.054  68.114  1.00  0.00    -0.269 A  
HETATM   32  F   UNL     1      -7.390  17.474  68.708  1.00  0.00    -0.223 F  
ENDBRANCH  24  25
ENDBRANCH  22  24
ENDBRANCH   5  20
TORSDOF 3
ENDMDL
MODEL       92
REMARK 921   NORMALIZED FREE ENERGY PREDICTED BY IDOCK:   -5.80 KCAL/MOL
REMARK 922        TOTAL FREE ENERGY PREDICTED BY IDOCK:   -7.14 KCAL/MOL
REMARK 923 INTER-LIGAND FREE ENERGY PREDICTED BY IDOCK:   -6.80 KCAL/MOL
REMARK 924 INTRA-LIGAND FREE ENERGY PREDICTED BY IDOCK:   -0.34 KCAL/MOL
REMARK 927      BINDING AFFINITY PREDICTED BY RF-SCORE:    0.00 PKD
ROOT
HETATM    1  C   UNL     1      -9.689   6.829  68.785  1.00  0.00    -0.132 C  
HETATM    2  C   UNL     1     -10.136   8.255  68.426  1.00  0.00    -0.201 C  
HETATM    3  N   UNL     1      -9.844   8.626  67.034  1.00  0.00    -0.197 NA 
HETATM    4  C   UNL     1     -10.382   9.809  66.527  1.00  0.00    -0.192 C  
HETATM    5  C   UNL     1     -10.032  10.391  65.371  1.00  0.00    -0.362 C  
HETATM    6  C   UNL     1      -9.000   9.694  64.579  1.00  0.00    -0.235 C  
HETATM    7  C   UNL     1      -6.744   4.601  68.679  1.00  0.00    -0.050 C  
HETATM    8  C   UNL     1      -8.375   8.451  65.128  1.00  0.00    -0.167 C  
HETATM    9  C   UNL     1      -7.681   5.855  70.633  1.00  0.00    -0.097 C  
HETATM   10  O   UNL     1      -8.597  10.120  63.494  1.00  0.00    -0.170 OA 
HETATM   11  C   UNL     1      -7.308   5.950  69.156  1.00  0.00    -0.083 C  
HETATM   12  O   UNL     1      -7.106   6.285  66.392  1.00  0.00    -0.065 OA 
HETATM   13  C   UNL     1      -8.802   7.993  66.328  1.00  0.00    -0.162 C  
HETATM   14  O   UNL     1      -7.352   7.914  64.373  1.00  0.00    -0.077 OA 
HETATM   15  N   UNL     1      -8.347   6.548  68.303  1.00  0.00    -0.117 N  
HETATM   16  C   UNL     1      -8.031   6.845  66.972  1.00  0.00    -0.116 C  
HETATM   17  O   UNL     1      -9.822   6.764  70.206  1.00  0.00    -0.174 OA 
HETATM   18  H   UNL     1      -6.955   7.125  64.722  1.00  0.00     0.000 HD 
HETATM   19  C   UNL     1      -9.166   5.678  70.822  1.00  0.00    -0.151 C  
ENDROOT
BRANCH   5  20
HETATM   20  C   UNL     1     -10.660  11.685  64.987  1.00  0.00    -0.289 C  
HETATM   21  H   UNL     1     -11.790  11.650  66.711  1.00  0.00     0.000 HD 
HETATM   22  N   UNL     1     -11.550  12.203  65.889  1.00  0.00    -0.384 N  
HETATM   23  O   UNL     1     -10.383  12.241  63.915  1.00  0.00    -0.369 OA 
BRANCH  22  24
HETATM   24  C   UNL     1     -12.163  13.502  65.724  1.00  0.00    -0.461 C  
BRANCH  24  25
HETATM   25  C   UNL     1     -11.441  14.562  66.509  1.00  0.00    -0.366 A  
HETATM   26  C   UNL     1     -10.144  16.582  67.934  1.00  0.00    -0.256 A  
HETATM   27  F   UNL     1      -9.542  17.567  68.616  1.00  0.00    -0.266 F  
HETATM   28  C   UNL     1      -9.854  16.406  66.590  1.00  0.00    -0.272 A  
HETATM   29  C   UNL     1     -11.699  14.742  67.876  1.00  0.00    -0.367 A  
HETATM   30  C   UNL     1     -11.056  15.758  68.588  1.00  0.00    -0.327 A  
HETATM   31  C   UNL     1     -10.501  15.393  65.889  1.00  0.00    -0.340 A  
HETATM   32  F   UNL     1     -10.222  15.229  64.590  1.00  0.00    -0.357 F  
ENDBRANCH  24  25
ENDBRANCH  22  24
ENDBRANCH   5  20
TORSDOF 3
ENDMDL
MODEL       93
REMARK 921   NORMALIZED FREE ENERGY PREDICTED BY IDOCK:   -5.69 KCAL/MOL
REMARK 922        TOTAL FREE ENERGY PREDICTED BY IDOCK:   -7.01 KCAL/MOL
REMARK 923 INTER-LIGAND FREE ENERGY PREDICTED BY IDOCK:   -6.42 KCAL/MOL
REMARK 924 INTRA-LIGAND FREE ENERGY PREDICTED BY IDOCK:   -0.59 KCAL/MOL
REMARK 927      BINDING AFFINITY PREDICTED BY RF-SCORE:    0.00 PKD
ROOT
HETATM    1  C   UNL     1     -11.068  10.849  65.557  1.00  0.00     0.146 C  
HETATM    2  C   UNL     1     -10.167   9.820  66.258  1.00  0.00    -0.212 C  
HETATM    3  N   UNL     1     -10.479   9.644  67.683  1.00  0.00    -0.245 NA 
HETATM    4  C   UNL     1      -9.875   8.596  68.378  1.00  0.00    -0.172 C  
HETATM    5  C   UNL     1      -9.879   8.440  69.710  1.00  0.00    -0.187 C  
HETATM    6  C   UNL     1     -10.605   9.468  70.482  1.00  0.00    -0.297 C  
HETATM    7  C   UNL     1     -12.265  14.332  65.853  1.00  0.00    -0.422 C  
HETATM    8  C   UNL     1     -11.216  10.626  69.760  1.00  0.00    -0.297 C  
HETATM    9  C   UNL     1     -10.475  13.419  64.358  1.00  0.00    -0.403 C  
HETATM   10  O   UNL     1     -10.691   9.435  71.712  1.00  0.00    -0.334 OA 
HETATM   11  C   UNL     1     -11.040  13.405  65.777  1.00  0.00    -0.282 C  
HETATM   12  O   UNL     1     -12.086  12.871  68.309  1.00  0.00    -0.294 OA 
HETATM   13  C   UNL     1     -11.105  10.674  68.411  1.00  0.00    -0.272 C  
HETATM   14  O   UNL     1     -11.791  11.592  70.560  1.00  0.00    -0.437 OA 
HETATM   15  N   UNL     1     -11.217  12.060  66.346  1.00  0.00    -0.322 N  
HETATM   16  C   UNL     1     -11.554  11.946  67.700  1.00  0.00    -0.312 C  
HETATM   17  O   UNL     1     -10.448  11.056  64.286  1.00  0.00    -0.338 OA 
HETATM   18  H   UNL     1     -12.180  12.327  70.101  1.00  0.00     0.000 HD 
HETATM   19  C   UNL     1     -10.888  12.195  63.581  1.00  0.00    -0.464 C  
ENDROOT
BRANCH   5  20
HETATM   20  C   UNL     1      -9.144   7.294  70.312  1.00  0.00    -0.152 C  
HETATM   21  H   UNL     1     -10.579   5.997  69.600  1.00  0.00     0.000 HD 
HETATM   22  N   UNL     1      -9.684   6.057  70.084  1.00  0.00    -0.164 N  
HETATM   23  O   UNL     1      -8.112   7.470  70.975  1.00  0.00    -0.098 OA 
BRANCH  22  24
HETATM   24  C   UNL     1      -9.037   4.834  70.502  1.00  0.00    -0.120 C  
BRANCH  24  25
HETATM   25  C   UNL     1      -8.553   4.031  69.326  1.00  0.00    -0.111 A  
HETATM   26  C   UNL     1      -7.628   2.489  67.191  1.00  0.00    -0.065 A  
HETATM   27  F   UNL     1      -7.184   1.728  66.181  1.00  0.00    -0.047 F  
HETATM   28  C   UNL     1      -6.721   3.219  67.944  1.00  0.00    -0.045 A  
HETATM   29  C   UNL     1      -9.455   3.304  68.535  1.00  0.00    -0.206 A  
HETATM   30  C   UNL     1      -8.991   2.526  67.471  1.00  0.00    -0.191 A  
HETATM   31  C   UNL     1      -7.192   3.990  69.003  1.00  0.00    -0.054 A  
HETATM   32  F   UNL     1      -6.313   4.691  69.730  1.00  0.00    -0.023 F  
ENDBRANCH  24  25
ENDBRANCH  22  24
ENDBRANCH   5  20
TORSDOF 3
ENDMDL
MODEL       94
REMARK 921   NORMALIZED FREE ENERGY PREDICTED BY IDOCK:   -5.66 KCAL/MOL
REMARK 922        TOTAL FREE ENERGY PREDICTED BY IDOCK:   -6.97 KCAL/MOL
REMARK 923 INTER-LIGAND FREE ENERGY PREDICTED BY IDOCK:   -6.60 KCAL/MOL
REMARK 924 INTRA-LIGAND FREE ENERGY PREDICTED BY IDOCK:   -0.37 KCAL/MOL
REMARK 927      BINDING AFFINITY PREDICTED BY RF-SCORE:    0.00 PKD
ROOT
HETATM    1  C   UNL     1      -8.405   5.435  66.277  1.00  0.00    -0.115 C  
HETATM    2  C   UNL     1      -9.500   6.502  66.120  1.00  0.00    -0.022 C  
HETATM    3  N   UNL     1      -9.372   7.615  67.072  1.00  0.00    -0.149 NA 
HETATM    4  C   UNL     1     -10.176   8.742  66.898  1.00  0.00    -0.287 C  
HETATM    5  C   UNL     1     -10.338   9.727  67.793  1.00  0.00    -0.274 C  
HETATM    6  C   UNL     1      -9.580   9.593  69.053  1.00  0.00    -0.168 C  
HETATM    7  C   UNL     1      -6.824   3.254  68.806  1.00  0.00    -0.045 C  
HETATM    8  C   UNL     1      -8.754   8.368  69.279  1.00  0.00    -0.138 C  
HETATM    9  C   UNL     1      -8.537   2.654  67.080  1.00  0.00    -0.120 C  
HETATM   10  O   UNL     1      -9.636  10.434  69.952  1.00  0.00    -0.128 OA 
HETATM   11  C   UNL     1      -8.139   3.685  68.134  1.00  0.00    -0.082 C  
HETATM   12  O   UNL     1      -7.456   5.907  69.679  1.00  0.00    -0.073 OA 
HETATM   13  C   UNL     1      -8.708   7.433  68.300  1.00  0.00    -0.122 C  
HETATM   14  O   UNL     1      -8.154   8.272  70.519  1.00  0.00    -0.098 OA 
HETATM   15  N   UNL     1      -8.195   5.080  67.671  1.00  0.00    -0.105 N  
HETATM   16  C   UNL     1      -8.027   6.104  68.610  1.00  0.00    -0.101 C  
HETATM   17  O   UNL     1      -8.850   4.349  65.462  1.00  0.00    -0.120 OA 
HETATM   18  H   UNL     1      -7.629   7.494  70.662  1.00  0.00     0.000 HD 
HETATM   19  C   UNL     1      -8.196   3.120  65.688  1.00  0.00    -0.091 C  
ENDROOT
BRANCH   5  20
HETATM   20  C   UNL     1     -11.273  10.845  67.485  1.00  0.00    -0.293 C  
HETATM   21  H   UNL     1     -10.191  11.284  65.786  1.00  0.00     0.000 HD 
HETATM   22  N   UNL     1     -11.026  11.521  66.321  1.00  0.00    -0.289 N  
HETATM   23  O   UNL     1     -12.206  11.129  68.248  1.00  0.00    -0.613 OA 
BRANCH  22  24
HETATM   24  C   UNL     1     -11.900  12.557  65.819  1.00  0.00    -0.437 C  
BRANCH  24  25
HETATM   25  C   UNL     1     -11.407  13.929  66.187  1.00  0.00    -0.323 A  
HETATM   26  C   UNL     1     -10.441  16.443  66.919  1.00  0.00    -0.289 A  
HETATM   27  F   UNL     1      -9.956  17.640  67.277  1.00  0.00    -0.283 F  
HETATM   28  C   UNL     1     -11.262  15.750  67.795  1.00  0.00    -0.286 A  
HETATM   29  C   UNL     1     -10.596  14.659  65.306  1.00  0.00    -0.409 A  
HETATM   30  C   UNL     1     -10.106  15.914  65.675  1.00  0.00    -0.388 A  
HETATM   31  C   UNL     1     -11.744  14.500  67.419  1.00  0.00    -0.400 A  
HETATM   32  F   UNL     1     -12.533  13.831  68.270  1.00  0.00    -0.351 F  
ENDBRANCH  24  25
ENDBRANCH  22  24
ENDBRANCH   5  20
TORSDOF 3
ENDMDL
MODEL       95
REMARK 921   NORMALIZED FREE ENERGY PREDICTED BY IDOCK:   -5.64 KCAL/MOL
REMARK 922        TOTAL FREE ENERGY PREDICTED BY IDOCK:   -6.96 KCAL/MOL
REMARK 923 INTER-LIGAND FREE ENERGY PREDICTED BY IDOCK:   -6.47 KCAL/MOL
REMARK 924 INTRA-LIGAND FREE ENERGY PREDICTED BY IDOCK:   -0.49 KCAL/MOL
REMARK 927      BINDING AFFINITY PREDICTED BY RF-SCORE:    0.00 PKD
ROOT
HETATM    1  C   UNL     1      -9.805   6.170  68.139  1.00  0.00    -0.131 C  
HETATM    2  C   UNL     1     -10.634   7.446  68.357  1.00  0.00    -0.152 C  
HETATM    3  N   UNL     1     -10.128   8.606  67.609  1.00  0.00    -0.198 NA 
HETATM    4  C   UNL     1     -10.907   9.763  67.558  1.00  0.00    -0.220 C  
HETATM    5  C   UNL     1     -10.494  10.960  67.116  1.00  0.00    -0.281 C  
HETATM    6  C   UNL     1      -9.101  11.029  66.634  1.00  0.00    -0.166 C  
HETATM    7  C   UNL     1      -6.335   4.908  68.282  1.00  0.00    -0.036 C  
HETATM    8  C   UNL     1      -8.235   9.814  66.727  1.00  0.00    -0.120 C  
HETATM    9  C   UNL     1      -8.175   4.607  69.955  1.00  0.00    -0.069 C  
HETATM   10  O   UNL     1      -8.603  12.069  66.195  1.00  0.00    -0.052 OA 
HETATM   11  C   UNL     1      -7.470   5.611  69.045  1.00  0.00    -0.083 C  
HETATM   12  O   UNL     1      -6.652   7.540  67.200  1.00  0.00    -0.058 OA 
HETATM   13  C   UNL     1      -8.774   8.677  67.228  1.00  0.00    -0.129 C  
HETATM   14  O   UNL     1      -6.920   9.987  66.346  1.00  0.00    -0.093 OA 
HETATM   15  N   UNL     1      -8.378   6.433  68.229  1.00  0.00    -0.116 N  
HETATM   16  C   UNL     1      -7.841   7.502  67.503  1.00  0.00    -0.116 C  
HETATM   17  O   UNL     1     -10.291   5.259  69.127  1.00  0.00    -0.220 OA 
HETATM   18  H   UNL     1      -6.370   9.214  66.406  1.00  0.00     0.000 HD 
HETATM   19  C   UNL     1      -9.475   4.132  69.359  1.00  0.00    -0.190 C  
ENDROOT
BRANCH   5  20
HETATM   20  C   UNL     1     -11.427  12.118  67.172  1.00  0.00    -0.346 C  
HETATM   21  H   UNL     1     -10.633  12.673  68.992  1.00  0.00     0.000 HD 
HETATM   22  N   UNL     1     -11.290  12.939  68.259  1.00  0.00    -0.269 N  
HETATM   23  O   UNL     1     -12.268  12.309  66.282  1.00  0.00    -0.628 OA 
BRANCH  22  24
HETATM   24  C   UNL     1     -12.038  14.166  68.411  1.00  0.00    -0.273 C  
BRANCH  24  25
HETATM   25  C   UNL     1     -11.261  15.356  67.919  1.00  0.00    -0.329 A  
HETATM   26  C   UNL     1      -9.757  17.536  67.038  1.00  0.00    -0.284 A  
HETATM   27  F   UNL     1      -9.013  18.569  66.616  1.00  0.00    -0.260 F  
HETATM   28  C   UNL     1     -10.118  17.456  68.374  1.00  0.00    -0.347 A  
HETATM   29  C   UNL     1     -10.907  15.471  66.566  1.00  0.00    -0.284 A  
HETATM   30  C   UNL     1     -10.147  16.558  66.127  1.00  0.00    -0.365 A  
HETATM   31  C   UNL     1     -10.873  16.369  68.803  1.00  0.00    -0.338 A  
HETATM   32  F   UNL     1     -11.216  16.293  70.095  1.00  0.00    -0.314 F  
ENDBRANCH  24  25
ENDBRANCH  22  24
ENDBRANCH   5  20
TORSDOF 3
ENDMDL
MODEL       96
REMARK 921   NORMALIZED FREE ENERGY PREDICTED BY IDOCK:   -5.64 KCAL/MOL
REMARK 922        TOTAL FREE ENERGY PREDICTED BY IDOCK:   -6.95 KCAL/MOL
REMARK 923 INTER-LIGAND FREE ENERGY PREDICTED BY IDOCK:   -6.50 KCAL/MOL
REMARK 924 INTRA-LIGAND FREE ENERGY PREDICTED BY IDOCK:   -0.45 KCAL/MOL
REMARK 927      BINDING AFFINITY PREDICTED BY RF-SCORE:    0.00 PKD
ROOT
HETATM    1  C   UNL     1      -7.447  14.832  67.387  1.00  0.00    -0.194 C  
HETATM    2  C   UNL     1      -7.493  13.436  68.029  1.00  0.00    -0.139 C  
HETATM    3  N   UNL     1      -8.837  12.842  68.040  1.00  0.00    -0.188 NA 
HETATM    4  C   UNL     1      -8.976  11.502  68.405  1.00  0.00    -0.173 C  
HETATM    5  C   UNL     1     -10.135  10.886  68.679  1.00  0.00    -0.200 C  
HETATM    6  C   UNL     1     -11.353  11.712  68.562  1.00  0.00    -0.274 C  
HETATM    7  C   UNL     1      -9.050  18.156  67.559  1.00  0.00    -0.254 C  
HETATM    8  C   UNL     1     -11.221  13.162  68.222  1.00  0.00    -0.274 C  
HETATM    9  C   UNL     1      -6.843  17.438  68.501  1.00  0.00    -0.203 C  
HETATM   10  O   UNL     1     -12.481  11.263  68.779  1.00  0.00    -0.444 OA 
HETATM   11  C   UNL     1      -8.312  17.053  68.336  1.00  0.00    -0.241 C  
HETATM   12  O   UNL     1     -10.812  15.916  67.836  1.00  0.00    -0.308 OA 
HETATM   13  C   UNL     1      -9.982  13.661  68.004  1.00  0.00    -0.247 C  
HETATM   14  O   UNL     1     -12.397  13.886  68.228  1.00  0.00    -0.493 OA 
HETATM   15  N   UNL     1      -8.530  15.678  67.860  1.00  0.00    -0.149 N  
HETATM   16  C   UNL     1      -9.835  15.172  67.852  1.00  0.00    -0.216 C  
HETATM   17  O   UNL     1      -6.143  15.325  67.704  1.00  0.00    -0.180 OA 
HETATM   18  H   UNL     1     -12.313  14.807  68.012  1.00  0.00     0.000 HD 
HETATM   19  C   UNL     1      -5.963  16.711  67.516  1.00  0.00    -0.152 C  
ENDROOT
BRANCH   5  20
HETATM   20  C   UNL     1     -10.119   9.461  69.106  1.00  0.00    -0.195 C  
HETATM   21  H   UNL     1      -8.688   9.047  67.680  1.00  0.00     0.000 HD 
HETATM   22  N   UNL     1      -9.222   8.657  68.456  1.00  0.00    -0.138 N  
HETATM   23  O   UNL     1     -10.878   9.047  69.993  1.00  0.00    -0.229 OA 
BRANCH  22  24
HETATM   24  C   UNL     1      -9.000   7.276  68.825  1.00  0.00    -0.129 C  
BRANCH  24  25
HETATM   25  C   UNL     1      -9.257   6.344  67.672  1.00  0.00    -0.116 A  
HETATM   26  C   UNL     1      -9.760   4.673  65.494  1.00  0.00    -0.181 A  
HETATM   27  F   UNL     1     -10.000   3.891  64.432  1.00  0.00    -0.152 F  
HETATM   28  C   UNL     1     -10.822   5.125  66.263  1.00  0.00    -0.180 A  
HETATM   29  C   UNL     1      -8.196   5.854  66.897  1.00  0.00    -0.105 A  
HETATM   30  C   UNL     1      -8.449   5.024  65.802  1.00  0.00    -0.124 A  
HETATM   31  C   UNL     1     -10.561   5.953  67.350  1.00  0.00    -0.282 A  
HETATM   32  F   UNL     1     -11.590   6.391  68.087  1.00  0.00    -0.337 F  
ENDBRANCH  24  25
ENDBRANCH  22  24
ENDBRANCH   5  20
TORSDOF 3
ENDMDL
MODEL       97
REMARK 921   NORMALIZED FREE ENERGY PREDICTED BY IDOCK:   -5.60 KCAL/MOL
REMARK 922        TOTAL FREE ENERGY PREDICTED BY IDOCK:   -6.90 KCAL/MOL
REMARK 923 INTER-LIGAND FREE ENERGY PREDICTED BY IDOCK:   -6.59 KCAL/MOL
REMARK 924 INTRA-LIGAND FREE ENERGY PREDICTED BY IDOCK:   -0.32 KCAL/MOL
REMARK 927      BINDING AFFINITY PREDICTED BY RF-SCORE:    0.00 PKD
ROOT
HETATM    1  C   UNL     1      -9.121  15.465  68.360  1.00  0.00    -0.191 C  
HETATM    2  C   UNL     1      -9.492  14.043  68.809  1.00  0.00    -0.075 C  
HETATM    3  N   UNL     1      -9.559  13.079  67.702  1.00  0.00    -0.200 NA 
HETATM    4  C   UNL     1      -9.682  11.721  68.000  1.00  0.00    -0.185 C  
HETATM    5  C   UNL     1      -9.978  10.755  67.119  1.00  0.00    -0.230 C  
HETATM    6  C   UNL     1     -10.169  11.186  65.720  1.00  0.00    -0.257 C  
HETATM    7  C   UNL     1     -10.107  18.098  65.963  1.00  0.00    -0.272 C  
HETATM    8  C   UNL     1     -10.091  12.642  65.390  1.00  0.00    -0.261 C  
HETATM    9  C   UNL     1     -10.617  17.946  68.410  1.00  0.00    -0.275 C  
HETATM   10  O   UNL     1     -10.436  10.394  64.813  1.00  0.00    -0.261 OA 
HETATM   11  C   UNL     1     -10.567  17.167  67.097  1.00  0.00    -0.244 C  
HETATM   12  O   UNL     1     -10.177  15.418  64.957  1.00  0.00    -0.357 OA 
HETATM   13  C   UNL     1      -9.818  13.515  66.388  1.00  0.00    -0.295 C  
HETATM   14  O   UNL     1     -10.377  12.973  64.080  1.00  0.00    -0.461 OA 
HETATM   15  N   UNL     1      -9.874  15.873  67.185  1.00  0.00    -0.229 N  
HETATM   16  C   UNL     1      -9.933  15.006  66.087  1.00  0.00    -0.291 C  
HETATM   17  O   UNL     1      -9.360  16.275  69.513  1.00  0.00    -0.186 OA 
HETATM   18  H   UNL     1     -10.328  13.898  63.870  1.00  0.00     0.000 HD 
HETATM   19  C   UNL     1      -9.413  17.663  69.272  1.00  0.00     0.110 C  
ENDROOT
BRANCH   5  20
HETATM   20  C   UNL     1     -10.126   9.353  67.598  1.00  0.00    -0.211 C  
HETATM   21  H   UNL     1     -10.672  10.046  69.462  1.00  0.00     0.000 HD 
HETATM   22  N   UNL     1     -10.559   9.210  68.889  1.00  0.00    -0.215 N  
HETATM   23  O   UNL     1      -9.869   8.392  66.861  1.00  0.00    -0.198 OA 
BRANCH  22  24
HETATM   24  C   UNL     1     -10.862   7.923  69.473  1.00  0.00    -0.136 C  
BRANCH  24  25
HETATM   25  C   UNL     1     -10.118   7.707  70.762  1.00  0.00    -0.189 A  
HETATM   26  C   UNL     1      -8.787   7.255  73.173  1.00  0.00    -0.140 A  
HETATM   27  F   UNL     1      -8.158   7.014  74.332  1.00  0.00    -0.126 F  
HETATM   28  C   UNL     1      -9.976   7.968  73.177  1.00  0.00    -0.316 A  
HETATM   29  C   UNL     1      -8.901   7.011  70.778  1.00  0.00    -0.149 A  
HETATM   30  C   UNL     1      -8.238   6.777  71.986  1.00  0.00    -0.104 A  
HETATM   31  C   UNL     1     -10.629   8.194  71.970  1.00  0.00    -0.269 A  
HETATM   32  F   UNL     1     -11.779   8.880  71.979  1.00  0.00    -0.374 F  
ENDBRANCH  24  25
ENDBRANCH  22  24
ENDBRANCH   5  20
TORSDOF 3
ENDMDL
MODEL       98
REMARK 921   NORMALIZED FREE ENERGY PREDICTED BY IDOCK:   -5.57 KCAL/MOL
REMARK 922        TOTAL FREE ENERGY PREDICTED BY IDOCK:   -6.87 KCAL/MOL
REMARK 923 INTER-LIGAND FREE ENERGY PREDICTED BY IDOCK:   -6.32 KCAL/MOL
REMARK 924 INTRA-LIGAND FREE ENERGY PREDICTED BY IDOCK:   -0.55 KCAL/MOL
REMARK 927      BINDING AFFINITY PREDICTED BY RF-SCORE:    0.00 PKD
ROOT
HETATM    1  C   UNL     1     -11.608  12.675  65.476  1.00  0.00    -0.370 C  
HETATM    2  C   UNL     1     -11.019  11.319  65.056  1.00  0.00    -0.156 C  
HETATM    3  N   UNL     1     -10.406  10.578  66.168  1.00  0.00    -0.233 NA 
HETATM    4  C   UNL     1     -10.023   9.253  65.962  1.00  0.00    -0.255 C  
HETATM    5  C   UNL     1      -9.260   8.525  66.789  1.00  0.00    -0.215 C  
HETATM    6  C   UNL     1      -8.813   9.201  68.024  1.00  0.00    -0.129 C  
HETATM    7  C   UNL     1     -10.721  15.802  67.233  1.00  0.00    -0.313 C  
HETATM    8  C   UNL     1      -9.171  10.636  68.239  1.00  0.00    -0.153 C  
HETATM    9  C   UNL     1     -10.875  15.388  64.768  1.00  0.00    -0.385 C  
HETATM   10  O   UNL     1      -8.114   8.639  68.871  1.00  0.00    -0.114 OA 
HETATM   11  C   UNL     1     -10.363  14.831  66.095  1.00  0.00    -0.304 C  
HETATM   12  O   UNL     1      -9.690  13.394  68.392  1.00  0.00    -0.221 OA 
HETATM   13  C   UNL     1      -9.921  11.260  67.301  1.00  0.00    -0.183 C  
HETATM   14  O   UNL     1      -8.635  11.222  69.369  1.00  0.00    -0.370 OA 
HETATM   15  N   UNL     1     -10.696  13.418  66.329  1.00  0.00    -0.285 N  
HETATM   16  C   UNL     1     -10.118  12.767  67.426  1.00  0.00    -0.219 C  
HETATM   17  O   UNL     1     -11.909  13.328  64.240  1.00  0.00    -0.377 OA 
HETATM   18  H   UNL     1      -8.863  12.134  69.505  1.00  0.00     0.000 HD 
HETATM   19  C   UNL     1     -12.152  14.714  64.337  1.00  0.00    -0.462 C  
ENDROOT
BRANCH   5  20
HETATM   20  C   UNL     1      -8.890   7.135  66.407  1.00  0.00    -0.145 C  
HETATM   21  H   UNL     1     -10.780   6.490  66.920  1.00  0.00     0.000 HD 
HETATM   22  N   UNL     1      -9.889   6.205  66.516  1.00  0.00    -0.155 N  
HETATM   23  O   UNL     1      -7.747   6.857  66.020  1.00  0.00    -0.090 OA 
BRANCH  22  24
HETATM   24  C   UNL     1      -9.731   4.835  66.081  1.00  0.00    -0.196 C  
BRANCH  24  25
HETATM   25  C   UNL     1      -9.350   3.930  67.220  1.00  0.00    -0.220 A  
HETATM   26  C   UNL     1      -8.573   2.277  69.331  1.00  0.00    -0.061 A  
HETATM   27  F   UNL     1      -8.181   1.500  70.350  1.00  0.00    -0.043 F  
HETATM   28  C   UNL     1      -8.181   1.959  68.040  1.00  0.00    -0.071 A  
HETATM   29  C   UNL     1      -9.757   4.218  68.531  1.00  0.00    -0.164 A  
HETATM   30  C   UNL     1      -9.361   3.395  69.589  1.00  0.00    -0.241 A  
HETATM   31  C   UNL     1      -8.578   2.785  66.993  1.00  0.00    -0.108 A  
HETATM   32  F   UNL     1      -8.194   2.477  65.748  1.00  0.00    -0.080 F  
ENDBRANCH  24  25
ENDBRANCH  22  24
ENDBRANCH   5  20
TORSDOF 3
ENDMDL
MODEL       99
REMARK 921   NORMALIZED FREE ENERGY PREDICTED BY IDOCK:   -5.57 KCAL/MOL
REMARK 922        TOTAL FREE ENERGY PREDICTED BY IDOCK:   -6.87 KCAL/MOL
REMARK 923 INTER-LIGAND FREE ENERGY PREDICTED BY IDOCK:   -6.24 KCAL/MOL
REMARK 924 INTRA-LIGAND FREE ENERGY PREDICTED BY IDOCK:   -0.63 KCAL/MOL
REMARK 927      BINDING AFFINITY PREDICTED BY RF-SCORE:    0.00 PKD
ROOT
HETATM    1  C   UNL     1      -8.082   8.789  68.462  1.00  0.00    -0.116 C  
HETATM    2  C   UNL     1      -7.301  10.105  68.319  1.00  0.00    -0.081 C  
HETATM    3  N   UNL     1      -8.147  11.302  68.423  1.00  0.00    -0.136 NA 
HETATM    4  C   UNL     1      -7.534  12.552  68.517  1.00  0.00    -0.122 C  
HETATM    5  C   UNL     1      -8.154  13.734  68.394  1.00  0.00    -0.148 C  
HETATM    6  C   UNL     1      -9.610  13.682  68.156  1.00  0.00    -0.221 C  
HETATM    7  C   UNL     1     -11.008   6.992  67.098  1.00  0.00    -0.393 C  
HETATM    8  C   UNL     1     -10.277  12.353  68.002  1.00  0.00    -0.219 C  
HETATM    9  C   UNL     1      -8.582   6.639  66.585  1.00  0.00    -0.123 C  
HETATM   10  O   UNL     1     -10.298  14.699  68.032  1.00  0.00    -0.231 OA 
HETATM   11  C   UNL     1      -9.675   7.688  66.779  1.00  0.00    -0.222 C  
HETATM   12  O   UNL     1     -11.351   9.810  67.476  1.00  0.00    -0.055 OA 
HETATM   13  C   UNL     1      -9.520  11.237  68.116  1.00  0.00    -0.184 C  
HETATM   14  O   UNL     1     -11.620  12.392  67.685  1.00  0.00    -0.316 OA 
HETATM   15  N   UNL     1      -9.301   8.797  67.670  1.00  0.00    -0.136 N  
HETATM   16  C   UNL     1     -10.161   9.898  67.767  1.00  0.00    -0.197 C  
HETATM   17  O   UNL     1      -7.147   7.778  68.079  1.00  0.00    -0.080 OA 
HETATM   18  H   UNL     1     -12.044  11.548  67.588  1.00  0.00     0.000 HD 
HETATM   19  C   UNL     1      -7.708   6.513  67.806  1.00  0.00    -0.107 C  
ENDROOT
BRANCH   5  20
HETATM   20  C   UNL     1      -7.354  14.987  68.466  1.00  0.00    -0.117 C  
HETATM   21  H   UNL     1      -7.414  15.146  66.411  1.00  0.00     0.000 HD 
HETATM   22  N   UNL     1      -7.114  15.607  67.269  1.00  0.00    -0.210 N  
HETATM   23  O   UNL     1      -6.941  15.424  69.549  1.00  0.00    -0.162 OA 
BRANCH  22  24
HETATM   24  C   UNL     1      -6.451  16.889  67.173  1.00  0.00    -0.188 C  
BRANCH  24  25
HETATM   25  C   UNL     1      -7.432  18.028  67.221  1.00  0.00    -0.213 A  
HETATM   26  C   UNL     1      -9.198  20.188  67.288  1.00  0.00    -0.382 A  
HETATM   27  F   UNL     1     -10.032  21.237  67.304  1.00  0.00    -0.560 F  
HETATM   28  C   UNL     1      -8.244  20.059  68.286  1.00  0.00    -0.188 A  
HETATM   29  C   UNL     1      -8.422  18.163  66.237  1.00  0.00    -0.213 A  
HETATM   30  C   UNL     1      -9.301  19.249  66.266  1.00  0.00    -0.375 A  
HETATM   31  C   UNL     1      -7.372  18.976  68.248  1.00  0.00    -0.284 A  
HETATM   32  F   UNL     1      -6.449  18.858  69.211  1.00  0.00    -0.262 F  
ENDBRANCH  24  25
ENDBRANCH  22  24
ENDBRANCH   5  20
TORSDOF 3
ENDMDL
MODEL      100
REMARK 921   NORMALIZED FREE ENERGY PREDICTED BY IDOCK:   -5.56 KCAL/MOL
REMARK 922        TOTAL FREE ENERGY PREDICTED BY IDOCK:   -6.86 KCAL/MOL
REMARK 923 INTER-LIGAND FREE ENERGY PREDICTED BY IDOCK:   -6.35 KCAL/MOL
REMARK 924 INTRA-LIGAND FREE ENERGY PREDICTED BY IDOCK:   -0.50 KCAL/MOL
REMARK 927      BINDING AFFINITY PREDICTED BY RF-SCORE:    0.00 PKD
ROOT
HETATM    1  C   UNL     1      -7.988   6.885  67.560  1.00  0.00    -0.112 C  
HETATM    2  C   UNL     1      -9.156   7.847  67.828  1.00  0.00    -0.134 C  
HETATM    3  N   UNL     1      -9.729   7.708  69.175  1.00  0.00    -0.162 NA 
HETATM    4  C   UNL     1     -10.652   8.659  69.613  1.00  0.00    -0.218 C  
HETATM    5  C   UNL     1     -11.421   8.550  70.705  1.00  0.00    -0.281 C  
HETATM    6  C   UNL     1     -11.247   7.321  71.504  1.00  0.00    -0.245 C  
HETATM    7  C   UNL     1      -7.088   3.305  67.709  1.00  0.00    -0.050 C  
HETATM    8  C   UNL     1     -10.300   6.268  71.024  1.00  0.00    -0.211 C  
HETATM    9  C   UNL     1      -7.710   4.674  65.707  1.00  0.00    -0.094 C  
HETATM   10  O   UNL     1     -11.888   7.105  72.536  1.00  0.00    -0.229 OA 
HETATM   11  C   UNL     1      -8.068   4.352  67.156  1.00  0.00    -0.101 C  
HETATM   12  O   UNL     1      -8.692   4.270  69.876  1.00  0.00    -0.067 OA 
HETATM   13  C   UNL     1      -9.611   6.496  69.882  1.00  0.00    -0.154 C  
HETATM   14  O   UNL     1     -10.266   5.110  71.774  1.00  0.00    -0.196 OA 
HETATM   15  N   UNL     1      -8.289   5.534  68.004  1.00  0.00    -0.100 N  
HETATM   16  C   UNL     1      -8.799   5.346  69.294  1.00  0.00    -0.101 C  
HETATM   17  O   UNL     1      -7.755   6.996  66.154  1.00  0.00    -0.089 OA 
HETATM   18  H   UNL     1      -9.664   4.441  71.469  1.00  0.00     0.000 HD 
HETATM   19  C   UNL     1      -6.957   5.975  65.595  1.00  0.00    -0.061 C  
ENDROOT
BRANCH   5  20
HETATM   20  C   UNL     1     -12.400   9.628  71.017  1.00  0.00    -0.310 C  
HETATM   21  H   UNL     1     -10.857  10.985  71.179  1.00  0.00     0.000 HD 
HETATM   22  N   UNL     1     -11.871  10.878  71.190  1.00  0.00    -0.204 N  
HETATM   23  O   UNL     1     -13.612   9.387  71.111  1.00  0.00    -0.316 OA 
BRANCH  22  24
HETATM   24  C   UNL     1     -12.691  12.053  71.387  1.00  0.00    -0.275 C  
BRANCH  24  25
HETATM   25  C   UNL     1     -12.391  13.117  70.367  1.00  0.00    -0.351 A  
HETATM   26  C   UNL     1     -11.779  15.116  68.517  1.00  0.00    -0.325 A  
HETATM   27  F   UNL     1     -11.460  16.075  67.637  1.00  0.00    -0.284 F  
HETATM   28  C   UNL     1     -12.399  15.460  69.708  1.00  0.00    -0.288 A  
HETATM   29  C   UNL     1     -11.787  12.789  69.145  1.00  0.00    -0.352 A  
HETATM   30  C   UNL     1     -11.473  13.790  68.222  1.00  0.00    -0.348 A  
HETATM   31  C   UNL     1     -12.706  14.457  70.622  1.00  0.00    -0.357 A  
HETATM   32  F   UNL     1     -13.302  14.794  71.773  1.00  0.00    -0.340 F  
ENDBRANCH  24  25
ENDBRANCH  22  24
ENDBRANCH   5  20
TORSDOF 3
ENDMDL
MODEL      101
REMARK 921   NORMALIZED FREE ENERGY PREDICTED BY IDOCK:   -5.53 KCAL/MOL
REMARK 922        TOTAL FREE ENERGY PREDICTED BY IDOCK:   -6.82 KCAL/MOL
REMARK 923 INTER-LIGAND FREE ENERGY PREDICTED BY IDOCK:   -6.35 KCAL/MOL
REMARK 924 INTRA-LIGAND FREE ENERGY PREDICTED BY IDOCK:   -0.47 KCAL/MOL
REMARK 927      BINDING AFFINITY PREDICTED BY RF-SCORE:    0.00 PKD
ROOT
HETATM    1  C   UNL     1      -9.213  16.523  66.498  1.00  0.00    -0.272 C  
HETATM    2  C   UNL     1      -9.093  14.993  66.577  1.00  0.00    -0.286 C  
HETATM    3  N   UNL     1     -10.096  14.373  67.455  1.00  0.00    -0.241 NA 
HETATM    4  C   UNL     1     -10.226  12.984  67.449  1.00  0.00    -0.231 C  
HETATM    5  C   UNL     1     -10.922  12.264  68.340  1.00  0.00    -0.270 C  
HETATM    6  C   UNL     1     -11.615  13.029  69.395  1.00  0.00    -0.299 C  
HETATM    7  C   UNL     1      -9.383  19.532  68.637  1.00  0.00    -0.430 C  
HETATM    8  C   UNL     1     -11.447  14.514  69.448  1.00  0.00    -0.285 C  
HETATM    9  C   UNL     1      -7.425  18.635  67.359  1.00  0.00    -0.226 C  
HETATM   10  O   UNL     1     -12.295  12.486  70.269  1.00  0.00    -0.277 OA 
HETATM   11  C   UNL     1      -8.589  18.265  68.276  1.00  0.00    -0.285 C  
HETATM   12  O   UNL     1     -10.838  17.254  69.584  1.00  0.00    -0.082 OA 
HETATM   13  C   UNL     1     -10.684  15.109  68.501  1.00  0.00    -0.240 C  
HETATM   14  O   UNL     1     -12.047  15.145  70.520  1.00  0.00    -0.293 OA 
HETATM   15  N   UNL     1      -9.386  17.119  67.813  1.00  0.00    -0.242 N  
HETATM   16  C   UNL     1     -10.357  16.589  68.671  1.00  0.00    -0.287 C  
HETATM   17  O   UNL     1      -8.022  16.938  65.825  1.00  0.00    -0.374 OA 
HETATM   18  H   UNL     1     -11.941  16.088  70.553  1.00  0.00     0.000 HD 
HETATM   19  C   UNL     1      -7.727  18.314  65.918  1.00  0.00    -0.085 C  
ENDROOT
BRANCH   5  20
HETATM   20  C   UNL     1     -10.925  10.779  68.235  1.00  0.00    -0.255 C  
HETATM   21  H   UNL     1      -9.971  10.646  70.058  1.00  0.00     0.000 HD 
HETATM   22  N   UNL     1     -10.399  10.107  69.306  1.00  0.00    -0.208 N  
HETATM   23  O   UNL     1     -11.377  10.207  67.233  1.00  0.00    -0.221 OA 
BRANCH  22  24
HETATM   24  C   UNL     1     -10.427   8.666  69.414  1.00  0.00    -0.218 C  
BRANCH  24  25
HETATM   25  C   UNL     1      -9.207   8.038  68.797  1.00  0.00    -0.143 A  
HETATM   26  C   UNL     1      -6.945   6.820  67.706  1.00  0.00    -0.083 A  
HETATM   27  F   UNL     1      -5.865   6.214  67.192  1.00  0.00    -0.014 F  
HETATM   28  C   UNL     1      -6.821   7.566  68.868  1.00  0.00    -0.068 A  
HETATM   29  C   UNL     1      -9.304   7.302  67.607  1.00  0.00    -0.139 A  
HETATM   30  C   UNL     1      -8.174   6.685  67.065  1.00  0.00    -0.113 A  
HETATM   31  C   UNL     1      -7.953   8.174  69.402  1.00  0.00    -0.114 A  
HETATM   32  F   UNL     1      -7.830   8.889  70.527  1.00  0.00    -0.067 F  
ENDBRANCH  24  25
ENDBRANCH  22  24
ENDBRANCH   5  20
TORSDOF 3
ENDMDL
MODEL      102
REMARK 921   NORMALIZED FREE ENERGY PREDICTED BY IDOCK:   -5.52 KCAL/MOL
REMARK 922        TOTAL FREE ENERGY PREDICTED BY IDOCK:   -6.81 KCAL/MOL
REMARK 923 INTER-LIGAND FREE ENERGY PREDICTED BY IDOCK:   -6.83 KCAL/MOL
REMARK 924 INTRA-LIGAND FREE ENERGY PREDICTED BY IDOCK:    0.02 KCAL/MOL
REMARK 927      BINDING AFFINITY PREDICTED BY RF-SCORE:    0.00 PKD
ROOT
HETATM    1  C   UNL     1      -8.417  16.931  67.850  1.00  0.00    -0.203 C  
HETATM    2  C   UNL     1      -8.681  15.646  68.650  1.00  0.00    -0.193 C  
HETATM    3  N   UNL     1      -9.478  14.653  67.915  1.00  0.00    -0.207 NA 
HETATM    4  C   UNL     1      -9.610  13.370  68.448  1.00  0.00    -0.188 C  
HETATM    5  C   UNL     1     -10.473  12.436  68.023  1.00  0.00    -0.227 C  
HETATM    6  C   UNL     1     -11.332  12.815  66.884  1.00  0.00    -0.321 C  
HETATM    7  C   UNL     1     -10.164  19.567  65.939  1.00  0.00    -0.508 C  
HETATM    8  C   UNL     1     -11.241  14.202  66.332  1.00  0.00    -0.328 C  
HETATM    9  C   UNL     1      -9.271  19.667  68.277  1.00  0.00    -0.412 C  
HETATM   10  O   UNL     1     -12.161  12.044  66.394  1.00  0.00    -0.610 OA 
HETATM   11  C   UNL     1     -10.057  18.819  67.279  1.00  0.00    -0.357 C  
HETATM   12  O   UNL     1     -11.153  16.905  65.568  1.00  0.00    -0.085 OA 
HETATM   13  C   UNL     1     -10.347  15.056  66.882  1.00  0.00    -0.266 C  
HETATM   14  O   UNL     1     -12.145  14.508  65.334  1.00  0.00    -0.365 OA 
HETATM   15  N   UNL     1      -9.621  17.417  67.197  1.00  0.00    -0.258 N  
HETATM   16  C   UNL     1     -10.393  16.518  66.451  1.00  0.00    -0.311 C  
HETATM   17  O   UNL     1      -7.869  17.839  68.809  1.00  0.00    -0.287 OA 
HETATM   18  H   UNL     1     -12.087  15.388  64.984  1.00  0.00     0.000 HD 
HETATM   19  C   UNL     1      -7.847  19.192  68.411  1.00  0.00    -0.335 C  
ENDROOT
BRANCH   5  20
HETATM   20  C   UNL     1     -10.534  11.126  68.727  1.00  0.00    -0.203 C  
HETATM   21  H   UNL     1      -8.994  10.420  67.551  1.00  0.00     0.000 HD 
HETATM   22  N   UNL     1      -9.605  10.199  68.337  1.00  0.00    -0.141 N  
HETATM   23  O   UNL     1     -11.379  10.908  69.606  1.00  0.00    -0.245 OA 
BRANCH  22  24
HETATM   24  C   UNL     1      -9.454   8.920  68.994  1.00  0.00    -0.156 C  
BRANCH  24  25
HETATM   25  C   UNL     1      -8.440   8.054  68.300  1.00  0.00    -0.123 A  
HETATM   26  C   UNL     1      -6.508   6.462  67.064  1.00  0.00    -0.046 A  
HETATM   27  F   UNL     1      -5.569   5.696  66.493  1.00  0.00    -0.014 F  
HETATM   28  C   UNL     1      -6.419   7.842  66.960  1.00  0.00    -0.056 A  
HETATM   29  C   UNL     1      -8.525   6.655  68.369  1.00  0.00    -0.125 A  
HETATM   30  C   UNL     1      -7.554   5.859  67.758  1.00  0.00    -0.089 A  
HETATM   31  C   UNL     1      -7.390   8.627  67.574  1.00  0.00    -0.089 A  
HETATM   32  F   UNL     1      -7.298   9.960  67.476  1.00  0.00    -0.086 F  
ENDBRANCH  24  25
ENDBRANCH  22  24
ENDBRANCH   5  20
TORSDOF 3
ENDMDL
MODEL      103
REMARK 921   NORMALIZED FREE ENERGY PREDICTED BY IDOCK:   -5.45 KCAL/MOL
REMARK 922        TOTAL FREE ENERGY PREDICTED BY IDOCK:   -6.73 KCAL/MOL
REMARK 923 INTER-LIGAND FREE ENERGY PREDICTED BY IDOCK:   -6.22 KCAL/MOL
REMARK 924 INTRA-LIGAND FREE ENERGY PREDICTED BY IDOCK:   -0.50 KCAL/MOL
REMARK 927      BINDING AFFINITY PREDICTED BY RF-SCORE:    0.00 PKD
ROOT
HETATM    1  C   UNL     1     -12.193  12.275  71.194  1.00  0.00     0.004 C  
HETATM    2  C   UNL     1     -12.206  10.962  70.395  1.00  0.00    -0.365 C  
HETATM    3  N   UNL     1     -11.200  10.919  69.325  1.00  0.00    -0.242 NA 
HETATM    4  C   UNL     1     -10.971   9.711  68.666  1.00  0.00    -0.111 C  
HETATM    5  C   UNL     1     -10.263   9.561  67.537  1.00  0.00    -0.283 C  
HETATM    6  C   UNL     1      -9.672  10.791  66.973  1.00  0.00    -0.176 C  
HETATM    7  C   UNL     1     -12.329  15.940  70.749  1.00  0.00    -0.342 C  
HETATM    8  C   UNL     1      -9.947  12.103  67.636  1.00  0.00    -0.197 C  
HETATM    9  C   UNL     1     -14.163  14.385  71.451  1.00  0.00    -0.362 C  
HETATM   10  O   UNL     1      -8.992  10.788  65.944  1.00  0.00    -0.171 OA 
HETATM   11  C   UNL     1     -13.015  14.593  70.465  1.00  0.00    -0.268 C  
HETATM   12  O   UNL     1     -10.757  14.517  68.826  1.00  0.00    -0.238 OA 
HETATM   13  C   UNL     1     -10.710  12.110  68.754  1.00  0.00    -0.219 C  
HETATM   14  O   UNL     1      -9.441  13.214  66.994  1.00  0.00    -0.225 OA 
HETATM   15  N   UNL     1     -12.119  13.435  70.322  1.00  0.00    -0.358 N  
HETATM   16  C   UNL     1     -11.149  13.460  69.312  1.00  0.00    -0.164 C  
HETATM   17  O   UNL     1     -13.381  12.218  71.987  1.00  0.00    -0.506 OA 
HETATM   18  H   UNL     1      -9.615  14.047  67.415  1.00  0.00     0.000 HD 
HETATM   19  C   UNL     1     -13.778  13.443  72.563  1.00  0.00    -0.531 C  
ENDROOT
BRANCH   5  20
HETATM   20  C   UNL     1     -10.149   8.211  66.921  1.00  0.00    -0.297 C  
HETATM   21  H   UNL     1      -8.097   8.402  66.876  1.00  0.00     0.000 HD 
HETATM   22  N   UNL     1      -8.874   7.768  66.694  1.00  0.00    -0.140 N  
HETATM   23  O   UNL     1     -11.156   7.547  66.638  1.00  0.00     0.071 OA 
BRANCH  22  24
HETATM   24  C   UNL     1      -8.584   6.438  66.207  1.00  0.00    -0.140 C  
BRANCH  24  25
HETATM   25  C   UNL     1      -8.473   5.445  67.332  1.00  0.00    -0.106 A  
HETATM   26  C   UNL     1      -8.245   3.551  69.369  1.00  0.00    -0.052 A  
HETATM   27  F   UNL     1      -8.119   2.628  70.333  1.00  0.00    -0.042 F  
HETATM   28  C   UNL     1      -9.328   3.493  68.506  1.00  0.00    -0.229 A  
HETATM   29  C   UNL     1      -7.399   5.501  68.233  1.00  0.00    -0.073 A  
HETATM   30  C   UNL     1      -7.281   4.548  69.247  1.00  0.00    -0.052 A  
HETATM   31  C   UNL     1      -9.437   4.445  67.497  1.00  0.00    -0.166 A  
HETATM   32  F   UNL     1     -10.482   4.382  66.663  1.00  0.00    -0.246 F  
ENDBRANCH  24  25
ENDBRANCH  22  24
ENDBRANCH   5  20
TORSDOF 3
ENDMDL
MODEL      104
REMARK 921   NORMALIZED FREE ENERGY PREDICTED BY IDOCK:   -5.43 KCAL/MOL
REMARK 922        TOTAL FREE ENERGY PREDICTED BY IDOCK:   -6.71 KCAL/MOL
REMARK 923 INTER-LIGAND FREE ENERGY PREDICTED BY IDOCK:   -6.29 KCAL/MOL
REMARK 924 INTRA-LIGAND FREE ENERGY PREDICTED BY IDOCK:   -0.42 KCAL/MOL
REMARK 927      BINDING AFFINITY PREDICTED BY RF-SCORE:    0.00 PKD
ROOT
HETATM    1  C   UNL     1     -11.680  12.635  66.850  1.00  0.00    -0.383 C  
HETATM    2  C   UNL     1     -11.622  11.122  67.109  1.00  0.00     0.053 C  
HETATM    3  N   UNL     1     -10.621  10.739  68.116  1.00  0.00    -0.189 NA 
HETATM    4  C   UNL     1     -10.613   9.427  68.590  1.00  0.00    -0.200 C  
HETATM    5  C   UNL     1      -9.640   8.871  69.327  1.00  0.00    -0.162 C  
HETATM    6  C   UNL     1      -8.501   9.747  69.666  1.00  0.00    -0.185 C  
HETATM    7  C   UNL     1      -9.530  15.513  65.987  1.00  0.00    -0.387 C  
HETATM    8  C   UNL     1      -8.467  11.141  69.125  1.00  0.00     0.040 C  
HETATM    9  C   UNL     1     -11.057  14.204  64.495  1.00  0.00    -0.340 C  
HETATM   10  O   UNL     1      -7.547   9.360  70.344  1.00  0.00    -0.111 OA 
HETATM   11  C   UNL     1      -9.996  14.103  65.589  1.00  0.00    -0.306 C  
HETATM   12  O   UNL     1      -8.405  13.637  67.835  1.00  0.00    -0.148 OA 
HETATM   13  C   UNL     1      -9.505  11.561  68.363  1.00  0.00    -0.195 C  
HETATM   14  O   UNL     1      -7.325  11.863  69.406  1.00  0.00    -0.330 OA 
HETATM   15  N   UNL     1     -10.353  13.208  66.700  1.00  0.00    -0.262 N  
HETATM   16  C   UNL     1      -9.376  12.906  67.657  1.00  0.00    -0.195 C  
HETATM   17  O   UNL     1     -12.503  12.764  65.688  1.00  0.00    -0.586 OA 
HETATM   18  H   UNL     1      -7.304  12.748  69.064  1.00  0.00     0.000 HD 
HETATM   19  C   UNL     1     -12.446  14.019  65.048  1.00  0.00    -0.425 C  
ENDROOT
BRANCH   5  20
HETATM   20  C   UNL     1      -9.748   7.439  69.715  1.00  0.00    -0.170 C  
HETATM   21  H   UNL     1     -10.005   6.919  67.736  1.00  0.00     0.000 HD 
HETATM   22  N   UNL     1      -9.896   6.553  68.681  1.00  0.00    -0.137 N  
HETATM   23  O   UNL     1      -9.706   7.090  70.903  1.00  0.00    -0.174 OA 
BRANCH  22  24
HETATM   24  C   UNL     1      -9.904   5.120  68.875  1.00  0.00    -0.172 C  
BRANCH  24  25
HETATM   25  C   UNL     1      -9.709   4.383  67.579  1.00  0.00    -0.211 A  
HETATM   26  C   UNL     1      -9.397   2.961  65.197  1.00  0.00    -0.124 A  
HETATM   27  F   UNL     1      -9.270   2.269  64.057  1.00  0.00    -0.097 F  
HETATM   28  C   UNL     1      -8.804   2.483  66.356  1.00  0.00    -0.136 A  
HETATM   29  C   UNL     1     -10.277   4.862  66.390  1.00  0.00    -0.313 A  
HETATM   30  C   UNL     1     -10.128   4.146  65.199  1.00  0.00    -0.219 A  
HETATM   31  C   UNL     1      -8.960   3.201  67.537  1.00  0.00    -0.158 A  
HETATM   32  F   UNL     1      -8.391   2.733  68.656  1.00  0.00    -0.069 F  
ENDBRANCH  24  25
ENDBRANCH  22  24
ENDBRANCH   5  20
TORSDOF 3
ENDMDL
MODEL      105
REMARK 921   NORMALIZED FREE ENERGY PREDICTED BY IDOCK:   -5.43 KCAL/MOL
REMARK 922        TOTAL FREE ENERGY PREDICTED BY IDOCK:   -6.70 KCAL/MOL
REMARK 923 INTER-LIGAND FREE ENERGY PREDICTED BY IDOCK:   -6.33 KCAL/MOL
REMARK 924 INTRA-LIGAND FREE ENERGY PREDICTED BY IDOCK:   -0.37 KCAL/MOL
REMARK 927      BINDING AFFINITY PREDICTED BY RF-SCORE:    0.00 PKD
ROOT
HETATM    1  C   UNL     1      -8.133  13.912  67.226  1.00  0.00    -0.145 C  
HETATM    2  C   UNL     1      -7.714  12.982  68.376  1.00  0.00    -0.137 C  
HETATM    3  N   UNL     1      -8.622  11.842  68.566  1.00  0.00    -0.145 NA 
HETATM    4  C   UNL     1      -8.242  10.819  69.436  1.00  0.00    -0.023 C  
HETATM    5  C   UNL     1      -9.041   9.840  69.883  1.00  0.00    -0.257 C  
HETATM    6  C   UNL     1     -10.431   9.859  69.386  1.00  0.00    -0.231 C  
HETATM    7  C   UNL     1     -11.021  15.840  65.963  1.00  0.00    -0.177 C  
HETATM    8  C   UNL     1     -10.872  10.975  68.494  1.00  0.00    -0.213 C  
HETATM    9  C   UNL     1      -9.017  16.672  67.214  1.00  0.00    -0.211 C  
HETATM   10  O   UNL     1     -11.264   9.010  69.715  1.00  0.00    -0.163 OA 
HETATM   11  C   UNL     1     -10.082  15.579  67.153  1.00  0.00    -0.254 C  
HETATM   12  O   UNL     1     -11.632  13.259  67.044  1.00  0.00    -0.322 OA 
HETATM   13  C   UNL     1      -9.965  11.919  68.149  1.00  0.00    -0.197 C  
HETATM   14  O   UNL     1     -12.209  10.974  68.152  1.00  0.00    -0.765 OA 
HETATM   15  N   UNL     1      -9.555  14.210  67.266  1.00  0.00    -0.228 N  
HETATM   16  C   UNL     1     -10.463  13.153  67.405  1.00  0.00    -0.242 C  
HETATM   17  O   UNL     1      -7.295  15.060  67.375  1.00  0.00    -0.189 OA 
HETATM   18  H   UNL     1     -12.489  11.682  67.585  1.00  0.00     0.000 HD 
HETATM   19  C   UNL     1      -7.702  16.199  66.651  1.00  0.00    -0.230 C  
ENDROOT
BRANCH   5  20
HETATM   20  C   UNL     1      -8.504   8.846  70.852  1.00  0.00    -0.186 C  
HETATM   21  H   UNL     1      -8.727   7.354  69.446  1.00  0.00     0.000 HD 
HETATM   22  N   UNL     1      -8.378   7.567  70.380  1.00  0.00    -0.127 N  
HETATM   23  O   UNL     1      -8.199   9.174  72.006  1.00  0.00    -0.320 OA 
BRANCH  22  24
HETATM   24  C   UNL     1      -7.771   6.506  71.152  1.00  0.00    -0.098 C  
BRANCH  24  25
HETATM   25  C   UNL     1      -8.804   5.652  71.834  1.00  0.00    -0.137 A  
HETATM   26  C   UNL     1     -10.668   4.038  73.143  1.00  0.00    -0.186 A  
HETATM   27  F   UNL     1     -11.547   3.262  73.792  1.00  0.00    -0.286 F  
HETATM   28  C   UNL     1      -9.809   3.469  72.215  1.00  0.00    -0.233 A  
HETATM   29  C   UNL     1      -9.700   6.212  72.757  1.00  0.00    -0.165 A  
HETATM   30  C   UNL     1     -10.627   5.403  73.419  1.00  0.00    -0.297 A  
HETATM   31  C   UNL     1      -8.888   4.282  71.563  1.00  0.00    -0.114 A  
HETATM   32  F   UNL     1      -8.057   3.727  70.671  1.00  0.00    -0.052 F  
ENDBRANCH  24  25
ENDBRANCH  22  24
ENDBRANCH   5  20
TORSDOF 3
ENDMDL
MODEL      106
REMARK 921   NORMALIZED FREE ENERGY PREDICTED BY IDOCK:   -5.42 KCAL/MOL
REMARK 922        TOTAL FREE ENERGY PREDICTED BY IDOCK:   -6.69 KCAL/MOL
REMARK 923 INTER-LIGAND FREE ENERGY PREDICTED BY IDOCK:   -6.04 KCAL/MOL
REMARK 924 INTRA-LIGAND FREE ENERGY PREDICTED BY IDOCK:   -0.65 KCAL/MOL
REMARK 927      BINDING AFFINITY PREDICTED BY RF-SCORE:    0.00 PKD
ROOT
HETATM    1  C   UNL     1     -11.977  13.613  69.269  1.00  0.00    -0.336 C  
HETATM    2  C   UNL     1     -10.779  12.917  68.603  1.00  0.00    -0.247 C  
HETATM    3  N   UNL     1     -10.829  11.451  68.697  1.00  0.00    -0.195 NA 
HETATM    4  C   UNL     1      -9.915  10.699  67.958  1.00  0.00    -0.160 C  
HETATM    5  C   UNL     1      -9.687   9.386  68.106  1.00  0.00    -0.164 C  
HETATM    6  C   UNL     1     -10.495   8.698  69.132  1.00  0.00    -0.211 C  
HETATM    7  C   UNL     1     -13.842  13.756  72.455  1.00  0.00    -0.681 C  
HETATM    8  C   UNL     1     -11.443   9.495  69.969  1.00  0.00    -0.109 C  
HETATM    9  C   UNL     1     -12.141  15.367  71.570  1.00  0.00    -0.437 C  
HETATM   10  O   UNL     1     -10.387   7.490  69.360  1.00  0.00    -0.203 OA 
HETATM   11  C   UNL     1     -12.471  13.889  71.771  1.00  0.00    -0.198 C  
HETATM   12  O   UNL     1     -12.986  11.149  71.637  1.00  0.00    -0.445 OA 
HETATM   13  C   UNL     1     -11.548  10.824  69.733  1.00  0.00    -0.317 C  
HETATM   14  O   UNL     1     -12.088   8.796  70.969  1.00  0.00    -0.347 OA 
HETATM   15  N   UNL     1     -12.265  13.053  70.579  1.00  0.00    -0.354 N  
HETATM   16  C   UNL     1     -12.364  11.662  70.712  1.00  0.00    -0.358 C  
HETATM   17  O   UNL     1     -11.613  14.995  69.295  1.00  0.00    -0.281 OA 
HETATM   18  H   UNL     1     -12.691   9.303  71.501  1.00  0.00     0.000 HD 
HETATM   19  C   UNL     1     -12.390  15.804  70.149  1.00  0.00    -0.279 C  
ENDROOT
BRANCH   5  20
HETATM   20  C   UNL     1      -8.639   8.730  67.276  1.00  0.00    -0.121 C  
HETATM   21  H   UNL     1      -7.263   9.017  68.785  1.00  0.00     0.000 HD 
HETATM   22  N   UNL     1      -7.412   8.597  67.868  1.00  0.00    -0.095 N  
HETATM   23  O   UNL     1      -8.882   8.339  66.126  1.00  0.00    -0.149 OA 
BRANCH  22  24
HETATM   24  C   UNL     1      -6.318   7.886  67.245  1.00  0.00    -0.055 C  
BRANCH  24  25
HETATM   25  C   UNL     1      -6.292   6.438  67.652  1.00  0.00    -0.040 A  
HETATM   26  C   UNL     1      -6.189   3.740  68.357  1.00  0.00    -0.032 A  
HETATM   27  F   UNL     1      -6.115   2.443  68.688  1.00  0.00    -0.022 F  
HETATM   28  C   UNL     1      -6.766   4.104  67.150  1.00  0.00    -0.047 A  
HETATM   29  C   UNL     1      -5.737   6.049  68.879  1.00  0.00    -0.012 A  
HETATM   30  C   UNL     1      -5.678   4.697  69.229  1.00  0.00    -0.017 A  
HETATM   31  C   UNL     1      -6.818   5.452  66.810  1.00  0.00    -0.063 A  
HETATM   32  F   UNL     1      -7.372   5.800  65.641  1.00  0.00    -0.069 F  
ENDBRANCH  24  25
ENDBRANCH  22  24
ENDBRANCH   5  20
TORSDOF 3
ENDMDL
MODEL      107
REMARK 921   NORMALIZED FREE ENERGY PREDICTED BY IDOCK:   -5.41 KCAL/MOL
REMARK 922        TOTAL FREE ENERGY PREDICTED BY IDOCK:   -6.68 KCAL/MOL
REMARK 923 INTER-LIGAND FREE ENERGY PREDICTED BY IDOCK:   -6.08 KCAL/MOL
REMARK 924 INTRA-LIGAND FREE ENERGY PREDICTED BY IDOCK:   -0.60 KCAL/MOL
REMARK 927      BINDING AFFINITY PREDICTED BY RF-SCORE:    0.00 PKD
ROOT
HETATM    1  C   UNL     1     -11.685  13.284  67.684  1.00  0.00    -0.366 C  
HETATM    2  C   UNL     1     -10.893  12.009  67.354  1.00  0.00    -0.242 C  
HETATM    3  N   UNL     1     -11.215  10.877  68.233  1.00  0.00    -0.263 NA 
HETATM    4  C   UNL     1     -10.721   9.613  67.909  1.00  0.00    -0.247 C  
HETATM    5  C   UNL     1     -10.736   8.541  68.714  1.00  0.00    -0.089 C  
HETATM    6  C   UNL     1     -11.346   8.735  70.044  1.00  0.00    -0.032 C  
HETATM    7  C   UNL     1     -12.509  15.539  70.493  1.00  0.00    -0.472 C  
HETATM    8  C   UNL     1     -11.836  10.095  70.429  1.00  0.00    -0.288 C  
HETATM    9  C   UNL     1     -10.831  15.874  68.664  1.00  0.00    -0.291 C  
HETATM   10  O   UNL     1     -11.430   7.827  70.874  1.00  0.00    -0.277 OA 
HETATM   11  C   UNL     1     -11.388  14.875  69.675  1.00  0.00    -0.282 C  
HETATM   12  O   UNL     1     -12.472  12.744  71.117  1.00  0.00    -0.352 OA 
HETATM   13  C   UNL     1     -11.726  11.098  69.527  1.00  0.00    -0.335 C  
HETATM   14  O   UNL     1     -12.303  10.216  71.722  1.00  0.00    -0.388 OA 
HETATM   15  N   UNL     1     -11.702  13.553  69.113  1.00  0.00    -0.305 N  
HETATM   16  C   UNL     1     -12.044  12.516  69.990  1.00  0.00    -0.266 C  
HETATM   17  O   UNL     1     -11.052  14.305  66.909  1.00  0.00    -0.298 OA 
HETATM   18  H   UNL     1     -12.615  11.080  71.967  1.00  0.00     0.000 HD 
HETATM   19  C   UNL     1     -11.374  15.627  67.280  1.00  0.00    -0.122 C  
ENDROOT
BRANCH   5  20
HETATM   20  C   UNL     1     -10.122   7.269  68.245  1.00  0.00    -0.170 C  
HETATM   21  H   UNL     1      -8.243   8.063  68.544  1.00  0.00     0.000 HD 
HETATM   22  N   UNL     1      -8.754   7.220  68.284  1.00  0.00    -0.126 N  
HETATM   23  O   UNL     1     -10.820   6.326  67.848  1.00  0.00    -0.277 OA 
BRANCH  22  24
HETATM   24  C   UNL     1      -8.005   6.024  67.970  1.00  0.00    -0.109 C  
BRANCH  24  25
HETATM   25  C   UNL     1      -7.530   6.023  66.543  1.00  0.00    -0.090 A  
HETATM   26  C   UNL     1      -6.588   5.978  63.916  1.00  0.00    -0.037 A  
HETATM   27  F   UNL     1      -6.124   5.935  62.659  1.00  0.00    -0.023 F  
HETATM   28  C   UNL     1      -5.952   6.779  64.852  1.00  0.00    -0.035 A  
HETATM   29  C   UNL     1      -8.175   5.240  65.574  1.00  0.00    -0.124 A  
HETATM   30  C   UNL     1      -7.698   5.212  64.261  1.00  0.00    -0.088 A  
HETATM   31  C   UNL     1      -6.432   6.799  66.158  1.00  0.00    -0.050 A  
HETATM   32  F   UNL     1      -5.811   7.570  67.060  1.00  0.00    -0.032 F  
ENDBRANCH  24  25
ENDBRANCH  22  24
ENDBRANCH   5  20
TORSDOF 3
ENDMDL
MODEL      108
REMARK 921   NORMALIZED FREE ENERGY PREDICTED BY IDOCK:   -5.36 KCAL/MOL
REMARK 922        TOTAL FREE ENERGY PREDICTED BY IDOCK:   -6.62 KCAL/MOL
REMARK 923 INTER-LIGAND FREE ENERGY PREDICTED BY IDOCK:   -6.31 KCAL/MOL
REMARK 924 INTRA-LIGAND FREE ENERGY PREDICTED BY IDOCK:   -0.32 KCAL/MOL
REMARK 927      BINDING AFFINITY PREDICTED BY RF-SCORE:    0.00 PKD
ROOT
HETATM    1  C   UNL     1      -7.572   5.217  65.076  1.00  0.00    -0.082 C  
HETATM    2  C   UNL     1      -7.959   6.655  64.699  1.00  0.00    -0.113 C  
HETATM    3  N   UNL     1      -8.702   7.357  65.756  1.00  0.00    -0.140 NA 
HETATM    4  C   UNL     1      -8.929   8.727  65.621  1.00  0.00    -0.200 C  
HETATM    5  C   UNL     1      -9.768   9.455  66.371  1.00  0.00    -0.315 C  
HETATM    6  C   UNL     1     -10.488   8.726  67.434  1.00  0.00    -0.279 C  
HETATM    7  C   UNL     1      -9.024   2.057  66.326  1.00  0.00    -0.101 C  
HETATM    8  C   UNL     1     -10.297   7.248  67.562  1.00  0.00    -0.242 C  
HETATM    9  C   UNL     1      -8.386   2.661  63.980  1.00  0.00    -0.083 C  
HETATM   10  O   UNL     1     -11.282   9.281  68.197  1.00  0.00     0.026 OA 
HETATM   11  C   UNL     1      -9.084   3.151  65.247  1.00  0.00    -0.148 C  
HETATM   12  O   UNL     1     -10.046   4.449  67.523  1.00  0.00    -0.119 OA 
HETATM   13  C   UNL     1      -9.442   6.634  66.711  1.00  0.00    -0.160 C  
HETATM   14  O   UNL     1     -11.078   6.626  68.515  1.00  0.00    -0.436 OA 
HETATM   15  N   UNL     1      -8.684   4.500  65.677  1.00  0.00    -0.121 N  
HETATM   16  C   UNL     1      -9.398   5.110  66.716  1.00  0.00    -0.134 C  
HETATM   17  O   UNL     1      -7.104   4.644  63.853  1.00  0.00    -0.048 OA 
HETATM   18  H   UNL     1     -10.956   5.688  68.596  1.00  0.00     0.000 HD 
HETATM   19  C   UNL     1      -6.999   3.237  63.850  1.00  0.00    -0.048 C  
ENDROOT
BRANCH   5  20
HETATM   20  C   UNL     1      -9.944  10.903  66.073  1.00  0.00    -0.240 C  
HETATM   21  H   UNL     1     -11.936  10.575  65.652  1.00  0.00     0.000 HD 
HETATM   22  N   UNL     1     -11.216  11.291  65.750  1.00  0.00    -0.097 N  
HETATM   23  O   UNL     1      -8.988  11.689  66.118  1.00  0.00    -0.209 OA 
BRANCH  22  24
HETATM   24  C   UNL     1     -11.581  12.675  65.542  1.00  0.00    -0.370 C  
BRANCH  24  25
HETATM   25  C   UNL     1     -11.620  13.441  66.835  1.00  0.00    -0.404 A  
HETATM   26  C   UNL     1     -11.757  14.894  69.214  1.00  0.00    -0.316 A  
HETATM   27  F   UNL     1     -11.848  15.595  70.354  1.00  0.00    -0.273 F  
HETATM   28  C   UNL     1     -11.378  15.538  68.046  1.00  0.00    -0.332 A  
HETATM   29  C   UNL     1     -11.976  12.804  68.034  1.00  0.00    -0.315 A  
HETATM   30  C   UNL     1     -12.052  13.534  69.223  1.00  0.00    -0.335 A  
HETATM   31  C   UNL     1     -11.307  14.804  66.866  1.00  0.00    -0.355 A  
HETATM   32  F   UNL     1     -10.945  15.430  65.739  1.00  0.00    -0.318 F  
ENDBRANCH  24  25
ENDBRANCH  22  24
ENDBRANCH   5  20
TORSDOF 3
ENDMDL
MODEL      109
REMARK 921   NORMALIZED FREE ENERGY PREDICTED BY IDOCK:   -5.34 KCAL/MOL
REMARK 922        TOTAL FREE ENERGY PREDICTED BY IDOCK:   -6.60 KCAL/MOL
REMARK 923 INTER-LIGAND FREE ENERGY PREDICTED BY IDOCK:   -5.96 KCAL/MOL
REMARK 924 INTRA-LIGAND FREE ENERGY PREDICTED BY IDOCK:   -0.64 KCAL/MOL
REMARK 927      BINDING AFFINITY PREDICTED BY RF-SCORE:    0.00 PKD
ROOT
HETATM    1  C   UNL     1      -8.400   5.315  66.286  1.00  0.00    -0.114 C  
HETATM    2  C   UNL     1      -9.252   6.563  66.570  1.00  0.00    -0.157 C  
HETATM    3  N   UNL     1      -8.720   7.398  67.656  1.00  0.00    -0.125 NA 
HETATM    4  C   UNL     1      -9.281   8.658  67.871  1.00  0.00    -0.139 C  
HETATM    5  C   UNL     1      -9.066   9.433  68.944  1.00  0.00    -0.140 C  
HETATM    6  C   UNL     1      -8.141   8.894  69.960  1.00  0.00    -0.116 C  
HETATM    7  C   UNL     1      -6.895   2.389  67.967  1.00  0.00    -0.043 C  
HETATM    8  C   UNL     1      -7.569   7.526  69.773  1.00  0.00    -0.094 C  
HETATM    9  C   UNL     1      -8.978   2.491  66.579  1.00  0.00    -0.133 C  
HETATM   10  O   UNL     1      -7.853   9.512  70.988  1.00  0.00    -0.316 OA 
HETATM   11  C   UNL     1      -8.186   3.178  67.690  1.00  0.00    -0.080 C  
HETATM   12  O   UNL     1      -6.777   4.851  69.424  1.00  0.00    -0.048 OA 
HETATM   13  C   UNL     1      -7.900   6.838  68.655  1.00  0.00    -0.118 C  
HETATM   14  O   UNL     1      -6.791   7.056  70.812  1.00  0.00    -0.052 OA 
HETATM   15  N   UNL     1      -8.024   4.630  67.511  1.00  0.00    -0.096 N  
HETATM   16  C   UNL     1      -7.475   5.376  68.561  1.00  0.00    -0.076 C  
HETATM   17  O   UNL     1      -9.206   4.530  65.405  1.00  0.00    -0.141 OA 
HETATM   18  H   UNL     1      -6.428   6.187  70.693  1.00  0.00     0.000 HD 
HETATM   19  C   UNL     1      -8.800   3.188  65.255  1.00  0.00    -0.134 C  
ENDROOT
BRANCH   5  20
HETATM   20  C   UNL     1      -9.779  10.734  69.057  1.00  0.00    -0.187 C  
HETATM   21  H   UNL     1      -8.428  11.590  67.756  1.00  0.00     0.000 HD 
HETATM   22  N   UNL     1      -9.284  11.752  68.286  1.00  0.00    -0.185 N  
HETATM   23  O   UNL     1     -10.756  10.869  69.807  1.00  0.00    -0.225 OA 
BRANCH  22  24
HETATM   24  C   UNL     1      -9.924  13.044  68.193  1.00  0.00    -0.231 C  
BRANCH  24  25
HETATM   25  C   UNL     1     -10.566  13.252  66.849  1.00  0.00    -0.264 A  
HETATM   26  C   UNL     1     -11.805  13.685  64.385  1.00  0.00    -0.424 A  
HETATM   27  F   UNL     1     -12.408  13.916  63.211  1.00  0.00    -0.519 F  
HETATM   28  C   UNL     1     -12.429  12.883  65.328  1.00  0.00    -0.552 A  
HETATM   29  C   UNL     1      -9.940  14.039  65.870  1.00  0.00    -0.325 A  
HETATM   30  C   UNL     1     -10.564  14.262  64.640  1.00  0.00    -0.364 A  
HETATM   31  C   UNL     1     -11.801  12.668  66.551  1.00  0.00    -0.396 A  
HETATM   32  F   UNL     1     -12.410  11.896  67.460  1.00  0.00    -0.164 F  
ENDBRANCH  24  25
ENDBRANCH  22  24
ENDBRANCH   5  20
TORSDOF 3
ENDMDL
MODEL      110
REMARK 921   NORMALIZED FREE ENERGY PREDICTED BY IDOCK:   -5.33 KCAL/MOL
REMARK 922        TOTAL FREE ENERGY PREDICTED BY IDOCK:   -6.59 KCAL/MOL
REMARK 923 INTER-LIGAND FREE ENERGY PREDICTED BY IDOCK:   -6.07 KCAL/MOL
REMARK 924 INTRA-LIGAND FREE ENERGY PREDICTED BY IDOCK:   -0.52 KCAL/MOL
REMARK 927      BINDING AFFINITY PREDICTED BY RF-SCORE:    0.00 PKD
ROOT
HETATM    1  C   UNL     1      -9.225   5.069  68.510  1.00  0.00    -0.120 C  
HETATM    2  C   UNL     1     -10.284   6.173  68.365  1.00  0.00    -0.175 C  
HETATM    3  N   UNL     1      -9.718   7.529  68.353  1.00  0.00    -0.153 NA 
HETATM    4  C   UNL     1     -10.547   8.600  68.020  1.00  0.00    -0.145 C  
HETATM    5  C   UNL     1     -10.247   9.897  68.180  1.00  0.00    -0.210 C  
HETATM    6  C   UNL     1      -8.914  10.190  68.743  1.00  0.00    -0.147 C  
HETATM    7  C   UNL     1      -6.389   4.037  70.642  1.00  0.00    -0.023 C  
HETATM    8  C   UNL     1      -8.030   9.056  69.153  1.00  0.00    -0.101 C  
HETATM    9  C   UNL     1      -8.731   3.150  70.625  1.00  0.00    -0.130 C  
HETATM   10  O   UNL     1      -8.513  11.341  68.932  1.00  0.00    -0.139 OA 
HETATM   11  C   UNL     1      -7.878   4.417  70.595  1.00  0.00    -0.056 C  
HETATM   12  O   UNL     1      -6.586   6.845  70.118  1.00  0.00    -0.042 OA 
HETATM   13  C   UNL     1      -8.477   7.792  68.965  1.00  0.00    -0.132 C  
HETATM   14  O   UNL     1      -6.842   9.413  69.759  1.00  0.00    -0.048 OA 
HETATM   15  N   UNL     1      -8.261   5.382  69.553  1.00  0.00    -0.095 N  
HETATM   16  C   UNL     1      -7.662   6.648  69.560  1.00  0.00    -0.104 C  
HETATM   17  O   UNL     1      -9.982   3.882  68.757  1.00  0.00    -0.020 OA 
HETATM   18  H   UNL     1      -6.281   8.692  70.019  1.00  0.00     0.000 HD 
HETATM   19  C   UNL     1      -9.241   2.789  69.254  1.00  0.00    -0.141 C  
ENDROOT
BRANCH   5  20
HETATM   20  C   UNL     1     -11.259  10.929  67.826  1.00  0.00    -0.317 C  
HETATM   21  H   UNL     1     -10.205  11.374  66.110  1.00  0.00     0.000 HD 
HETATM   22  N   UNL     1     -11.057  11.572  66.634  1.00  0.00    -0.302 N  
HETATM   23  O   UNL     1     -12.213  11.177  68.575  1.00  0.00    -0.600 OA 
BRANCH  22  24
HETATM   24  C   UNL     1     -12.003  12.520  66.088  1.00  0.00    -0.366 C  
BRANCH  24  25
HETATM   25  C   UNL     1     -11.587  13.940  66.358  1.00  0.00    -0.382 A  
HETATM   26  C   UNL     1     -10.877  16.598  66.823  1.00  0.00    -0.037 A  
HETATM   27  F   UNL     1     -10.559  17.882  67.044  1.00  0.00    -0.339 F  
HETATM   28  C   UNL     1     -10.697  16.059  65.559  1.00  0.00    -0.374 A  
HETATM   29  C   UNL     1     -11.736  14.499  67.636  1.00  0.00    -0.410 A  
HETATM   30  C   UNL     1     -11.388  15.832  67.867  1.00  0.00    -0.277 A  
HETATM   31  C   UNL     1     -11.048  14.731  65.338  1.00  0.00    -0.357 A  
HETATM   32  F   UNL     1     -10.878  14.214  64.114  1.00  0.00    -0.326 F  
ENDBRANCH  24  25
ENDBRANCH  22  24
ENDBRANCH   5  20
TORSDOF 3
ENDMDL
MODEL      111
REMARK 921   NORMALIZED FREE ENERGY PREDICTED BY IDOCK:   -5.33 KCAL/MOL
REMARK 922        TOTAL FREE ENERGY PREDICTED BY IDOCK:   -6.58 KCAL/MOL
REMARK 923 INTER-LIGAND FREE ENERGY PREDICTED BY IDOCK:   -6.13 KCAL/MOL
REMARK 924 INTRA-LIGAND FREE ENERGY PREDICTED BY IDOCK:   -0.45 KCAL/MOL
REMARK 927      BINDING AFFINITY PREDICTED BY RF-SCORE:    0.00 PKD
ROOT
HETATM    1  C   UNL     1     -10.019   8.436  66.711  1.00  0.00    -0.284 C  
HETATM    2  C   UNL     1      -9.820   9.612  67.681  1.00  0.00    -0.164 C  
HETATM    3  N   UNL     1      -8.674  10.466  67.337  1.00  0.00    -0.125 NA 
HETATM    4  C   UNL     1      -8.511  11.676  68.013  1.00  0.00    -0.151 C  
HETATM    5  C   UNL     1      -7.415  12.446  67.976  1.00  0.00    -0.114 C  
HETATM    6  C   UNL     1      -6.308  11.961  67.128  1.00  0.00    -0.151 C  
HETATM    7  C   UNL     1      -8.209   5.603  65.179  1.00  0.00    -0.136 C  
HETATM    8  C   UNL     1      -6.443  10.643  66.436  1.00  0.00    -0.117 C  
HETATM    9  C   UNL     1      -9.816   5.572  67.100  1.00  0.00    -0.172 C  
HETATM   10  O   UNL     1      -5.249  12.582  67.002  1.00  0.00    -0.322 OA 
HETATM   11  C   UNL     1      -8.619   6.298  66.489  1.00  0.00    -0.128 C  
HETATM   12  O   UNL     1      -6.726   8.042  65.409  1.00  0.00    -0.053 OA 
HETATM   13  C   UNL     1      -7.597   9.951  66.590  1.00  0.00    -0.103 C  
HETATM   14  O   UNL     1      -5.329  10.215  65.743  1.00  0.00    -0.044 OA 
HETATM   15  N   UNL     1      -8.766   7.760  66.420  1.00  0.00    -0.143 N  
HETATM   16  C   UNL     1      -7.656   8.527  66.047  1.00  0.00    -0.089 C  
HETATM   17  O   UNL     1     -10.991   7.608  67.354  1.00  0.00    -0.207 OA 
HETATM   18  H   UNL     1      -5.415   9.378  65.303  1.00  0.00     0.000 HD 
HETATM   19  C   UNL     1     -11.107   6.303  66.833  1.00  0.00    -0.253 C  
ENDROOT
BRANCH   5  20
HETATM   20  C   UNL     1      -7.369  13.689  68.795  1.00  0.00    -0.093 C  
HETATM   21  H   UNL     1      -8.806  14.541  67.585  1.00  0.00     0.000 HD 
HETATM   22  N   UNL     1      -8.245  14.674  68.426  1.00  0.00    -0.146 N  
HETATM   23  O   UNL     1      -6.582  13.804  69.743  1.00  0.00    -0.111 OA 
BRANCH  22  24
HETATM   24  C   UNL     1      -8.408  15.896  69.182  1.00  0.00    -0.253 C  
BRANCH  24  25
HETATM   25  C   UNL     1      -8.842  17.039  68.305  1.00  0.00    -0.242 A  
HETATM   26  C   UNL     1      -9.634  19.206  66.734  1.00  0.00    -0.331 A  
HETATM   27  F   UNL     1     -10.000  20.262  65.995  1.00  0.00    -0.506 F  
HETATM   28  C   UNL     1     -10.483  18.740  67.726  1.00  0.00    -0.479 A  
HETATM   29  C   UNL     1      -8.010  17.510  67.279  1.00  0.00    -0.222 A  
HETATM   30  C   UNL     1      -8.403  18.600  66.498  1.00  0.00    -0.304 A  
HETATM   31  C   UNL     1     -10.083  17.655  68.500  1.00  0.00    -0.375 A  
HETATM   32  F   UNL     1     -10.905  17.211  69.460  1.00  0.00    -0.310 F  
ENDBRANCH  24  25
ENDBRANCH  22  24
ENDBRANCH   5  20
TORSDOF 3
ENDMDL
MODEL      112
REMARK 921   NORMALIZED FREE ENERGY PREDICTED BY IDOCK:   -5.28 KCAL/MOL
REMARK 922        TOTAL FREE ENERGY PREDICTED BY IDOCK:   -6.53 KCAL/MOL
REMARK 923 INTER-LIGAND FREE ENERGY PREDICTED BY IDOCK:   -6.09 KCAL/MOL
REMARK 924 INTRA-LIGAND FREE ENERGY PREDICTED BY IDOCK:   -0.44 KCAL/MOL
REMARK 927      BINDING AFFINITY PREDICTED BY RF-SCORE:    0.00 PKD
ROOT
HETATM    1  C   UNL     1     -12.084  13.659  66.150  1.00  0.00    -0.436 C  
HETATM    2  C   UNL     1     -12.015  12.124  66.119  1.00  0.00    -0.147 C  
HETATM    3  N   UNL     1     -11.140  11.557  67.155  1.00  0.00    -0.282 NA 
HETATM    4  C   UNL     1     -11.154  10.178  67.366  1.00  0.00    -0.147 C  
HETATM    5  C   UNL     1     -10.267   9.494  68.102  1.00  0.00    -0.231 C  
HETATM    6  C   UNL     1      -9.206  10.291  68.748  1.00  0.00    -0.166 C  
HETATM    7  C   UNL     1      -9.926  16.658  66.144  1.00  0.00    -0.356 C  
HETATM    8  C   UNL     1      -9.144  11.763  68.495  1.00  0.00    -0.144 C  
HETATM    9  C   UNL     1     -11.212  15.657  64.241  1.00  0.00    -0.118 C  
HETATM   10  O   UNL     1      -8.334   9.783  69.458  1.00  0.00    -0.130 OA 
HETATM   11  C   UNL     1     -10.296  15.350  65.424  1.00  0.00    -0.394 C  
HETATM   12  O   UNL     1      -8.991  14.463  67.727  1.00  0.00    -0.179 OA 
HETATM   13  C   UNL     1     -10.088  12.319  67.699  1.00  0.00    -0.200 C  
HETATM   14  O   UNL     1      -8.068  12.421  69.055  1.00  0.00    -0.342 OA 
HETATM   15  N   UNL     1     -10.765  14.254  66.287  1.00  0.00    -0.293 N  
HETATM   16  C   UNL     1      -9.909  13.777  67.287  1.00  0.00    -0.241 C  
HETATM   17  O   UNL     1     -12.756  14.007  64.938  1.00  0.00    -0.647 OA 
HETATM   18  H   UNL     1      -8.029  13.356  68.895  1.00  0.00     0.000 HD 
HETATM   19  C   UNL     1     -12.655  15.363  64.563  1.00  0.00     0.215 C  
ENDROOT
BRANCH   5  20
HETATM   20  C   UNL     1     -10.381   8.012  68.191  1.00  0.00    -0.200 C  
HETATM   21  H   UNL     1     -10.901   7.931  66.197  1.00  0.00     0.000 HD 
HETATM   22  N   UNL     1     -10.691   7.370  67.022  1.00  0.00    -0.356 N  
HETATM   23  O   UNL     1     -10.206   7.417  69.263  1.00  0.00    -0.188 OA 
BRANCH  22  24
HETATM   24  C   UNL     1     -10.730   5.929  66.909  1.00  0.00    -0.321 C  
BRANCH  24  25
HETATM   25  C   UNL     1      -9.526   5.395  66.182  1.00  0.00    -0.171 A  
HETATM   26  C   UNL     1      -7.338   4.359  64.793  1.00  0.00    -0.071 A  
HETATM   27  F   UNL     1      -6.302   3.856  64.107  1.00  0.00    -0.026 F  
HETATM   28  C   UNL     1      -7.956   3.584  65.762  1.00  0.00    -0.093 A  
HETATM   29  C   UNL     1      -8.869   6.171  65.216  1.00  0.00     0.029 A  
HETATM   30  C   UNL     1      -7.779   5.650  64.515  1.00  0.00    -0.096 A  
HETATM   31  C   UNL     1      -9.042   4.111  66.454  1.00  0.00    -0.135 A  
HETATM   32  F   UNL     1      -9.640   3.356  67.386  1.00  0.00    -0.223 F  
ENDBRANCH  24  25
ENDBRANCH  22  24
ENDBRANCH   5  20
TORSDOF 3
ENDMDL
MODEL      113
REMARK 921   NORMALIZED FREE ENERGY PREDICTED BY IDOCK:   -5.27 KCAL/MOL
REMARK 922        TOTAL FREE ENERGY PREDICTED BY IDOCK:   -6.52 KCAL/MOL
REMARK 923 INTER-LIGAND FREE ENERGY PREDICTED BY IDOCK:   -5.98 KCAL/MOL
REMARK 924 INTRA-LIGAND FREE ENERGY PREDICTED BY IDOCK:   -0.53 KCAL/MOL
REMARK 927      BINDING AFFINITY PREDICTED BY RF-SCORE:    0.00 PKD
ROOT
HETATM    1  C   UNL     1     -11.398  12.714  66.880  1.00  0.00    -0.320 C  
HETATM    2  C   UNL     1     -10.803  11.395  67.398  1.00  0.00    -0.254 C  
HETATM    3  N   UNL     1      -9.580  11.578  68.193  1.00  0.00    -0.181 NA 
HETATM    4  C   UNL     1      -9.062  10.485  68.890  1.00  0.00    -0.177 C  
HETATM    5  C   UNL     1      -7.853  10.432  69.466  1.00  0.00    -0.161 C  
HETATM    6  C   UNL     1      -7.025  11.649  69.354  1.00  0.00    -0.051 C  
HETATM    7  C   UNL     1     -10.487  15.765  65.005  1.00  0.00    -0.331 C  
HETATM    8  C   UNL     1      -7.541  12.811  68.568  1.00  0.00    -0.120 C  
HETATM    9  C   UNL     1     -11.725  13.745  64.191  1.00  0.00    -0.397 C  
HETATM   10  O   UNL     1      -5.898  11.731  69.847  1.00  0.00    -0.103 OA 
HETATM   11  C   UNL     1     -10.524  14.227  65.001  1.00  0.00    -0.435 C  
HETATM   12  O   UNL     1      -8.518  14.813  66.853  1.00  0.00    -0.225 OA 
HETATM   13  C   UNL     1      -8.770  12.715  68.009  1.00  0.00    -0.190 C  
HETATM   14  O   UNL     1      -6.669  13.872  68.429  1.00  0.00    -0.082 OA 
HETATM   15  N   UNL     1     -10.376  13.579  66.314  1.00  0.00    -0.287 N  
HETATM   16  C   UNL     1      -9.210  13.818  67.051  1.00  0.00    -0.251 C  
HETATM   17  O   UNL     1     -12.398  12.307  65.943  1.00  0.00    -0.618 OA 
HETATM   18  H   UNL     1      -6.997  14.611  67.930  1.00  0.00     0.000 HD 
HETATM   19  C   UNL     1     -12.865  13.322  65.083  1.00  0.00    -0.310 C  
ENDROOT
BRANCH   5  20
HETATM   20  C   UNL     1      -7.418   9.174  70.132  1.00  0.00    -0.082 C  
HETATM   21  H   UNL     1      -7.451   8.199  68.315  1.00  0.00     0.000 HD 
HETATM   22  N   UNL     1      -7.218   8.102  69.303  1.00  0.00    -0.070 N  
HETATM   23  O   UNL     1      -7.255   9.119  71.359  1.00  0.00    -0.242 OA 
BRANCH  22  24
HETATM   24  C   UNL     1      -6.689   6.841  69.771  1.00  0.00    -0.050 C  
BRANCH  24  25
HETATM   25  C   UNL     1      -7.550   5.684  69.345  1.00  0.00    -0.083 A  
HETATM   26  C   UNL     1      -9.206   3.584  68.548  1.00  0.00    -0.166 A  
HETATM   27  F   UNL     1     -10.017   2.592  68.154  1.00  0.00    -0.166 F  
HETATM   28  C   UNL     1      -9.319   4.087  69.835  1.00  0.00    -0.240 A  
HETATM   29  C   UNL     1      -7.435   5.142  68.056  1.00  0.00    -0.076 A  
HETATM   30  C   UNL     1      -8.269   4.096  67.655  1.00  0.00    -0.095 A  
HETATM   31  C   UNL     1      -8.485   5.129  70.225  1.00  0.00    -0.101 A  
HETATM   32  F   UNL     1      -8.600   5.616  71.468  1.00  0.00    -0.125 F  
ENDBRANCH  24  25
ENDBRANCH  22  24
ENDBRANCH   5  20
TORSDOF 3
ENDMDL
MODEL      114
REMARK 921   NORMALIZED FREE ENERGY PREDICTED BY IDOCK:   -5.26 KCAL/MOL
REMARK 922        TOTAL FREE ENERGY PREDICTED BY IDOCK:   -6.50 KCAL/MOL
REMARK 923 INTER-LIGAND FREE ENERGY PREDICTED BY IDOCK:   -5.93 KCAL/MOL
REMARK 924 INTRA-LIGAND FREE ENERGY PREDICTED BY IDOCK:   -0.57 KCAL/MOL
REMARK 927      BINDING AFFINITY PREDICTED BY RF-SCORE:    0.00 PKD
ROOT
HETATM    1  C   UNL     1     -10.802  13.928  67.447  1.00  0.00    -0.285 C  
HETATM    2  C   UNL     1     -10.141  12.558  67.227  1.00  0.00    -0.213 C  
HETATM    3  N   UNL     1     -10.734  11.486  68.039  1.00  0.00    -0.192 NA 
HETATM    4  C   UNL     1     -10.365  10.165  67.780  1.00  0.00    -0.210 C  
HETATM    5  C   UNL     1     -10.637   9.113  68.565  1.00  0.00    -0.209 C  
HETATM    6  C   UNL     1     -11.409   9.398  69.790  1.00  0.00    -0.042 C  
HETATM    7  C   UNL     1     -11.736  16.299  70.122  1.00  0.00    -0.065 C  
HETATM    8  C   UNL     1     -11.770  10.813  70.111  1.00  0.00    -0.339 C  
HETATM    9  C   UNL     1      -9.776  16.396  68.566  1.00  0.00    -0.228 C  
HETATM   10  O   UNL     1     -11.731   8.517  70.591  1.00  0.00    -0.249 OA 
HETATM   11  C   UNL     1     -10.602  15.488  69.474  1.00  0.00    -0.258 C  
HETATM   12  O   UNL     1     -12.154  13.530  70.720  1.00  0.00    -0.339 OA 
HETATM   13  C   UNL     1     -11.399  11.784  69.243  1.00  0.00    -0.286 C  
HETATM   14  O   UNL     1     -12.405  11.008  71.321  1.00  0.00    -0.353 OA 
HETATM   15  N   UNL     1     -10.997  14.211  68.859  1.00  0.00    -0.252 N  
HETATM   16  C   UNL     1     -11.596  13.236  69.667  1.00  0.00    -0.261 C  
HETATM   17  O   UNL     1      -9.934  14.850  66.784  1.00  0.00    -0.237 OA 
HETATM   18  H   UNL     1     -12.635  11.907  71.524  1.00  0.00     0.000 HD 
HETATM   19  C   UNL     1     -10.134  16.207  67.114  1.00  0.00    -0.269 C  
ENDROOT
BRANCH   5  20
HETATM   20  C   UNL     1     -10.130   7.767  68.181  1.00  0.00    -0.185 C  
HETATM   21  H   UNL     1      -8.510   8.020  69.431  1.00  0.00     0.000 HD 
HETATM   22  N   UNL     1      -8.985   7.363  68.813  1.00  0.00    -0.130 N  
HETATM   23  O   UNL     1     -10.719   7.073  67.341  1.00  0.00    -0.261 OA 
BRANCH  22  24
HETATM   24  C   UNL     1      -8.422   6.042  68.640  1.00  0.00    -0.113 C  
BRANCH  24  25
HETATM   25  C   UNL     1      -8.486   5.239  69.910  1.00  0.00    -0.098 A  
HETATM   26  C   UNL     1      -8.641   3.806  72.300  1.00  0.00    -0.093 A  
HETATM   27  F   UNL     1      -8.736   3.132  73.455  1.00  0.00    -0.075 F  
HETATM   28  C   UNL     1      -7.719   4.834  72.184  1.00  0.00    -0.092 A  
HETATM   29  C   UNL     1      -9.394   4.177  70.041  1.00  0.00    -0.237 A  
HETATM   30  C   UNL     1      -9.477   3.465  71.240  1.00  0.00    -0.224 A  
HETATM   31  C   UNL     1      -7.645   5.539  70.987  1.00  0.00    -0.091 A  
HETATM   32  F   UNL     1      -6.756   6.535  70.880  1.00  0.00    -0.048 F  
ENDBRANCH  24  25
ENDBRANCH  22  24
ENDBRANCH   5  20
TORSDOF 3
ENDMDL
MODEL      115
REMARK 921   NORMALIZED FREE ENERGY PREDICTED BY IDOCK:   -5.26 KCAL/MOL
REMARK 922        TOTAL FREE ENERGY PREDICTED BY IDOCK:   -6.50 KCAL/MOL
REMARK 923 INTER-LIGAND FREE ENERGY PREDICTED BY IDOCK:   -6.15 KCAL/MOL
REMARK 924 INTRA-LIGAND FREE ENERGY PREDICTED BY IDOCK:   -0.35 KCAL/MOL
REMARK 927      BINDING AFFINITY PREDICTED BY RF-SCORE:    0.00 PKD
ROOT
HETATM    1  C   UNL     1     -12.017  13.532  69.182  1.00  0.00    -0.333 C  
HETATM    2  C   UNL     1     -10.731  12.792  68.780  1.00  0.00    -0.214 C  
HETATM    3  N   UNL     1     -10.757  11.358  69.105  1.00  0.00    -0.211 NA 
HETATM    4  C   UNL     1      -9.742  10.539  68.607  1.00  0.00    -0.173 C  
HETATM    5  C   UNL     1      -9.502   9.278  68.992  1.00  0.00    -0.155 C  
HETATM    6  C   UNL     1     -10.411   8.726  70.016  1.00  0.00    -0.203 C  
HETATM    7  C   UNL     1     -14.257  14.096  72.066  1.00  0.00    -0.617 C  
HETATM    8  C   UNL     1     -11.472   9.604  70.598  1.00  0.00    -0.306 C  
HETATM    9  C   UNL     1     -12.500  15.619  71.133  1.00  0.00    -0.505 C  
HETATM   10  O   UNL     1     -10.302   7.576  70.448  1.00  0.00    -0.208 OA 
HETATM   11  C   UNL     1     -12.817  14.179  71.532  1.00  0.00    -0.354 C  
HETATM   12  O   UNL     1     -13.244  11.432  71.787  1.00  0.00    -0.458 OA 
HETATM   13  C   UNL     1     -11.580  10.873  70.139  1.00  0.00    -0.338 C  
HETATM   14  O   UNL     1     -12.216   9.045  71.617  1.00  0.00    -0.306 OA 
HETATM   15  N   UNL     1     -12.448  13.174  70.523  1.00  0.00    -0.289 N  
HETATM   16  C   UNL     1     -12.528  11.820  70.868  1.00  0.00    -0.318 C  
HETATM   17  O   UNL     1     -11.693  14.915  69.025  1.00  0.00    -0.293 OA 
HETATM   18  H   UNL     1     -12.891   9.602  71.986  1.00  0.00     0.000 HD 
HETATM   19  C   UNL     1     -12.587  15.815  69.641  1.00  0.00     0.157 C  
ENDROOT
BRANCH   5  20
HETATM   20  C   UNL     1      -8.346   8.545  68.406  1.00  0.00    -0.124 C  
HETATM   21  H   UNL     1      -8.600   9.561  66.630  1.00  0.00     0.000 HD 
HETATM   22  N   UNL     1      -8.008   8.897  67.127  1.00  0.00    -0.096 N  
HETATM   23  O   UNL     1      -7.743   7.676  69.050  1.00  0.00    -0.111 OA 
BRANCH  22  24
HETATM   24  C   UNL     1      -6.845   8.364  66.452  1.00  0.00    -0.070 C  
BRANCH  24  25
HETATM   25  C   UNL     1      -7.223   7.348  65.410  1.00  0.00    -0.069 A  
HETATM   26  C   UNL     1      -7.865   5.482  63.435  1.00  0.00    -0.096 A  
HETATM   27  F   UNL     1      -8.150   4.586  62.479  1.00  0.00    -0.062 F  
HETATM   28  C   UNL     1      -8.116   6.827  63.206  1.00  0.00    -0.013 A  
HETATM   29  C   UNL     1      -7.003   5.980  65.630  1.00  0.00    -0.061 A  
HETATM   30  C   UNL     1      -7.317   5.047  64.638  1.00  0.00    -0.063 A  
HETATM   31  C   UNL     1      -7.798   7.749  64.199  1.00  0.00    -0.133 A  
HETATM   32  F   UNL     1      -8.037   9.047  63.972  1.00  0.00    -0.126 F  
ENDBRANCH  24  25
ENDBRANCH  22  24
ENDBRANCH   5  20
TORSDOF 3
ENDMDL
MODEL      116
REMARK 921   NORMALIZED FREE ENERGY PREDICTED BY IDOCK:   -5.20 KCAL/MOL
REMARK 922        TOTAL FREE ENERGY PREDICTED BY IDOCK:   -6.44 KCAL/MOL
REMARK 923 INTER-LIGAND FREE ENERGY PREDICTED BY IDOCK:   -6.04 KCAL/MOL
REMARK 924 INTRA-LIGAND FREE ENERGY PREDICTED BY IDOCK:   -0.39 KCAL/MOL
REMARK 927      BINDING AFFINITY PREDICTED BY RF-SCORE:    0.00 PKD
ROOT
HETATM    1  C   UNL     1     -11.394  12.337  65.178  1.00  0.00    -0.329 C  
HETATM    2  C   UNL     1     -10.432  11.227  64.725  1.00  0.00    -0.323 C  
HETATM    3  N   UNL     1      -9.952  10.384  65.828  1.00  0.00    -0.255 NA 
HETATM    4  C   UNL     1      -9.243   9.221  65.525  1.00  0.00    -0.231 C  
HETATM    5  C   UNL     1      -8.555   8.477  66.403  1.00  0.00    -0.136 C  
HETATM    6  C   UNL     1      -8.578   8.939  67.805  1.00  0.00    -0.125 C  
HETATM    7  C   UNL     1     -11.677  15.119  67.593  1.00  0.00    -0.233 C  
HETATM    8  C   UNL     1      -9.290  10.210  68.142  1.00  0.00    -0.135 C  
HETATM    9  C   UNL     1     -11.143  15.224  65.148  1.00  0.00    -0.412 C  
HETATM   10  O   UNL     1      -7.993   8.340  68.710  1.00  0.00    -0.110 OA 
HETATM   11  C   UNL     1     -10.850  14.494  66.457  1.00  0.00    -0.314 C  
HETATM   12  O   UNL     1     -10.437  12.737  68.587  1.00  0.00    -0.244 OA 
HETATM   13  C   UNL     1      -9.916  10.880  67.145  1.00  0.00    -0.189 C  
HETATM   14  O   UNL     1      -9.184  10.624  69.454  1.00  0.00    -0.355 OA 
HETATM   15  N   UNL     1     -10.902  13.027  66.359  1.00  0.00    -0.276 N  
HETATM   16  C   UNL     1     -10.471  12.267  67.453  1.00  0.00    -0.210 C  
HETATM   17  O   UNL     1     -11.531  13.177  64.030  1.00  0.00    -0.380 OA 
HETATM   18  H   UNL     1      -9.637  11.431  69.668  1.00  0.00     0.000 HD 
HETATM   19  C   UNL     1     -12.095  14.446  64.277  1.00  0.00    -0.436 C  
ENDROOT
BRANCH   5  20
HETATM   20  C   UNL     1      -7.802   7.288  65.919  1.00  0.00    -0.106 C  
HETATM   21  H   UNL     1      -9.535   6.519  65.108  1.00  0.00     0.000 HD 
HETATM   22  N   UNL     1      -8.530   6.378  65.199  1.00  0.00    -0.113 N  
HETATM   23  O   UNL     1      -6.596   7.147  66.163  1.00  0.00    -0.050 OA 
BRANCH  22  24
HETATM   24  C   UNL     1      -7.930   5.227  64.563  1.00  0.00    -0.113 C  
BRANCH  24  25
HETATM   25  C   UNL     1      -8.971   4.293  64.008  1.00  0.00    -0.145 A  
HETATM   26  C   UNL     1     -10.950   2.584  63.032  1.00  0.00    -0.222 A  
HETATM   27  F   UNL     1     -11.918   1.777  62.574  1.00  0.00    -0.245 F  
HETATM   28  C   UNL     1     -10.281   2.251  64.201  1.00  0.00     0.049 A  
HETATM   29  C   UNL     1      -9.642   4.596  62.814  1.00  0.00     0.037 A  
HETATM   30  C   UNL     1     -10.638   3.744  62.330  1.00  0.00    -0.198 A  
HETATM   31  C   UNL     1      -9.292   3.106  64.676  1.00  0.00    -0.146 A  
HETATM   32  F   UNL     1      -8.652   2.784  65.808  1.00  0.00    -0.096 F  
ENDBRANCH  24  25
ENDBRANCH  22  24
ENDBRANCH   5  20
TORSDOF 3
ENDMDL
MODEL      117
REMARK 921   NORMALIZED FREE ENERGY PREDICTED BY IDOCK:   -5.20 KCAL/MOL
REMARK 922        TOTAL FREE ENERGY PREDICTED BY IDOCK:   -6.43 KCAL/MOL
REMARK 923 INTER-LIGAND FREE ENERGY PREDICTED BY IDOCK:   -6.19 KCAL/MOL
REMARK 924 INTRA-LIGAND FREE ENERGY PREDICTED BY IDOCK:   -0.24 KCAL/MOL
REMARK 927      BINDING AFFINITY PREDICTED BY RF-SCORE:    0.00 PKD
ROOT
HETATM    1  C   UNL     1      -9.161   6.745  66.428  1.00  0.00    -0.153 C  
HETATM    2  C   UNL     1      -9.844   8.104  66.652  1.00  0.00    -0.261 C  
HETATM    3  N   UNL     1      -8.903   9.233  66.678  1.00  0.00    -0.126 NA 
HETATM    4  C   UNL     1      -9.413  10.532  66.667  1.00  0.00    -0.168 C  
HETATM    5  C   UNL     1      -8.709  11.646  66.912  1.00  0.00    -0.185 C  
HETATM    6  C   UNL     1      -7.273  11.458  67.198  1.00  0.00    -0.134 C  
HETATM    7  C   UNL     1      -6.445   4.613  67.742  1.00  0.00    -0.045 C  
HETATM    8  C   UNL     1      -6.718  10.071  67.264  1.00  0.00    -0.074 C  
HETATM    9  C   UNL     1      -8.911   4.418  68.136  1.00  0.00    -0.128 C  
HETATM   10  O   UNL     1      -6.515  12.403  67.430  1.00  0.00    -0.132 OA 
HETATM   11  C   UNL     1      -7.733   5.387  68.070  1.00  0.00    -0.091 C  
HETATM   12  O   UNL     1      -5.869   7.415  67.615  1.00  0.00    -0.032 OA 
HETATM   13  C   UNL     1      -7.554   9.032  67.029  1.00  0.00    -0.091 C  
HETATM   14  O   UNL     1      -5.391   9.976  67.632  1.00  0.00    -0.035 OA 
HETATM   15  N   UNL     1      -7.981   6.591  67.262  1.00  0.00    -0.111 N  
HETATM   16  C   UNL     1      -7.034   7.622  67.289  1.00  0.00    -0.084 C  
HETATM   17  O   UNL     1     -10.188   5.785  66.691  1.00  0.00    -0.182 OA 
HETATM   18  H   UNL     1      -5.039   9.095  67.673  1.00  0.00     0.000 HD 
HETATM   19  C   UNL     1      -9.739   4.461  66.878  1.00  0.00    -0.210 C  
ENDROOT
BRANCH   5  20
HETATM   20  C   UNL     1      -9.405  12.962  66.915  1.00  0.00    -0.240 C  
HETATM   21  H   UNL     1     -11.209  12.008  67.213  1.00  0.00     0.000 HD 
HETATM   22  N   UNL     1     -10.754  12.918  67.144  1.00  0.00    -0.251 N  
HETATM   23  O   UNL     1      -8.786  14.017  66.720  1.00  0.00    -0.225 OA 
BRANCH  22  24
HETATM   24  C   UNL     1     -11.561  14.110  67.290  1.00  0.00    -0.373 C  
BRANCH  24  25
HETATM   25  C   UNL     1     -11.586  14.593  68.714  1.00  0.00    -0.346 A  
HETATM   26  C   UNL     1     -11.570  15.450  71.370  1.00  0.00    -0.402 A  
HETATM   27  F   UNL     1     -11.538  15.857  72.647  1.00  0.00    -0.486 F  
HETATM   28  C   UNL     1     -11.970  14.155  71.077  1.00  0.00    -0.351 A  
HETATM   29  C   UNL     1     -11.210  15.906  69.032  1.00  0.00    -0.327 A  
HETATM   30  C   UNL     1     -11.195  16.333  70.362  1.00  0.00    -0.336 A  
HETATM   31  C   UNL     1     -11.981  13.739  69.749  1.00  0.00    -0.344 A  
HETATM   32  F   UNL     1     -12.363  12.486  69.470  1.00  0.00    -0.266 F  
ENDBRANCH  24  25
ENDBRANCH  22  24
ENDBRANCH   5  20
TORSDOF 3
ENDMDL
MODEL      118
REMARK 921   NORMALIZED FREE ENERGY PREDICTED BY IDOCK:   -5.19 KCAL/MOL
REMARK 922        TOTAL FREE ENERGY PREDICTED BY IDOCK:   -6.43 KCAL/MOL
REMARK 923 INTER-LIGAND FREE ENERGY PREDICTED BY IDOCK:   -6.20 KCAL/MOL
REMARK 924 INTRA-LIGAND FREE ENERGY PREDICTED BY IDOCK:   -0.22 KCAL/MOL
REMARK 927      BINDING AFFINITY PREDICTED BY RF-SCORE:    0.00 PKD
ROOT
HETATM    1  C   UNL     1      -7.861   7.368  64.136  1.00  0.00    -0.120 C  
HETATM    2  C   UNL     1      -8.559   8.728  64.291  1.00  0.00    -0.068 C  
HETATM    3  N   UNL     1      -8.671   9.173  65.687  1.00  0.00    -0.163 NA 
HETATM    4  C   UNL     1      -9.095  10.477  65.945  1.00  0.00    -0.168 C  
HETATM    5  C   UNL     1      -9.458  10.955  67.143  1.00  0.00    -0.178 C  
HETATM    6  C   UNL     1      -9.379  10.007  68.272  1.00  0.00    -0.132 C  
HETATM    7  C   UNL     1      -7.994   3.886  65.365  1.00  0.00    -0.093 C  
HETATM    8  C   UNL     1      -8.976   8.592  68.008  1.00  0.00    -0.141 C  
HETATM    9  C   UNL     1      -8.836   4.807  63.193  1.00  0.00    -0.117 C  
HETATM   10  O   UNL     1      -9.677  10.324  69.426  1.00  0.00    -0.213 OA 
HETATM   11  C   UNL     1      -8.770   5.036  64.702  1.00  0.00    -0.141 C  
HETATM   12  O   UNL     1      -8.459   5.912  67.334  1.00  0.00    -0.105 OA 
HETATM   13  C   UNL     1      -8.668   8.236  66.739  1.00  0.00    -0.133 C  
HETATM   14  O   UNL     1      -9.020   7.745  69.098  1.00  0.00    -0.145 OA 
HETATM   15  N   UNL     1      -8.362   6.394  65.093  1.00  0.00    -0.135 N  
HETATM   16  C   UNL     1      -8.448   6.756  66.442  1.00  0.00    -0.126 C  
HETATM   17  O   UNL     1      -8.084   7.008  62.771  1.00  0.00    -0.117 OA 
HETATM   18  H   UNL     1      -8.763   6.846  68.930  1.00  0.00     0.000 HD 
HETATM   19  C   UNL     1      -7.832   5.656  62.457  1.00  0.00    -0.081 C  
ENDROOT
BRANCH   5  20
HETATM   20  C   UNL     1      -9.940  12.359  67.253  1.00  0.00    -0.206 C  
HETATM   21  H   UNL     1     -11.887  11.708  67.065  1.00  0.00     0.000 HD 
HETATM   22  N   UNL     1     -11.299  12.524  67.233  1.00  0.00    -0.295 N  
HETATM   23  O   UNL     1      -9.146  13.304  67.353  1.00  0.00    -0.196 OA 
BRANCH  22  24
HETATM   24  C   UNL     1     -11.933  13.806  67.440  1.00  0.00    -0.388 C  
BRANCH  24  25
HETATM   25  C   UNL     1     -12.061  14.133  68.903  1.00  0.00    -0.339 A  
HETATM   26  C   UNL     1     -12.230  14.714  71.628  1.00  0.00    -0.344 A  
HETATM   27  F   UNL     1     -12.285  14.993  72.937  1.00  0.00    -0.392 F  
HETATM   28  C   UNL     1     -12.354  13.399  71.204  1.00  0.00    -0.348 A  
HETATM   29  C   UNL     1     -11.964  15.459  69.351  1.00  0.00    -0.351 A  
HETATM   30  C   UNL     1     -12.041  15.749  70.716  1.00  0.00    -0.448 A  
HETATM   31  C   UNL     1     -12.275  13.120  69.843  1.00  0.00    -0.225 A  
HETATM   32  F   UNL     1     -12.391  11.849  69.439  1.00  0.00    -0.293 F  
ENDBRANCH  24  25
ENDBRANCH  22  24
ENDBRANCH   5  20
TORSDOF 3
ENDMDL
MODEL      119
REMARK 921   NORMALIZED FREE ENERGY PREDICTED BY IDOCK:   -5.19 KCAL/MOL
REMARK 922        TOTAL FREE ENERGY PREDICTED BY IDOCK:   -6.43 KCAL/MOL
REMARK 923 INTER-LIGAND FREE ENERGY PREDICTED BY IDOCK:   -5.99 KCAL/MOL
REMARK 924 INTRA-LIGAND FREE ENERGY PREDICTED BY IDOCK:   -0.43 KCAL/MOL
REMARK 927      BINDING AFFINITY PREDICTED BY RF-SCORE:    0.00 PKD
ROOT
HETATM    1  C   UNL     1      -8.111  12.865  67.398  1.00  0.00    -0.181 C  
HETATM    2  C   UNL     1      -7.940  12.186  68.766  1.00  0.00     0.007 C  
HETATM    3  N   UNL     1      -8.438  10.803  68.798  1.00  0.00    -0.142 NA 
HETATM    4  C   UNL     1      -8.155  10.013  69.913  1.00  0.00    -0.166 C  
HETATM    5  C   UNL     1      -8.717   8.828  70.190  1.00  0.00    -0.153 C  
HETATM    6  C   UNL     1      -9.703   8.331  69.210  1.00  0.00    -0.177 C  
HETATM    7  C   UNL     1     -10.654  13.588  64.817  1.00  0.00    -0.429 C  
HETATM    8  C   UNL     1     -10.057   9.185  68.035  1.00  0.00    -0.196 C  
HETATM    9  C   UNL     1      -9.724  15.123  66.564  1.00  0.00    -0.290 C  
HETATM   10  O   UNL     1     -10.285   7.252  69.345  1.00  0.00    -0.182 OA 
HETATM   11  C   UNL     1     -10.266  13.720  66.299  1.00  0.00    -0.297 C  
HETATM   12  O   UNL     1     -10.817  10.997  66.025  1.00  0.00    -0.217 OA 
HETATM   13  C   UNL     1      -9.434  10.379  67.897  1.00  0.00    -0.138 C  
HETATM   14  O   UNL     1     -11.056   8.694  67.219  1.00  0.00    -0.387 OA 
HETATM   15  N   UNL     1      -9.434  12.635  66.844  1.00  0.00    -0.222 N  
HETATM   16  C   UNL     1      -9.936  11.328  66.814  1.00  0.00    -0.206 C  
HETATM   17  O   UNL     1      -7.816  14.241  67.647  1.00  0.00    -0.148 OA 
HETATM   18  H   UNL     1     -11.280   9.237  66.473  1.00  0.00     0.000 HD 
HETATM   19  C   UNL     1      -8.218  15.135  66.633  1.00  0.00    -0.048 C  
ENDROOT
BRANCH   5  20
HETATM   20  C   UNL     1      -8.351   8.124  71.450  1.00  0.00    -0.122 C  
HETATM   21  H   UNL     1      -9.960   8.991  72.404  1.00  0.00     0.000 HD 
HETATM   22  N   UNL     1      -9.196   8.324  72.508  1.00  0.00    -0.245 N  
HETATM   23  O   UNL     1      -7.342   7.409  71.516  1.00  0.00    -0.076 OA 
BRANCH  22  24
HETATM   24  C   UNL     1      -9.048   7.629  73.768  1.00  0.00    -0.277 C  
BRANCH  24  25
HETATM   25  C   UNL     1      -9.704   6.276  73.737  1.00  0.00    -0.194 A  
HETATM   26  C   UNL     1     -10.913   3.764  73.604  1.00  0.00    -0.246 A  
HETATM   27  F   UNL     1     -11.483   2.553  73.518  1.00  0.00    -0.291 F  
HETATM   28  C   UNL     1     -11.633   4.885  73.220  1.00  0.00    -0.276 A  
HETATM   29  C   UNL     1      -9.004   5.131  74.144  1.00  0.00    -0.115 A  
HETATM   30  C   UNL     1      -9.606   3.873  74.070  1.00  0.00    -0.121 A  
HETATM   31  C   UNL     1     -11.024   6.134  73.296  1.00  0.00    -0.204 A  
HETATM   32  F   UNL     1     -11.721   7.214  72.920  1.00  0.00    -0.251 F  
ENDBRANCH  24  25
ENDBRANCH  22  24
ENDBRANCH   5  20
TORSDOF 3
ENDMDL
MODEL      120
REMARK 921   NORMALIZED FREE ENERGY PREDICTED BY IDOCK:   -5.16 KCAL/MOL
REMARK 922        TOTAL FREE ENERGY PREDICTED BY IDOCK:   -6.39 KCAL/MOL
REMARK 923 INTER-LIGAND FREE ENERGY PREDICTED BY IDOCK:   -5.93 KCAL/MOL
REMARK 924 INTRA-LIGAND FREE ENERGY PREDICTED BY IDOCK:   -0.45 KCAL/MOL
REMARK 927      BINDING AFFINITY PREDICTED BY RF-SCORE:    0.00 PKD
ROOT
HETATM    1  C   UNL     1      -7.453   5.143  64.949  1.00  0.00    -0.072 C  
HETATM    2  C   UNL     1      -7.191   6.617  65.299  1.00  0.00    -0.077 C  
HETATM    3  N   UNL     1      -8.075   7.133  66.354  1.00  0.00    -0.112 NA 
HETATM    4  C   UNL     1      -7.803   8.386  66.904  1.00  0.00    -0.095 C  
HETATM    5  C   UNL     1      -8.628   9.083  67.698  1.00  0.00    -0.120 C  
HETATM    6  C   UNL     1      -9.919   8.443  68.016  1.00  0.00    -0.182 C  
HETATM    7  C   UNL     1     -10.168   2.833  63.978  1.00  0.00    -0.100 C  
HETATM    8  C   UNL     1     -10.250   7.123  67.396  1.00  0.00    -0.226 C  
HETATM    9  C   UNL     1      -8.424   3.890  62.524  1.00  0.00    -0.082 C  
HETATM   10  O   UNL     1     -10.762   8.975  68.742  1.00  0.00    -0.195 OA 
HETATM   11  C   UNL     1      -9.425   4.139  63.650  1.00  0.00    -0.142 C  
HETATM   12  O   UNL     1     -10.850   4.781  65.964  1.00  0.00    -0.287 OA 
HETATM   13  C   UNL     1      -9.335   6.547  66.583  1.00  0.00    -0.158 C  
HETATM   14  O   UNL     1     -11.514   6.637  67.666  1.00  0.00    -0.687 OA 
HETATM   15  N   UNL     1      -8.873   4.869  64.802  1.00  0.00    -0.154 N  
HETATM   16  C   UNL     1      -9.751   5.305  65.802  1.00  0.00    -0.059 C  
HETATM   17  O   UNL     1      -6.692   4.921  63.760  1.00  0.00    -0.040 OA 
HETATM   18  H   UNL     1     -11.724   5.799  67.272  1.00  0.00     0.000 HD 
HETATM   19  C   UNL     1      -7.018   3.748  63.049  1.00  0.00    -0.040 C  
ENDROOT
BRANCH   5  20
HETATM   20  C   UNL     1      -8.218  10.435  68.167  1.00  0.00    -0.116 C  
HETATM   21  H   UNL     1      -9.508  11.299  66.810  1.00  0.00     0.000 HD 
HETATM   22  N   UNL     1      -8.862  11.489  67.576  1.00  0.00    -0.152 N  
HETATM   23  O   UNL     1      -7.347  10.577  69.036  1.00  0.00    -0.084 OA 
BRANCH  22  24
HETATM   24  C   UNL     1      -8.665  12.859  67.993  1.00  0.00    -0.191 C  
BRANCH  24  25
HETATM   25  C   UNL     1      -9.386  13.824  67.093  1.00  0.00    -0.240 A  
HETATM   26  C   UNL     1     -10.679  15.595  65.367  1.00  0.00    -0.408 A  
HETATM   27  F   UNL     1     -11.293  16.432  64.518  1.00  0.00    -0.477 F  
HETATM   28  C   UNL     1      -9.424  15.920  65.858  1.00  0.00    -0.372 A  
HETATM   29  C   UNL     1     -10.667  13.528  66.605  1.00  0.00    -0.282 A  
HETATM   30  C   UNL     1     -11.311  14.411  65.735  1.00  0.00    -0.330 A  
HETATM   31  C   UNL     1      -8.790  15.034  66.723  1.00  0.00    -0.268 A  
HETATM   32  F   UNL     1      -7.575  15.350  67.191  1.00  0.00    -0.186 F  
ENDBRANCH  24  25
ENDBRANCH  22  24
ENDBRANCH   5  20
TORSDOF 3
ENDMDL
MODEL      121
REMARK 921   NORMALIZED FREE ENERGY PREDICTED BY IDOCK:   -5.11 KCAL/MOL
REMARK 922        TOTAL FREE ENERGY PREDICTED BY IDOCK:   -6.33 KCAL/MOL
REMARK 923 INTER-LIGAND FREE ENERGY PREDICTED BY IDOCK:   -5.89 KCAL/MOL
REMARK 924 INTRA-LIGAND FREE ENERGY PREDICTED BY IDOCK:   -0.44 KCAL/MOL
REMARK 927      BINDING AFFINITY PREDICTED BY RF-SCORE:    0.00 PKD
ROOT
HETATM    1  C   UNL     1     -11.597  12.698  66.831  1.00  0.00    -0.373 C  
HETATM    2  C   UNL     1     -11.264  11.229  67.135  1.00  0.00    -0.275 C  
HETATM    3  N   UNL     1     -10.050  11.061  67.945  1.00  0.00    -0.174 NA 
HETATM    4  C   UNL     1      -9.756   9.798  68.461  1.00  0.00    -0.154 C  
HETATM    5  C   UNL     1      -8.592   9.437  69.019  1.00  0.00    -0.135 C  
HETATM    6  C   UNL     1      -7.556  10.485  69.098  1.00  0.00    -0.123 C  
HETATM    7  C   UNL     1     -10.102  15.785  65.456  1.00  0.00    -0.383 C  
HETATM    8  C   UNL     1      -7.833  11.830  68.506  1.00  0.00    -0.144 C  
HETATM    9  C   UNL     1     -11.662  14.175  64.338  1.00  0.00    -0.409 C  
HETATM   10  O   UNL     1      -6.446  10.283  69.596  1.00  0.00    -0.051 OA 
HETATM   11  C   UNL     1     -10.415  14.300  65.211  1.00  0.00    -0.389 C  
HETATM   12  O   UNL     1      -8.387  14.216  67.128  1.00  0.00    -0.199 OA 
HETATM   13  C   UNL     1      -9.044  12.047  67.941  1.00  0.00    -0.183 C  
HETATM   14  O   UNL     1      -6.780  12.723  68.533  1.00  0.00    -0.077 OA 
HETATM   15  N   UNL     1     -10.422  13.441  66.406  1.00  0.00    -0.282 N  
HETATM   16  C   UNL     1      -9.252  13.345  67.169  1.00  0.00    -0.240 C  
HETATM   17  O   UNL     1     -12.629  12.631  65.844  1.00  0.00    -0.526 OA 
HETATM   18  H   UNL     1      -6.957  13.577  68.157  1.00  0.00     0.000 HD 
HETATM   19  C   UNL     1     -12.882  13.835  65.155  1.00  0.00    -0.340 C  
ENDROOT
BRANCH   5  20
HETATM   20  C   UNL     1      -8.409   8.033  69.479  1.00  0.00    -0.127 C  
HETATM   21  H   UNL     1      -7.368   7.602  67.752  1.00  0.00     0.000 HD 
HETATM   22  N   UNL     1      -7.672   7.229  68.651  1.00  0.00    -0.117 N  
HETATM   23  O   UNL     1      -8.901   7.636  70.544  1.00  0.00    -0.146 OA 
BRANCH  22  24
HETATM   24  C   UNL     1      -7.306   5.875  69.000  1.00  0.00    -0.084 C  
BRANCH  24  25
HETATM   25  C   UNL     1      -7.923   4.873  68.063  1.00  0.00    -0.086 A  
HETATM   26  C   UNL     1      -9.003   2.976  66.323  1.00  0.00    -0.150 A  
HETATM   27  F   UNL     1      -9.504   2.049  65.495  1.00  0.00    -0.108 F  
HETATM   28  C   UNL     1      -8.136   3.938  65.827  1.00  0.00    -0.097 A  
HETATM   29  C   UNL     1      -8.822   3.907  68.539  1.00  0.00    -0.148 A  
HETATM   30  C   UNL     1      -9.356   2.952  67.670  1.00  0.00    -0.234 A  
HETATM   31  C   UNL     1      -7.608   4.883  66.700  1.00  0.00    -0.088 A  
HETATM   32  F   UNL     1      -6.768   5.808  66.218  1.00  0.00    -0.050 F  
ENDBRANCH  24  25
ENDBRANCH  22  24
ENDBRANCH   5  20
TORSDOF 3
ENDMDL
MODEL      122
REMARK 921   NORMALIZED FREE ENERGY PREDICTED BY IDOCK:   -5.10 KCAL/MOL
REMARK 922        TOTAL FREE ENERGY PREDICTED BY IDOCK:   -6.32 KCAL/MOL
REMARK 923 INTER-LIGAND FREE ENERGY PREDICTED BY IDOCK:   -5.85 KCAL/MOL
REMARK 924 INTRA-LIGAND FREE ENERGY PREDICTED BY IDOCK:   -0.48 KCAL/MOL
REMARK 927      BINDING AFFINITY PREDICTED BY RF-SCORE:    0.00 PKD
ROOT
HETATM    1  C   UNL     1     -11.171  12.936  68.299  1.00  0.00    -0.270 C  
HETATM    2  C   UNL     1     -11.651  11.493  68.523  1.00  0.00    -0.313 C  
HETATM    3  N   UNL     1     -10.631  10.626  69.131  1.00  0.00    -0.213 NA 
HETATM    4  C   UNL     1     -11.006   9.357  69.574  1.00  0.00    -0.173 C  
HETATM    5  C   UNL     1     -10.164   8.379  69.937  1.00  0.00    -0.201 C  
HETATM    6  C   UNL     1      -8.725   8.702  69.869  1.00  0.00    -0.133 C  
HETATM    7  C   UNL     1      -8.428  14.872  66.758  1.00  0.00    -0.215 C  
HETATM    8  C   UNL     1      -8.302  10.038  69.349  1.00  0.00    -0.165 C  
HETATM    9  C   UNL     1     -10.733  14.457  65.872  1.00  0.00    -0.308 C  
HETATM   10  O   UNL     1      -7.849   7.893  70.183  1.00  0.00    -0.094 OA 
HETATM   11  C   UNL     1      -9.521  13.812  66.541  1.00  0.00    -0.269 C  
HETATM   12  O   UNL     1      -7.642  12.476  68.114  1.00  0.00    -0.107 OA 
HETATM   13  C   UNL     1      -9.262  10.920  68.984  1.00  0.00    -0.115 C  
HETATM   14  O   UNL     1      -6.940  10.227  69.226  1.00  0.00    -0.058 OA 
HETATM   15  N   UNL     1      -9.844  12.976  67.707  1.00  0.00    -0.218 N  
HETATM   16  C   UNL     1      -8.828  12.199  68.276  1.00  0.00    -0.182 C  
HETATM   17  O   UNL     1     -12.188  13.524  67.485  1.00  0.00    -0.325 OA 
HETATM   18  H   UNL     1      -6.671  11.076  68.896  1.00  0.00     0.000 HD 
HETATM   19  C   UNL     1     -11.832  14.739  66.864  1.00  0.00    -0.262 C  
ENDROOT
BRANCH   5  20
HETATM   20  C   UNL     1     -10.714   7.056  70.339  1.00  0.00    -0.234 C  
HETATM   21  H   UNL     1     -10.403   7.527  72.322  1.00  0.00     0.000 HD 
HETATM   22  N   UNL     1     -10.792   6.831  71.687  1.00  0.00    -0.226 N  
HETATM   23  O   UNL     1     -11.071   6.224  69.493  1.00  0.00    -0.338 OA 
BRANCH  22  24
HETATM   24  C   UNL     1     -11.403   5.646  72.247  1.00  0.00    -0.240 C  
BRANCH  24  25
HETATM   25  C   UNL     1     -10.373   4.637  72.675  1.00  0.00    -0.253 A  
HETATM   26  C   UNL     1      -8.485   2.719  73.413  1.00  0.00    -0.075 A  
HETATM   27  F   UNL     1      -7.579   1.788  73.744  1.00  0.00    -0.032 F  
HETATM   28  C   UNL     1      -9.817   2.525  73.747  1.00  0.00    -0.142 A  
HETATM   29  C   UNL     1      -9.017   4.826  72.370  1.00  0.00    -0.138 A  
HETATM   30  C   UNL     1      -8.073   3.862  72.733  1.00  0.00    -0.093 A  
HETATM   31  C   UNL     1     -10.750   3.489  73.380  1.00  0.00    -0.208 A  
HETATM   32  F   UNL     1     -12.036   3.296  73.700  1.00  0.00    -0.246 F  
ENDBRANCH  24  25
ENDBRANCH  22  24
ENDBRANCH   5  20
TORSDOF 3
ENDMDL
MODEL      123
REMARK 921   NORMALIZED FREE ENERGY PREDICTED BY IDOCK:   -4.99 KCAL/MOL
REMARK 922        TOTAL FREE ENERGY PREDICTED BY IDOCK:   -6.19 KCAL/MOL
REMARK 923 INTER-LIGAND FREE ENERGY PREDICTED BY IDOCK:   -5.63 KCAL/MOL
REMARK 924 INTRA-LIGAND FREE ENERGY PREDICTED BY IDOCK:   -0.56 KCAL/MOL
REMARK 927      BINDING AFFINITY PREDICTED BY RF-SCORE:    0.00 PKD
ROOT
HETATM    1  C   UNL     1     -11.212  15.186  66.436  1.00  0.00    -0.277 C  
HETATM    2  C   UNL     1     -10.312  14.442  65.437  1.00  0.00    -0.378 C  
HETATM    3  N   UNL     1     -10.427  12.979  65.524  1.00  0.00    -0.281 NA 
HETATM    4  C   UNL     1      -9.824  12.198  64.538  1.00  0.00    -0.125 C  
HETATM    5  C   UNL     1      -9.648  10.870  64.596  1.00  0.00    -0.305 C  
HETATM    6  C   UNL     1     -10.159  10.199  65.808  1.00  0.00    -0.254 C  
HETATM    7  C   UNL     1     -12.040  15.341  70.034  1.00  0.00    -0.386 C  
HETATM    8  C   UNL     1     -10.764  11.024  66.898  1.00  0.00    -0.274 C  
HETATM    9  C   UNL     1     -10.575  16.876  68.703  1.00  0.00    -0.360 C  
HETATM   10  O   UNL     1     -10.068   8.981  65.979  1.00  0.00    -0.278 OA 
HETATM   11  C   UNL     1     -10.926  15.415  68.976  1.00  0.00    -0.252 C  
HETATM   12  O   UNL     1     -11.634  12.714  68.968  1.00  0.00    -0.276 OA 
HETATM   13  C   UNL     1     -10.847  12.364  66.720  1.00  0.00    -0.248 C  
HETATM   14  O   UNL     1     -11.129  10.335  68.036  1.00  0.00    -0.300 OA 
HETATM   15  N   UNL     1     -11.137  14.604  67.766  1.00  0.00    -0.287 N  
HETATM   16  C   UNL     1     -11.281  13.219  67.906  1.00  0.00    -0.272 C  
HETATM   17  O   UNL     1     -10.768  16.543  66.370  1.00  0.00    -0.261 OA 
HETATM   18  H   UNL     1     -11.514  10.859  68.728  1.00  0.00     0.000 HD 
HETATM   19  C   UNL     1     -11.204  17.370  67.425  1.00  0.00     0.278 C  
ENDROOT
BRANCH   5  20
HETATM   20  C   UNL     1      -8.936  10.180  63.486  1.00  0.00    -0.245 C  
HETATM   21  H   UNL     1      -7.205  10.160  64.605  1.00  0.00     0.000 HD 
HETATM   22  N   UNL     1      -7.631   9.850  63.732  1.00  0.00    -0.132 N  
HETATM   23  O   UNL     1      -9.506   9.930  62.415  1.00  0.00    -0.278 OA 
BRANCH  22  24
HETATM   24  C   UNL     1      -6.832   9.079  62.805  1.00  0.00    -0.093 C  
BRANCH  24  25
HETATM   25  C   UNL     1      -6.733   7.637  63.222  1.00  0.00    -0.062 A  
HETATM   26  C   UNL     1      -6.599   4.975  64.048  1.00  0.00    -0.041 A  
HETATM   27  F   UNL     1      -6.558   3.698  64.456  1.00  0.00    -0.037 F  
HETATM   28  C   UNL     1      -5.967   5.952  64.802  1.00  0.00    -0.025 A  
HETATM   29  C   UNL     1      -7.342   6.629  62.461  1.00  0.00    -0.063 A  
HETATM   30  C   UNL     1      -7.282   5.297  62.879  1.00  0.00    -0.043 A  
HETATM   31  C   UNL     1      -6.034   7.276  64.379  1.00  0.00    -0.037 A  
HETATM   32  F   UNL     1      -5.427   8.218  65.112  1.00  0.00    -0.037 F  
ENDBRANCH  24  25
ENDBRANCH  22  24
ENDBRANCH   5  20
TORSDOF 3
ENDMDL
MODEL      124
REMARK 921   NORMALIZED FREE ENERGY PREDICTED BY IDOCK:   -4.93 KCAL/MOL
REMARK 922        TOTAL FREE ENERGY PREDICTED BY IDOCK:   -6.11 KCAL/MOL
REMARK 923 INTER-LIGAND FREE ENERGY PREDICTED BY IDOCK:   -5.85 KCAL/MOL
REMARK 924 INTRA-LIGAND FREE ENERGY PREDICTED BY IDOCK:   -0.26 KCAL/MOL
REMARK 927      BINDING AFFINITY PREDICTED BY RF-SCORE:    0.00 PKD
ROOT
HETATM    1  C   UNL     1      -8.308   6.940  67.783  1.00  0.00    -0.120 C  
HETATM    2  C   UNL     1      -9.157   8.034  67.116  1.00  0.00    -0.137 C  
HETATM    3  N   UNL     1      -8.711   9.397  67.437  1.00  0.00    -0.125 NA 
HETATM    4  C   UNL     1      -9.264  10.468  66.734  1.00  0.00    -0.155 C  
HETATM    5  C   UNL     1      -9.133  11.762  67.058  1.00  0.00    -0.187 C  
HETATM    6  C   UNL     1      -8.315  12.054  68.251  1.00  0.00    -0.163 C  
HETATM    7  C   UNL     1      -7.020   5.876  71.079  1.00  0.00    -0.067 C  
HETATM    8  C   UNL     1      -7.755  10.918  69.047  1.00  0.00    -0.135 C  
HETATM    9  C   UNL     1      -8.965   4.960  69.794  1.00  0.00    -0.138 C  
HETATM   10  O   UNL     1      -8.110  13.203  68.649  1.00  0.00    -0.112 OA 
HETATM   11  C   UNL     1      -8.264   6.237  70.250  1.00  0.00    -0.125 C  
HETATM   12  O   UNL     1      -6.987   8.697  70.588  1.00  0.00    -0.039 OA 
HETATM   13  C   UNL     1      -7.996   9.655  68.623  1.00  0.00    -0.089 C  
HETATM   14  O   UNL     1      -7.085  11.271  70.201  1.00  0.00    -0.440 OA 
HETATM   15  N   UNL     1      -8.059   7.231  69.185  1.00  0.00    -0.119 N  
HETATM   16  C   UNL     1      -7.593   8.503  69.538  1.00  0.00    -0.089 C  
HETATM   17  O   UNL     1      -9.046   5.735  67.562  1.00  0.00    -0.109 OA 
HETATM   18  H   UNL     1      -6.729  10.550  70.706  1.00  0.00     0.000 HD 
HETATM   19  C   UNL     1      -8.654   4.637  68.355  1.00  0.00    -0.097 C  
ENDROOT
BRANCH   5  20
HETATM   20  C   UNL     1      -9.828  12.792  66.238  1.00  0.00    -0.267 C  
HETATM   21  H   UNL     1     -10.618  13.624  67.952  1.00  0.00     0.000 HD 
HETATM   22  N   UNL     1     -10.538  13.729  66.941  1.00  0.00    -0.275 N  
HETATM   23  O   UNL     1      -9.758  12.784  65.002  1.00  0.00    -0.102 OA 
BRANCH  22  24
HETATM   24  C   UNL     1     -11.178  14.860  66.308  1.00  0.00    -0.331 C  
BRANCH  24  25
HETATM   25  C   UNL     1     -10.725  16.163  66.908  1.00  0.00    -0.247 A  
HETATM   26  C   UNL     1      -9.832  18.543  68.060  1.00  0.00    -0.341 A  
HETATM   27  F   UNL     1      -9.381  19.675  68.618  1.00  0.00    -0.382 F  
HETATM   28  C   UNL     1     -10.603  17.671  68.814  1.00  0.00    -0.191 A  
HETATM   29  C   UNL     1      -9.966  17.072  66.156  1.00  0.00    -0.314 A  
HETATM   30  C   UNL     1      -9.512  18.260  66.735  1.00  0.00    -0.300 A  
HETATM   31  C   UNL     1     -11.048  16.490  68.229  1.00  0.00    -0.321 A  
HETATM   32  F   UNL     1     -11.788  15.648  68.962  1.00  0.00    -0.333 F  
ENDBRANCH  24  25
ENDBRANCH  22  24
ENDBRANCH   5  20
TORSDOF 3
ENDMDL
MODEL      125
REMARK 921   NORMALIZED FREE ENERGY PREDICTED BY IDOCK:   -4.91 KCAL/MOL
REMARK 922        TOTAL FREE ENERGY PREDICTED BY IDOCK:   -6.10 KCAL/MOL
REMARK 923 INTER-LIGAND FREE ENERGY PREDICTED BY IDOCK:   -5.66 KCAL/MOL
REMARK 924 INTRA-LIGAND FREE ENERGY PREDICTED BY IDOCK:   -0.43 KCAL/MOL
REMARK 927      BINDING AFFINITY PREDICTED BY RF-SCORE:    0.00 PKD
ROOT
HETATM    1  C   UNL     1     -10.625   8.719  69.970  1.00  0.00    -0.223 C  
HETATM    2  C   UNL     1      -9.723   9.963  69.993  1.00  0.00    -0.227 C  
HETATM    3  N   UNL     1      -9.061  10.230  68.708  1.00  0.00    -0.151 NA 
HETATM    4  C   UNL     1      -8.385  11.438  68.539  1.00  0.00    -0.153 C  
HETATM    5  C   UNL     1      -7.555  11.731  67.527  1.00  0.00    -0.135 C  
HETATM    6  C   UNL     1      -7.372  10.676  66.511  1.00  0.00    -0.134 C  
HETATM    7  C   UNL     1     -10.586   5.127  69.103  1.00  0.00    -0.069 C  
HETATM    8  C   UNL     1      -8.048   9.356  66.701  1.00  0.00    -0.108 C  
HETATM    9  C   UNL     1     -10.438   6.187  71.367  1.00  0.00    -0.273 C  
HETATM   10  O   UNL     1      -6.642  10.823  65.528  1.00  0.00    -0.094 OA 
HETATM   11  C   UNL     1      -9.932   6.248  69.927  1.00  0.00    -0.169 C  
HETATM   12  O   UNL     1      -9.162   6.849  67.312  1.00  0.00    -0.124 OA 
HETATM   13  C   UNL     1      -8.833   9.186  67.791  1.00  0.00    -0.124 C  
HETATM   14  O   UNL     1      -7.749   8.391  65.760  1.00  0.00    -0.089 OA 
HETATM   15  N   UNL     1      -9.970   7.591  69.327  1.00  0.00    -0.175 N  
HETATM   16  C   UNL     1      -9.360   7.785  68.082  1.00  0.00    -0.145 C  
HETATM   17  O   UNL     1     -10.954   8.494  71.343  1.00  0.00    -0.237 OA 
HETATM   18  H   UNL     1      -8.179   7.553  65.880  1.00  0.00     0.000 HD 
HETATM   19  C   UNL     1     -11.498   7.225  71.630  1.00  0.00    -0.265 C  
ENDROOT
BRANCH   5  20
HETATM   20  C   UNL     1      -6.863  13.049  67.510  1.00  0.00    -0.151 C  
HETATM   21  H   UNL     1      -8.623  13.967  66.952  1.00  0.00     0.000 HD 
HETATM   22  N   UNL     1      -7.652  14.129  67.217  1.00  0.00    -0.147 N  
HETATM   23  O   UNL     1      -5.651  13.141  67.747  1.00  0.00    -0.117 OA 
BRANCH  22  24
HETATM   24  C   UNL     1      -7.163  15.489  67.269  1.00  0.00    -0.207 C  
BRANCH  24  25
HETATM   25  C   UNL     1      -8.287  16.479  67.409  1.00  0.00    -0.188 A  
HETATM   26  C   UNL     1     -10.421  18.258  67.678  1.00  0.00    -0.411 A  
HETATM   27  F   UNL     1     -11.458  19.095  67.821  1.00  0.00    -0.277 F  
HETATM   28  C   UNL     1     -10.277  17.544  66.498  1.00  0.00    -0.342 A  
HETATM   29  C   UNL     1      -8.437  17.231  68.583  1.00  0.00    -0.260 A  
HETATM   30  C   UNL     1      -9.510  18.115  68.721  1.00  0.00    -0.285 A  
HETATM   31  C   UNL     1      -9.207  16.664  66.371  1.00  0.00    -0.287 A  
HETATM   32  F   UNL     1      -9.074  15.972  65.231  1.00  0.00    -0.095 F  
ENDBRANCH  24  25
ENDBRANCH  22  24
ENDBRANCH   5  20
TORSDOF 3
ENDMDL
MODEL      126
REMARK 921   NORMALIZED FREE ENERGY PREDICTED BY IDOCK:   -4.85 KCAL/MOL
REMARK 922        TOTAL FREE ENERGY PREDICTED BY IDOCK:   -6.02 KCAL/MOL
REMARK 923 INTER-LIGAND FREE ENERGY PREDICTED BY IDOCK:   -5.82 KCAL/MOL
REMARK 924 INTRA-LIGAND FREE ENERGY PREDICTED BY IDOCK:   -0.20 KCAL/MOL
REMARK 927      BINDING AFFINITY PREDICTED BY RF-SCORE:    0.00 PKD
ROOT
HETATM    1  C   UNL     1      -9.212   5.274  66.580  1.00  0.00    -0.130 C  
HETATM    2  C   UNL     1     -10.160   6.442  66.894  1.00  0.00    -0.187 C  
HETATM    3  N   UNL     1      -9.495   7.753  66.882  1.00  0.00    -0.175 NA 
HETATM    4  C   UNL     1     -10.281   8.905  66.946  1.00  0.00    -0.276 C  
HETATM    5  C   UNL     1      -9.826  10.146  67.168  1.00  0.00    -0.231 C  
HETATM    6  C   UNL     1      -8.366  10.282  67.340  1.00  0.00    -0.118 C  
HETATM    7  C   UNL     1      -5.993   3.792  67.627  1.00  0.00    -0.027 C  
HETATM    8  C   UNL     1      -7.513   9.055  67.326  1.00  0.00    -0.084 C  
HETATM    9  C   UNL     1      -8.314   3.044  68.198  1.00  0.00    -0.094 C  
HETATM   10  O   UNL     1      -7.822  11.370  67.542  1.00  0.00    -0.116 OA 
HETATM   11  C   UNL     1      -7.391   4.254  68.072  1.00  0.00    -0.064 C  
HETATM   12  O   UNL     1      -6.068   6.653  67.536  1.00  0.00    -0.028 OA 
HETATM   13  C   UNL     1      -8.112   7.857  67.125  1.00  0.00    -0.117 C  
HETATM   14  O   UNL     1      -6.173   9.255  67.590  1.00  0.00    -0.056 OA 
HETATM   15  N   UNL     1      -7.964   5.380  67.319  1.00  0.00    -0.101 N  
HETATM   16  C   UNL     1      -7.272   6.597  67.304  1.00  0.00    -0.085 C  
HETATM   17  O   UNL     1      -9.974   4.106  66.892  1.00  0.00    -0.210 OA 
HETATM   18  H   UNL     1      -5.631   8.476  67.580  1.00  0.00     0.000 HD 
HETATM   19  C   UNL     1      -9.228   2.915  67.007  1.00  0.00    -0.149 C  
ENDROOT
BRANCH   5  20
HETATM   20  C   UNL     1     -10.796  11.272  67.261  1.00  0.00    -0.267 C  
HETATM   21  H   UNL     1      -9.739  12.053  68.851  1.00  0.00     0.000 HD 
HETATM   22  N   UNL     1     -10.522  12.213  68.217  1.00  0.00    -0.207 N  
HETATM   23  O   UNL     1     -11.781  11.335  66.514  1.00  0.00    -0.323 OA 
BRANCH  22  24
HETATM   24  C   UNL     1     -11.297  13.424  68.366  1.00  0.00    -0.294 C  
BRANCH  24  25
HETATM   25  C   UNL     1     -11.689  13.663  69.798  1.00  0.00    -0.364 A  
HETATM   26  C   UNL     1     -12.460  14.161  72.434  1.00  0.00    -0.113 A  
HETATM   27  F   UNL     1     -12.852  14.411  73.691  1.00  0.00    -0.573 F  
HETATM   28  C   UNL     1     -11.578  15.029  71.809  1.00  0.00    -0.425 A  
HETATM   29  C   UNL     1     -12.560  12.784  70.459  1.00  0.00    -0.191 A  
HETATM   30  C   UNL     1     -12.952  13.037  71.775  1.00  0.00    -0.420 A  
HETATM   31  C   UNL     1     -11.194  14.769  70.497  1.00  0.00    -0.148 A  
HETATM   32  F   UNL     1     -10.346  15.613  69.895  1.00  0.00    -0.247 F  
ENDBRANCH  24  25
ENDBRANCH  22  24
ENDBRANCH   5  20
TORSDOF 3
ENDMDL
MODEL      127
REMARK 921   NORMALIZED FREE ENERGY PREDICTED BY IDOCK:   -4.79 KCAL/MOL
REMARK 922        TOTAL FREE ENERGY PREDICTED BY IDOCK:   -5.95 KCAL/MOL
REMARK 923 INTER-LIGAND FREE ENERGY PREDICTED BY IDOCK:   -5.60 KCAL/MOL
REMARK 924 INTRA-LIGAND FREE ENERGY PREDICTED BY IDOCK:   -0.36 KCAL/MOL
REMARK 927      BINDING AFFINITY PREDICTED BY RF-SCORE:    0.00 PKD
ROOT
HETATM    1  C   UNL     1     -12.681  12.601  71.879  1.00  0.00    -0.081 C  
HETATM    2  C   UNL     1     -12.822  11.096  71.602  1.00  0.00    -0.419 C  
HETATM    3  N   UNL     1     -11.755  10.557  70.746  1.00  0.00    -0.348 NA 
HETATM    4  C   UNL     1     -11.653   9.174  70.591  1.00  0.00    -0.235 C  
HETATM    5  C   UNL     1     -10.892   8.546  69.683  1.00  0.00    -0.157 C  
HETATM    6  C   UNL     1     -10.092   9.413  68.795  1.00  0.00    -0.193 C  
HETATM    7  C   UNL     1     -12.261  15.839  70.151  1.00  0.00    -0.340 C  
HETATM    8  C   UNL     1     -10.226  10.898  68.912  1.00  0.00    -0.198 C  
HETATM    9  C   UNL     1     -14.344  14.853  71.132  1.00  0.00    -0.331 C  
HETATM   10  O   UNL     1      -9.345   8.960  67.924  1.00  0.00    -0.140 OA 
HETATM   11  C   UNL     1     -13.108  14.563  70.282  1.00  0.00     0.019 C  
HETATM   12  O   UNL     1     -10.769  13.651  69.061  1.00  0.00    -0.234 OA 
HETATM   13  C   UNL     1     -11.061  11.396  69.854  1.00  0.00    -0.059 C  
HETATM   14  O   UNL     1      -9.520  11.636  67.983  1.00  0.00    -0.172 OA 
HETATM   15  N   UNL     1     -12.378  13.345  70.668  1.00  0.00    -0.360 N  
HETATM   16  C   UNL     1     -11.343  12.895  69.840  1.00  0.00     0.039 C  
HETATM   17  O   UNL     1     -13.920  12.965  72.491  1.00  0.00    -0.581 OA 
HETATM   18  H   UNL     1      -9.605  12.578  68.057  1.00  0.00     0.000 HD 
HETATM   19  C   UNL     1     -14.180  14.351  72.543  1.00  0.00    -0.231 C  
ENDROOT
BRANCH   5  20
HETATM   20  C   UNL     1     -10.927   7.060  69.604  1.00  0.00    -0.236 C  
HETATM   21  H   UNL     1      -8.870   7.018  69.459  1.00  0.00     0.000 HD 
HETATM   22  N   UNL     1      -9.708   6.441  69.535  1.00  0.00    -0.150 N  
HETATM   23  O   UNL     1     -12.000   6.442  69.601  1.00  0.00    -0.197 OA 
BRANCH  22  24
HETATM   24  C   UNL     1      -9.559   5.003  69.566  1.00  0.00    -0.167 C  
BRANCH  24  25
HETATM   25  C   UNL     1      -8.744   4.503  68.405  1.00  0.00    -0.114 A  
HETATM   26  C   UNL     1      -7.224   3.646  66.226  1.00  0.00    -0.064 A  
HETATM   27  F   UNL     1      -6.483   3.258  65.179  1.00  0.00    -0.031 F  
HETATM   28  C   UNL     1      -8.536   4.047  66.023  1.00  0.00    -0.109 A  
HETATM   29  C   UNL     1      -7.423   4.069  68.591  1.00  0.00    -0.055 A  
HETATM   30  C   UNL     1      -6.660   3.648  67.499  1.00  0.00    -0.042 A  
HETATM   31  C   UNL     1      -9.288   4.467  67.116  1.00  0.00    -0.155 A  
HETATM   32  F   UNL     1     -10.553   4.857  66.915  1.00  0.00    -0.258 F  
ENDBRANCH  24  25
ENDBRANCH  22  24
ENDBRANCH   5  20
TORSDOF 3
ENDMDL
MODEL      128
REMARK 921   NORMALIZED FREE ENERGY PREDICTED BY IDOCK:   -4.77 KCAL/MOL
REMARK 922        TOTAL FREE ENERGY PREDICTED BY IDOCK:   -5.93 KCAL/MOL
REMARK 923 INTER-LIGAND FREE ENERGY PREDICTED BY IDOCK:   -6.01 KCAL/MOL
REMARK 924 INTRA-LIGAND FREE ENERGY PREDICTED BY IDOCK:    0.08 KCAL/MOL
REMARK 927      BINDING AFFINITY PREDICTED BY RF-SCORE:    0.00 PKD
ROOT
HETATM    1  C   UNL     1      -7.602  16.510  68.037  1.00  0.00    -0.161 C  
HETATM    2  C   UNL     1      -7.306  15.192  68.769  1.00  0.00    -0.131 C  
HETATM    3  N   UNL     1      -8.080  14.052  68.256  1.00  0.00    -0.140 NA 
HETATM    4  C   UNL     1      -7.755  12.768  68.694  1.00  0.00    -0.064 C  
HETATM    5  C   UNL     1      -8.496  11.668  68.499  1.00  0.00    -0.135 C  
HETATM    6  C   UNL     1      -9.749  11.854  67.741  1.00  0.00    -0.189 C  
HETATM    7  C   UNL     1     -10.400  18.703  67.030  1.00  0.00    -0.445 C  
HETATM    8  C   UNL     1     -10.140  13.230  67.307  1.00  0.00    -0.234 C  
HETATM    9  C   UNL     1      -8.811  18.981  68.946  1.00  0.00    -0.289 C  
HETATM   10  O   UNL     1     -10.514  10.921  67.487  1.00  0.00    -0.192 OA 
HETATM   11  C   UNL     1      -9.693  17.988  68.194  1.00  0.00    -0.322 C  
HETATM   12  O   UNL     1     -10.880  15.891  66.783  1.00  0.00    -0.309 OA 
HETATM   13  C   UNL     1      -9.311  14.258  67.603  1.00  0.00    -0.201 C  
HETATM   14  O   UNL     1     -11.370  13.334  66.689  1.00  0.00    -0.301 OA 
HETATM   15  N   UNL     1      -9.029  16.719  67.858  1.00  0.00    -0.216 N  
HETATM   16  C   UNL     1      -9.803  15.676  67.334  1.00  0.00    -0.225 C  
HETATM   17  O   UNL     1      -6.964  17.509  68.835  1.00  0.00    -0.233 OA 
HETATM   18  H   UNL     1     -11.619  14.208  66.414  1.00  0.00     0.000 HD 
HETATM   19  C   UNL     1      -7.360  18.836  68.566  1.00  0.00    -0.297 C  
ENDROOT
BRANCH   5  20
HETATM   20  C   UNL     1      -8.041  10.372  69.073  1.00  0.00    -0.138 C  
HETATM   21  H   UNL     1      -9.505   9.385  68.007  1.00  0.00     0.000 HD 
HETATM   22  N   UNL     1      -8.704   9.260  68.627  1.00  0.00    -0.131 N  
HETATM   23  O   UNL     1      -7.122  10.323  69.902  1.00  0.00    -0.121 OA 
BRANCH  22  24
HETATM   24  C   UNL     1      -8.316   7.918  68.997  1.00  0.00    -0.130 C  
BRANCH  24  25
HETATM   25  C   UNL     1      -8.870   6.895  68.043  1.00  0.00    -0.123 A  
HETATM   26  C   UNL     1      -9.898   4.947  66.329  1.00  0.00    -0.209 A  
HETATM   27  F   UNL     1     -10.402   4.000  65.525  1.00  0.00    -0.200 F  
HETATM   28  C   UNL     1      -8.566   4.884  66.707  1.00  0.00    -0.108 A  
HETATM   29  C   UNL     1     -10.208   6.955  67.626  1.00  0.00    -0.235 A  
HETATM   30  C   UNL     1     -10.725   5.975  66.775  1.00  0.00    -0.374 A  
HETATM   31  C   UNL     1      -8.061   5.862  67.557  1.00  0.00    -0.102 A  
HETATM   32  F   UNL     1      -6.774   5.795  67.924  1.00  0.00    -0.049 F  
ENDBRANCH  24  25
ENDBRANCH  22  24
ENDBRANCH   5  20
TORSDOF 3
ENDMDL
MODEL      129
REMARK 921   NORMALIZED FREE ENERGY PREDICTED BY IDOCK:   -4.76 KCAL/MOL
REMARK 922        TOTAL FREE ENERGY PREDICTED BY IDOCK:   -5.92 KCAL/MOL
REMARK 923 INTER-LIGAND FREE ENERGY PREDICTED BY IDOCK:   -5.58 KCAL/MOL
REMARK 924 INTRA-LIGAND FREE ENERGY PREDICTED BY IDOCK:   -0.34 KCAL/MOL
REMARK 927      BINDING AFFINITY PREDICTED BY RF-SCORE:    0.00 PKD
ROOT
HETATM    1  C   UNL     1     -12.516  12.596  71.862  1.00  0.00     0.263 C  
HETATM    2  C   UNL     1     -12.668  11.084  71.634  1.00  0.00    -0.378 C  
HETATM    3  N   UNL     1     -11.648  10.523  70.738  1.00  0.00    -0.347 NA 
HETATM    4  C   UNL     1     -11.551   9.136  70.616  1.00  0.00    -0.235 C  
HETATM    5  C   UNL     1     -10.838   8.484  69.686  1.00  0.00    -0.157 C  
HETATM    6  C   UNL     1     -10.088   9.326  68.734  1.00  0.00    -0.195 C  
HETATM    7  C   UNL     1     -12.194  15.787  70.026  1.00  0.00    -0.309 C  
HETATM    8  C   UNL     1     -10.218  10.814  68.817  1.00  0.00    -0.193 C  
HETATM    9  C   UNL     1     -14.220  14.827  71.142  1.00  0.00    -0.298 C  
HETATM   10  O   UNL     1      -9.387   8.850  67.838  1.00  0.00    -0.140 OA 
HETATM   11  C   UNL     1     -13.031  14.514  70.237  1.00  0.00    -0.100 C  
HETATM   12  O   UNL     1     -10.758  13.570  68.919  1.00  0.00    -0.244 OA 
HETATM   13  C   UNL     1     -11.003  11.337  69.788  1.00  0.00    -0.103 C  
HETATM   14  O   UNL     1      -9.564  11.526  67.832  1.00  0.00    -0.167 OA 
HETATM   15  N   UNL     1     -12.279  13.308  70.617  1.00  0.00    -0.366 N  
HETATM   16  C   UNL     1     -11.288  12.835  69.748  1.00  0.00    -0.033 C  
HETATM   17  O   UNL     1     -13.722  12.977  72.528  1.00  0.00    -0.594 OA 
HETATM   18  H   UNL     1      -9.647  12.471  67.885  1.00  0.00     0.000 HD 
HETATM   19  C   UNL     1     -13.981  14.364  72.556  1.00  0.00    -0.408 C  
ENDROOT
BRANCH   5  20
HETATM   20  C   UNL     1     -10.874   6.996  69.651  1.00  0.00    -0.247 C  
HETATM   21  H   UNL     1      -8.820   6.949  69.475  1.00  0.00     0.000 HD 
HETATM   22  N   UNL     1      -9.656   6.375  69.580  1.00  0.00    -0.146 N  
HETATM   23  O   UNL     1     -11.947   6.379  69.682  1.00  0.00    -0.197 OA 
BRANCH  22  24
HETATM   24  C   UNL     1      -9.507   4.939  69.650  1.00  0.00    -0.148 C  
BRANCH  24  25
HETATM   25  C   UNL     1      -8.902   4.505  70.956  1.00  0.00    -0.151 A  
HETATM   26  C   UNL     1      -7.721   3.668  73.343  1.00  0.00    -0.070 A  
HETATM   27  F   UNL     1      -7.131   3.267  74.478  1.00  0.00    -0.041 F  
HETATM   28  C   UNL     1      -8.356   2.736  72.536  1.00  0.00    -0.070 A  
HETATM   29  C   UNL     1      -8.277   5.435  71.800  1.00  0.00    -0.119 A  
HETATM   30  C   UNL     1      -7.679   5.015  72.991  1.00  0.00    -0.097 A  
HETATM   31  C   UNL     1      -8.947   3.163  71.351  1.00  0.00    -0.095 A  
HETATM   32  F   UNL     1      -9.555   2.259  70.573  1.00  0.00    -0.194 F  
ENDBRANCH  24  25
ENDBRANCH  22  24
ENDBRANCH   5  20
TORSDOF 3
ENDMDL
MODEL      130
REMARK 921   NORMALIZED FREE ENERGY PREDICTED BY IDOCK:   -4.76 KCAL/MOL
REMARK 922        TOTAL FREE ENERGY PREDICTED BY IDOCK:   -5.92 KCAL/MOL
REMARK 923 INTER-LIGAND FREE ENERGY PREDICTED BY IDOCK:   -5.65 KCAL/MOL
REMARK 924 INTRA-LIGAND FREE ENERGY PREDICTED BY IDOCK:   -0.27 KCAL/MOL
REMARK 927      BINDING AFFINITY PREDICTED BY RF-SCORE:    0.00 PKD
ROOT
HETATM    1  C   UNL     1     -10.628  15.230  66.507  1.00  0.00    -0.304 C  
HETATM    2  C   UNL     1     -10.124  13.847  66.068  1.00  0.00    -0.313 C  
HETATM    3  N   UNL     1     -10.585  12.754  66.936  1.00  0.00    -0.243 NA 
HETATM    4  C   UNL     1     -10.370  11.436  66.529  1.00  0.00    -0.236 C  
HETATM    5  C   UNL     1     -10.525  10.349  67.298  1.00  0.00    -0.304 C  
HETATM    6  C   UNL     1     -10.977  10.591  68.682  1.00  0.00    -0.248 C  
HETATM    7  C   UNL     1     -10.775  17.462  69.449  1.00  0.00     0.124 C  
HETATM    8  C   UNL     1     -11.164  11.998  69.153  1.00  0.00    -0.246 C  
HETATM    9  C   UNL     1      -9.218  17.563  67.490  1.00  0.00    -0.242 C  
HETATM   10  O   UNL     1     -11.165   9.676  69.487  1.00  0.00    -0.205 OA 
HETATM   11  C   UNL     1      -9.872  16.639  68.514  1.00  0.00    -0.252 C  
HETATM   12  O   UNL     1     -11.224  14.684  69.978  1.00  0.00    -0.252 OA 
HETATM   13  C   UNL     1     -10.938  13.005  68.276  1.00  0.00    -0.260 C  
HETATM   14  O   UNL     1     -11.494  12.143  70.485  1.00  0.00    -0.423 OA 
HETATM   15  N   UNL     1     -10.479  15.428  67.940  1.00  0.00    -0.251 N  
HETATM   16  C   UNL     1     -10.940  14.433  68.810  1.00  0.00    -0.250 C  
HETATM   17  O   UNL     1      -9.876  16.150  65.712  1.00  0.00    -0.328 OA 
HETATM   18  H   UNL     1     -11.613  13.037  70.784  1.00  0.00     0.000 HD 
HETATM   19  C   UNL     1      -9.908  17.490  66.152  1.00  0.00    -0.242 C  
ENDROOT
BRANCH   5  20
HETATM   20  C   UNL     1     -10.206   9.008  66.736  1.00  0.00    -0.271 C  
HETATM   21  H   UNL     1      -8.889   9.876  65.408  1.00  0.00     0.000 HD 
HETATM   22  N   UNL     1      -9.255   8.988  65.752  1.00  0.00    -0.222 N  
HETATM   23  O   UNL     1     -10.776   7.988  67.146  1.00  0.00    -0.322 OA 
BRANCH  22  24
HETATM   24  C   UNL     1      -8.749   7.761  65.179  1.00  0.00     0.083 C  
BRANCH  24  25
HETATM   25  C   UNL     1      -7.823   7.046  66.124  1.00  0.00    -0.102 A  
HETATM   26  C   UNL     1      -6.129   5.764  67.935  1.00  0.00    -0.022 A  
HETATM   27  F   UNL     1      -5.330   5.156  68.823  1.00  0.00    -0.003 F  
HETATM   28  C   UNL     1      -5.787   7.020  67.456  1.00  0.00    -0.024 A  
HETATM   29  C   UNL     1      -8.137   5.765  66.601  1.00  0.00    -0.102 A  
HETATM   30  C   UNL     1      -7.293   5.126  67.514  1.00  0.00    -0.082 A  
HETATM   31  C   UNL     1      -6.634   7.648  66.550  1.00  0.00    -0.050 A  
HETATM   32  F   UNL     1      -6.302   8.863  66.093  1.00  0.00    -0.059 F  
ENDBRANCH  24  25
ENDBRANCH  22  24
ENDBRANCH   5  20
TORSDOF 3
ENDMDL
MODEL      131
REMARK 921   NORMALIZED FREE ENERGY PREDICTED BY IDOCK:   -4.75 KCAL/MOL
REMARK 922        TOTAL FREE ENERGY PREDICTED BY IDOCK:   -5.90 KCAL/MOL
REMARK 923 INTER-LIGAND FREE ENERGY PREDICTED BY IDOCK:   -5.57 KCAL/MOL
REMARK 924 INTRA-LIGAND FREE ENERGY PREDICTED BY IDOCK:   -0.33 KCAL/MOL
REMARK 927      BINDING AFFINITY PREDICTED BY RF-SCORE:    0.00 PKD
ROOT
HETATM    1  C   UNL     1      -7.635   3.791  68.077  1.00  0.00    -0.066 C  
HETATM    2  C   UNL     1      -7.884   4.785  66.932  1.00  0.00    -0.099 C  
HETATM    3  N   UNL     1      -7.876   6.190  67.366  1.00  0.00    -0.097 NA 
HETATM    4  C   UNL     1      -7.883   7.192  66.395  1.00  0.00    -0.109 C  
HETATM    5  C   UNL     1      -8.101   8.495  66.624  1.00  0.00    -0.104 C  
HETATM    6  C   UNL     1      -8.334   8.878  68.031  1.00  0.00    -0.121 C  
HETATM    7  C   UNL     1      -8.849   2.886  71.447  1.00  0.00    -0.134 C  
HETATM    8  C   UNL     1      -8.380   7.812  69.078  1.00  0.00    -0.131 C  
HETATM    9  C   UNL     1      -9.333   1.763  69.261  1.00  0.00    -0.173 C  
HETATM   10  O   UNL     1      -8.538  10.045  68.375  1.00  0.00    -0.110 OA 
HETATM   11  C   UNL     1      -9.224   3.110  69.973  1.00  0.00    -0.150 C  
HETATM   12  O   UNL     1      -8.700   5.692  70.896  1.00  0.00    -0.129 OA 
HETATM   13  C   UNL     1      -8.176   6.529  68.699  1.00  0.00    -0.118 C  
HETATM   14  O   UNL     1      -8.698   8.240  70.352  1.00  0.00    -0.133 OA 
HETATM   15  N   UNL     1      -8.425   4.114  69.253  1.00  0.00    -0.075 N  
HETATM   16  C   UNL     1      -8.417   5.430  69.730  1.00  0.00    -0.100 C  
HETATM   17  O   UNL     1      -7.936   2.514  67.508  1.00  0.00    -0.067 OA 
HETATM   18  H   UNL     1      -8.727   7.563  71.017  1.00  0.00     0.000 HD 
HETATM   19  C   UNL     1      -8.106   1.467  68.438  1.00  0.00    -0.053 C  
ENDROOT
BRANCH   5  20
HETATM   20  C   UNL     1      -8.130   9.442  65.476  1.00  0.00    -0.116 C  
HETATM   21  H   UNL     1     -10.115   8.987  65.149  1.00  0.00     0.000 HD 
HETATM   22  N   UNL     1      -9.341   9.583  64.854  1.00  0.00    -0.237 N  
HETATM   23  O   UNL     1      -7.112  10.052  65.120  1.00  0.00    -0.123 OA 
BRANCH  22  24
HETATM   24  C   UNL     1      -9.569  10.542  63.796  1.00  0.00    -0.311 C  
BRANCH  24  25
HETATM   25  C   UNL     1     -10.604  11.563  64.184  1.00  0.00    -0.420 A  
HETATM   26  C   UNL     1     -12.475  13.511  64.887  1.00  0.00    -0.384 A  
HETATM   27  F   UNL     1     -13.361  14.464  65.210  1.00  0.00    -0.383 F  
HETATM   28  C   UNL     1     -11.422  13.239  65.747  1.00  0.00    -0.349 A  
HETATM   29  C   UNL     1     -11.692  11.836  63.342  1.00  0.00    -0.423 A  
HETATM   30  C   UNL     1     -12.623  12.817  63.690  1.00  0.00    -0.382 A  
HETATM   31  C   UNL     1     -10.498  12.262  65.391  1.00  0.00    -0.269 A  
HETATM   32  F   UNL     1      -9.480  12.005  66.223  1.00  0.00    -0.208 F  
ENDBRANCH  24  25
ENDBRANCH  22  24
ENDBRANCH   5  20
TORSDOF 3
ENDMDL
MODEL      132
REMARK 921   NORMALIZED FREE ENERGY PREDICTED BY IDOCK:   -4.73 KCAL/MOL
REMARK 922        TOTAL FREE ENERGY PREDICTED BY IDOCK:   -5.88 KCAL/MOL
REMARK 923 INTER-LIGAND FREE ENERGY PREDICTED BY IDOCK:   -5.91 KCAL/MOL
REMARK 924 INTRA-LIGAND FREE ENERGY PREDICTED BY IDOCK:    0.03 KCAL/MOL
REMARK 927      BINDING AFFINITY PREDICTED BY RF-SCORE:    0.00 PKD
ROOT
HETATM    1  C   UNL     1      -9.779  15.441  68.641  1.00  0.00    -0.210 C  
HETATM    2  C   UNL     1     -10.364  14.216  69.362  1.00  0.00     0.081 C  
HETATM    3  N   UNL     1     -10.284  12.980  68.571  1.00  0.00    -0.237 NA 
HETATM    4  C   UNL     1     -10.589  11.767  69.189  1.00  0.00    -0.069 C  
HETATM    5  C   UNL     1     -10.780  10.599  68.559  1.00  0.00    -0.252 C  
HETATM    6  C   UNL     1     -10.633  10.621  67.091  1.00  0.00    -0.260 C  
HETATM    7  C   UNL     1      -9.999  17.313  65.463  1.00  0.00     0.142 C  
HETATM    8  C   UNL     1     -10.357  11.920  66.405  1.00  0.00    -0.219 C  
HETATM    9  C   UNL     1     -11.022  17.876  67.679  1.00  0.00    -0.104 C  
HETATM   10  O   UNL     1     -10.775   9.612  66.395  1.00  0.00    -0.075 OA 
HETATM   11  C   UNL     1     -10.769  16.755  66.672  1.00  0.00    -0.107 C  
HETATM   12  O   UNL     1     -10.099  14.461  65.230  1.00  0.00    -0.369 OA 
HETATM   13  C   UNL     1     -10.221  13.032  67.165  1.00  0.00    -0.243 C  
HETATM   14  O   UNL     1     -10.331  11.874  65.026  1.00  0.00    -0.267 OA 
HETATM   15  N   UNL     1     -10.229  15.520  67.261  1.00  0.00    -0.255 N  
HETATM   16  C   UNL     1     -10.135  14.379  66.455  1.00  0.00    -0.286 C  
HETATM   17  O   UNL     1     -10.181  16.551  69.447  1.00  0.00    -0.274 OA 
HETATM   18  H   UNL     1     -10.155  12.700  64.591  1.00  0.00     0.000 HD 
HETATM   19  C   UNL     1     -10.057  17.815  68.834  1.00  0.00    -0.350 C  
ENDROOT
BRANCH   5  20
HETATM   20  C   UNL     1     -11.152   9.395  69.353  1.00  0.00    -0.076 C  
HETATM   21  H   UNL     1      -9.906   8.239  68.186  1.00  0.00     0.000 HD 
HETATM   22  N   UNL     1     -10.518   8.234  69.001  1.00  0.00    -0.217 N  
HETATM   23  O   UNL     1     -11.985   9.460  70.267  1.00  0.00    -0.115 OA 
BRANCH  22  24
HETATM   24  C   UNL     1     -10.679   7.001  69.740  1.00  0.00    -0.241 C  
BRANCH  24  25
HETATM   25  C   UNL     1     -10.235   5.810  68.937  1.00  0.00    -0.267 A  
HETATM   26  C   UNL     1      -9.360   3.641  67.413  1.00  0.00    -0.203 A  
HETATM   27  F   UNL     1      -8.917   2.611  66.678  1.00  0.00    -0.123 F  
HETATM   28  C   UNL     1     -10.151   4.613  66.819  1.00  0.00    -0.246 A  
HETATM   29  C   UNL     1      -9.456   4.801  69.523  1.00  0.00    -0.227 A  
HETATM   30  C   UNL     1      -9.011   3.720  68.758  1.00  0.00    -0.177 A  
HETATM   31  C   UNL     1     -10.587   5.687  67.588  1.00  0.00    -0.204 A  
HETATM   32  F   UNL     1     -11.347   6.627  67.010  1.00  0.00    -0.458 F  
ENDBRANCH  24  25
ENDBRANCH  22  24
ENDBRANCH   5  20
TORSDOF 3
ENDMDL
MODEL      133
REMARK 921   NORMALIZED FREE ENERGY PREDICTED BY IDOCK:   -4.70 KCAL/MOL
REMARK 922        TOTAL FREE ENERGY PREDICTED BY IDOCK:   -5.85 KCAL/MOL
REMARK 923 INTER-LIGAND FREE ENERGY PREDICTED BY IDOCK:   -5.48 KCAL/MOL
REMARK 924 INTRA-LIGAND FREE ENERGY PREDICTED BY IDOCK:   -0.36 KCAL/MOL
REMARK 927      BINDING AFFINITY PREDICTED BY RF-SCORE:    0.00 PKD
ROOT
HETATM    1  C   UNL     1      -7.053  15.182  66.982  1.00  0.00     0.177 C  
HETATM    2  C   UNL     1      -7.036  13.732  67.491  1.00  0.00    -0.145 C  
HETATM    3  N   UNL     1      -8.270  12.993  67.191  1.00  0.00    -0.161 NA 
HETATM    4  C   UNL     1      -8.298  11.615  67.414  1.00  0.00    -0.152 C  
HETATM    5  C   UNL     1      -9.398  10.848  67.406  1.00  0.00    -0.166 C  
HETATM    6  C   UNL     1     -10.670  11.539  67.116  1.00  0.00    -0.254 C  
HETATM    7  C   UNL     1      -9.080  18.270  67.095  1.00  0.00    -0.264 C  
HETATM    8  C   UNL     1     -10.667  13.021  66.924  1.00  0.00    -0.262 C  
HETATM    9  C   UNL     1      -7.012  17.713  68.394  1.00  0.00    -0.222 C  
HETATM   10  O   UNL     1     -11.750  10.946  67.071  1.00  0.00    -0.330 OA 
HETATM   11  C   UNL     1      -8.361  17.184  67.913  1.00  0.00    -0.207 C  
HETATM   12  O   UNL     1     -10.555  15.829  66.843  1.00  0.00    -0.312 OA 
HETATM   13  C   UNL     1      -9.485  13.677  66.994  1.00  0.00    -0.252 C  
HETATM   14  O   UNL     1     -11.907  13.604  66.754  1.00  0.00    -0.367 OA 
HETATM   15  N   UNL     1      -8.306  15.849  67.297  1.00  0.00    -0.173 N  
HETATM   16  C   UNL     1      -9.510  15.202  66.993  1.00  0.00    -0.226 C  
HETATM   17  O   UNL     1      -5.907  15.784  67.587  1.00  0.00    -0.141 OA 
HETATM   18  H   UNL     1     -11.905  14.546  66.632  1.00  0.00     0.000 HD 
HETATM   19  C   UNL     1      -5.877  17.194  67.548  1.00  0.00    -0.134 C  
ENDROOT
BRANCH   5  20
HETATM   20  C   UNL     1      -9.276   9.397  67.715  1.00  0.00    -0.128 C  
HETATM   21  H   UNL     1      -7.554   9.768  68.787  1.00  0.00     0.000 HD 
HETATM   22  N   UNL     1      -8.225   9.048  68.519  1.00  0.00    -0.111 N  
HETATM   23  O   UNL     1     -10.083   8.574  67.262  1.00  0.00    -0.204 OA 
BRANCH  22  24
HETATM   24  C   UNL     1      -8.027   7.701  69.006  1.00  0.00    -0.121 C  
BRANCH  24  25
HETATM   25  C   UNL     1      -8.383   7.577  70.462  1.00  0.00    -0.131 A  
HETATM   26  C   UNL     1      -9.013   7.278  73.164  1.00  0.00    -0.144 A  
HETATM   27  F   UNL     1      -9.297   7.117  74.464  1.00  0.00    -0.248 F  
HETATM   28  C   UNL     1      -9.779   6.624  72.212  1.00  0.00    -0.155 A  
HETATM   29  C   UNL     1      -7.637   8.250  71.441  1.00  0.00    -0.095 A  
HETATM   30  C   UNL     1      -7.948   8.094  72.794  1.00  0.00    -0.209 A  
HETATM   31  C   UNL     1      -9.461   6.783  70.867  1.00  0.00    -0.157 A  
HETATM   32  F   UNL     1     -10.201   6.146  69.950  1.00  0.00    -0.189 F  
ENDBRANCH  24  25
ENDBRANCH  22  24
ENDBRANCH   5  20
TORSDOF 3
ENDMDL
MODEL      134
REMARK 921   NORMALIZED FREE ENERGY PREDICTED BY IDOCK:   -4.69 KCAL/MOL
REMARK 922        TOTAL FREE ENERGY PREDICTED BY IDOCK:   -5.84 KCAL/MOL
REMARK 923 INTER-LIGAND FREE ENERGY PREDICTED BY IDOCK:   -5.61 KCAL/MOL
REMARK 924 INTRA-LIGAND FREE ENERGY PREDICTED BY IDOCK:   -0.23 KCAL/MOL
REMARK 927      BINDING AFFINITY PREDICTED BY RF-SCORE:    0.00 PKD
ROOT
HETATM    1  C   UNL     1      -7.543  17.133  67.580  1.00  0.00    -0.167 C  
HETATM    2  C   UNL     1      -8.372  15.840  67.541  1.00  0.00    -0.166 C  
HETATM    3  N   UNL     1      -9.363  15.813  66.456  1.00  0.00    -0.259 NA 
HETATM    4  C   UNL     1     -10.031  14.618  66.186  1.00  0.00    -0.304 C  
HETATM    5  C   UNL     1     -11.106  14.489  65.395  1.00  0.00    -0.345 C  
HETATM    6  C   UNL     1     -11.595  15.726  64.755  1.00  0.00    -0.173 C  
HETATM    7  C   UNL     1      -7.910  20.809  67.658  1.00  0.00    -0.190 C  
HETATM    8  C   UNL     1     -10.924  17.025  65.072  1.00  0.00     0.017 C  
HETATM    9  C   UNL     1      -7.387  19.253  69.550  1.00  0.00    -0.119 C  
HETATM   10  O   UNL     1     -12.569  15.741  63.999  1.00  0.00    -0.654 OA 
HETATM   11  C   UNL     1      -8.277  19.475  68.329  1.00  0.00    -0.338 C  
HETATM   12  O   UNL     1      -9.742  19.418  65.953  1.00  0.00    -0.411 OA 
HETATM   13  C   UNL     1      -9.867  17.013  65.918  1.00  0.00    -0.177 C  
HETATM   14  O   UNL     1     -11.500  18.147  64.510  1.00  0.00     0.334 OA 
HETATM   15  N   UNL     1      -8.379  18.313  67.433  1.00  0.00    -0.242 N  
HETATM   16  C   UNL     1      -9.312  18.353  66.389  1.00  0.00    -0.283 C  
HETATM   17  O   UNL     1      -6.844  17.069  68.825  1.00  0.00    -0.177 OA 
HETATM   18  H   UNL     1     -11.073  18.971  64.711  1.00  0.00     0.000 HD 
HETATM   19  C   UNL     1      -6.271  18.283  69.256  1.00  0.00    -0.252 C  
ENDROOT
BRANCH   5  20
HETATM   20  C   UNL     1     -11.743  13.152  65.244  1.00  0.00    -0.344 C  
HETATM   21  H   UNL     1      -9.956  12.244  65.725  1.00  0.00     0.000 HD 
HETATM   22  N   UNL     1     -10.940  12.078  65.519  1.00  0.00    -0.290 N  
HETATM   23  O   UNL     1     -12.925  13.040  64.890  1.00  0.00    -0.739 OA 
BRANCH  22  24
HETATM   24  C   UNL     1     -11.432  10.718  65.530  1.00  0.00     0.834 C  
BRANCH  24  25
HETATM   25  C   UNL     1     -10.382   9.751  66.004  1.00  0.00    -0.184 A  
HETATM   26  C   UNL     1      -8.381   8.010  66.873  1.00  0.00    -0.116 A  
HETATM   27  F   UNL     1      -7.406   7.193  67.296  1.00  0.00    -0.080 F  
HETATM   28  C   UNL     1      -8.507   8.278  65.518  1.00  0.00    -0.177 A  
HETATM   29  C   UNL     1     -10.253   9.445  67.367  1.00  0.00    -0.298 A  
HETATM   30  C   UNL     1      -9.247   8.579  67.803  1.00  0.00    -0.146 A  
HETATM   31  C   UNL     1      -9.511   9.143  65.094  1.00  0.00    -0.027 A  
HETATM   32  F   UNL     1      -9.626   9.403  63.785  1.00  0.00    -0.134 F  
ENDBRANCH  24  25
ENDBRANCH  22  24
ENDBRANCH   5  20
TORSDOF 3
ENDMDL
MODEL      135
REMARK 921   NORMALIZED FREE ENERGY PREDICTED BY IDOCK:   -4.68 KCAL/MOL
REMARK 922        TOTAL FREE ENERGY PREDICTED BY IDOCK:   -5.82 KCAL/MOL
REMARK 923 INTER-LIGAND FREE ENERGY PREDICTED BY IDOCK:   -5.33 KCAL/MOL
REMARK 924 INTRA-LIGAND FREE ENERGY PREDICTED BY IDOCK:   -0.48 KCAL/MOL
REMARK 927      BINDING AFFINITY PREDICTED BY RF-SCORE:    0.00 PKD
ROOT
HETATM    1  C   UNL     1      -7.691   8.284  63.740  1.00  0.00    -0.145 C  
HETATM    2  C   UNL     1      -8.758   9.241  64.296  1.00  0.00    -0.175 C  
HETATM    3  N   UNL     1      -8.310   9.994  65.476  1.00  0.00    -0.142 NA 
HETATM    4  C   UNL     1      -9.105  11.040  65.946  1.00  0.00    -0.197 C  
HETATM    5  C   UNL     1      -8.952  11.665  67.123  1.00  0.00    -0.173 C  
HETATM    6  C   UNL     1      -7.832  11.202  67.964  1.00  0.00    -0.114 C  
HETATM    7  C   UNL     1      -5.421   5.558  64.774  1.00  0.00    -0.016 C  
HETATM    8  C   UNL     1      -7.000  10.049  67.501  1.00  0.00    -0.086 C  
HETATM    9  C   UNL     1      -7.610   5.393  63.567  1.00  0.00    -0.065 C  
HETATM   10  O   UNL     1      -7.579  11.700  69.064  1.00  0.00    -0.105 OA 
HETATM   11  C   UNL     1      -6.874   6.061  64.726  1.00  0.00    -0.047 C  
HETATM   12  O   UNL     1      -5.688   7.720  66.633  1.00  0.00    -0.037 OA 
HETATM   13  C   UNL     1      -7.288   9.488  66.303  1.00  0.00    -0.093 C  
HETATM   14  O   UNL     1      -6.035   9.614  68.387  1.00  0.00    -0.043 OA 
HETATM   15  N   UNL     1      -7.050   7.520  64.797  1.00  0.00    -0.061 N  
HETATM   16  C   UNL     1      -6.569   8.198  65.924  1.00  0.00    -0.046 C  
HETATM   17  O   UNL     1      -8.395   7.483  62.789  1.00  0.00    -0.073 OA 
HETATM   18  H   UNL     1      -5.506   8.883  68.092  1.00  0.00     0.000 HD 
HETATM   19  C   UNL     1      -7.726   6.311  62.378  1.00  0.00    -0.086 C  
ENDROOT
BRANCH   5  20
HETATM   20  C   UNL     1      -9.915  12.732  67.511  1.00  0.00    -0.210 C  
HETATM   21  H   UNL     1      -9.474  13.762  65.780  1.00  0.00     0.000 HD 
HETATM   22  N   UNL     1     -10.070  13.748  66.607  1.00  0.00    -0.271 N  
HETATM   23  O   UNL     1     -10.525  12.686  68.588  1.00  0.00    -0.237 OA 
BRANCH  22  24
HETATM   24  C   UNL     1     -11.045  14.802  66.777  1.00  0.00    -0.338 C  
BRANCH  24  25
HETATM   25  C   UNL     1     -10.397  16.102  67.167  1.00  0.00    -0.291 A  
HETATM   26  C   UNL     1      -9.160  18.479  67.949  1.00  0.00    -0.290 A  
HETATM   27  F   UNL     1      -8.548  19.607  68.335  1.00  0.00    -0.360 F  
HETATM   28  C   UNL     1     -10.236  18.001  68.681  1.00  0.00    -0.385 A  
HETATM   29  C   UNL     1      -9.324  16.618  66.426  1.00  0.00    -0.309 A  
HETATM   30  C   UNL     1      -8.699  17.804  66.822  1.00  0.00    -0.273 A  
HETATM   31  C   UNL     1     -10.850  16.819  68.280  1.00  0.00    -0.366 A  
HETATM   32  F   UNL     1     -11.886  16.358  68.993  1.00  0.00    -0.300 F  
ENDBRANCH  24  25
ENDBRANCH  22  24
ENDBRANCH   5  20
TORSDOF 3
ENDMDL
MODEL      136
REMARK 921   NORMALIZED FREE ENERGY PREDICTED BY IDOCK:   -4.58 KCAL/MOL
REMARK 922        TOTAL FREE ENERGY PREDICTED BY IDOCK:   -5.71 KCAL/MOL
REMARK 923 INTER-LIGAND FREE ENERGY PREDICTED BY IDOCK:   -5.30 KCAL/MOL
REMARK 924 INTRA-LIGAND FREE ENERGY PREDICTED BY IDOCK:   -0.41 KCAL/MOL
REMARK 927      BINDING AFFINITY PREDICTED BY RF-SCORE:    0.00 PKD
ROOT
HETATM    1  C   UNL     1      -8.134  13.909  67.224  1.00  0.00    -0.145 C  
HETATM    2  C   UNL     1      -7.726  12.971  68.371  1.00  0.00    -0.137 C  
HETATM    3  N   UNL     1      -8.638  11.832  68.546  1.00  0.00    -0.152 NA 
HETATM    4  C   UNL     1      -8.268  10.801  69.411  1.00  0.00    -0.023 C  
HETATM    5  C   UNL     1      -9.073   9.822  69.845  1.00  0.00    -0.257 C  
HETATM    6  C   UNL     1     -10.460   9.848  69.338  1.00  0.00    -0.231 C  
HETATM    7  C   UNL     1     -11.007  15.855  65.954  1.00  0.00    -0.151 C  
HETATM    8  C   UNL     1     -10.890  10.972  68.451  1.00  0.00    -0.220 C  
HETATM    9  C   UNL     1      -9.009  16.672  67.225  1.00  0.00    -0.211 C  
HETATM   10  O   UNL     1     -11.297   8.999  69.655  1.00  0.00    -0.063 OA 
HETATM   11  C   UNL     1     -10.077  15.583  67.148  1.00  0.00    -0.254 C  
HETATM   12  O   UNL     1     -11.633  13.268  67.011  1.00  0.00    -0.322 OA 
HETATM   13  C   UNL     1      -9.978  11.915  68.119  1.00  0.00    -0.197 C  
HETATM   14  O   UNL     1     -12.225  10.977  68.099  1.00  0.00    -0.765 OA 
HETATM   15  N   UNL     1      -9.555  14.212  67.255  1.00  0.00    -0.228 N  
HETATM   16  C   UNL     1     -10.467  13.156  67.380  1.00  0.00    -0.242 C  
HETATM   17  O   UNL     1      -7.293  15.054  67.388  1.00  0.00    -0.189 OA 
HETATM   18  H   UNL     1     -12.498  11.690  67.535  1.00  0.00     0.000 HD 
HETATM   19  C   UNL     1      -7.691  16.200  66.668  1.00  0.00    -0.230 C  
ENDROOT
BRANCH   5  20
HETATM   20  C   UNL     1      -8.547   8.819  70.811  1.00  0.00    -0.187 C  
HETATM   21  H   UNL     1      -8.759   7.338  69.391  1.00  0.00     0.000 HD 
HETATM   22  N   UNL     1      -8.418   7.543  70.330  1.00  0.00    -0.139 N  
HETATM   23  O   UNL     1      -8.251   9.137  71.971  1.00  0.00    -0.320 OA 
BRANCH  22  24
HETATM   24  C   UNL     1      -7.819   6.476  71.099  1.00  0.00    -0.103 C  
BRANCH  24  25
HETATM   25  C   UNL     1      -7.853   5.168  70.357  1.00  0.00    -0.075 A  
HETATM   26  C   UNL     1      -7.944   2.709  69.041  1.00  0.00    -0.052 A  
HETATM   27  F   UNL     1      -8.005   1.519  68.425  1.00  0.00    -0.049 F  
HETATM   28  C   UNL     1      -6.943   2.945  69.971  1.00  0.00    -0.034 A  
HETATM   29  C   UNL     1      -8.841   4.917  69.393  1.00  0.00    -0.120 A  
HETATM   30  C   UNL     1      -8.891   3.683  68.740  1.00  0.00    -0.160 A  
HETATM   31  C   UNL     1      -6.902   4.176  70.617  1.00  0.00    -0.033 A  
HETATM   32  F   UNL     1      -5.937   4.398  71.518  1.00  0.00    -0.014 F  
ENDBRANCH  24  25
ENDBRANCH  22  24
ENDBRANCH   5  20
TORSDOF 3
ENDMDL
MODEL      137
REMARK 921   NORMALIZED FREE ENERGY PREDICTED BY IDOCK:   -4.49 KCAL/MOL
REMARK 922        TOTAL FREE ENERGY PREDICTED BY IDOCK:   -5.60 KCAL/MOL
REMARK 923 INTER-LIGAND FREE ENERGY PREDICTED BY IDOCK:   -5.96 KCAL/MOL
REMARK 924 INTRA-LIGAND FREE ENERGY PREDICTED BY IDOCK:    0.36 KCAL/MOL
REMARK 927      BINDING AFFINITY PREDICTED BY RF-SCORE:    0.00 PKD
ROOT
HETATM    1  C   UNL     1     -10.434  12.874  66.816  1.00  0.00    -0.254 C  
HETATM    2  C   UNL     1     -10.192  12.059  68.096  1.00  0.00    -0.201 C  
HETATM    3  N   UNL     1      -9.448  10.813  67.863  1.00  0.00    -0.155 NA 
HETATM    4  C   UNL     1      -8.986  10.090  68.964  1.00  0.00    -0.163 C  
HETATM    5  C   UNL     1      -8.498   8.842  68.927  1.00  0.00    -0.131 C  
HETATM    6  C   UNL     1      -8.439   8.207  67.595  1.00  0.00    -0.131 C  
HETATM    7  C   UNL     1     -11.786  12.562  63.392  1.00  0.00    -0.587 C  
HETATM    8  C   UNL     1      -8.976   8.945  66.411  1.00  0.00    -0.158 C  
HETATM    9  C   UNL     1     -12.874  13.564  65.413  1.00  0.00    -0.420 C  
HETATM   10  O   UNL     1      -8.004   7.066  67.425  1.00  0.00    -0.109 OA 
HETATM   11  C   UNL     1     -12.061  12.380  64.894  1.00  0.00    -0.407 C  
HETATM   12  O   UNL     1     -10.251  10.332  64.326  1.00  0.00    -0.269 OA 
HETATM   13  C   UNL     1      -9.473  10.190  66.600  1.00  0.00    -0.170 C  
HETATM   14  O   UNL     1      -8.974   8.246  65.221  1.00  0.00    -0.376 OA 
HETATM   15  N   UNL     1     -10.894  12.036  65.722  1.00  0.00    -0.277 N  
HETATM   16  C   UNL     1     -10.194  10.858  65.434  1.00  0.00    -0.277 C  
HETATM   17  O   UNL     1     -11.370  13.881  67.210  1.00  0.00    -0.298 OA 
HETATM   18  H   UNL     1      -9.314   8.715  64.468  1.00  0.00     0.000 HD 
HETATM   19  C   UNL     1     -12.009  14.555  66.148  1.00  0.00    -0.312 C  
ENDROOT
BRANCH   5  20
HETATM   20  C   UNL     1      -8.092   8.181  70.196  1.00  0.00    -0.113 C  
HETATM   21  H   UNL     1     -10.074   7.965  70.721  1.00  0.00     0.000 HD 
HETATM   22  N   UNL     1      -9.117   7.744  70.993  1.00  0.00    -0.146 N  
HETATM   23  O   UNL     1      -6.898   8.044  70.496  1.00  0.00    -0.037 OA 
BRANCH  22  24
HETATM   24  C   UNL     1      -8.896   6.984  72.203  1.00  0.00    -0.130 C  
BRANCH  24  25
HETATM   25  C   UNL     1      -8.698   5.522  71.913  1.00  0.00    -0.135 A  
HETATM   26  C   UNL     1      -8.290   2.802  71.440  1.00  0.00    -0.063 A  
HETATM   27  F   UNL     1      -8.091   1.491  71.238  1.00  0.00    -0.041 F  
HETATM   28  C   UNL     1      -7.242   3.689  71.250  1.00  0.00    -0.033 A  
HETATM   29  C   UNL     1      -9.751   4.610  72.074  1.00  0.00    -0.225 A  
HETATM   30  C   UNL     1      -9.545   3.248  71.845  1.00  0.00    -0.221 A  
HETATM   31  C   UNL     1      -7.456   5.043  71.482  1.00  0.00    -0.087 A  
HETATM   32  F   UNL     1      -6.439   5.896  71.302  1.00  0.00    -0.038 F  
ENDBRANCH  24  25
ENDBRANCH  22  24
ENDBRANCH   5  20
TORSDOF 3
ENDMDL
MODEL      138
REMARK 921   NORMALIZED FREE ENERGY PREDICTED BY IDOCK:   -4.35 KCAL/MOL
REMARK 922        TOTAL FREE ENERGY PREDICTED BY IDOCK:   -5.43 KCAL/MOL
REMARK 923 INTER-LIGAND FREE ENERGY PREDICTED BY IDOCK:   -5.23 KCAL/MOL
REMARK 924 INTRA-LIGAND FREE ENERGY PREDICTED BY IDOCK:   -0.21 KCAL/MOL
REMARK 927      BINDING AFFINITY PREDICTED BY RF-SCORE:    0.00 PKD
ROOT
HETATM    1  C   UNL     1      -8.183  16.926  67.659  1.00  0.00    -0.186 C  
HETATM    2  C   UNL     1      -7.920  15.420  67.500  1.00  0.00    -0.170 C  
HETATM    3  N   UNL     1      -7.343  14.798  68.700  1.00  0.00    -0.116 NA 
HETATM    4  C   UNL     1      -7.251  13.406  68.756  1.00  0.00    -0.092 C  
HETATM    5  C   UNL     1      -6.556  12.709  69.666  1.00  0.00     0.010 C  
HETATM    6  C   UNL     1      -5.851  13.501  70.693  1.00  0.00    -0.171 C  
HETATM    7  C   UNL     1      -6.513  20.072  68.640  1.00  0.00    -0.336 C  
HETATM    8  C   UNL     1      -5.896  14.994  70.620  1.00  0.00    -0.100 C  
HETATM    9  C   UNL     1      -7.020  19.228  66.337  1.00  0.00    -0.229 C  
HETATM   10  O   UNL     1      -5.185  12.979  71.590  1.00  0.00    -0.231 OA 
HETATM   11  C   UNL     1      -6.481  18.845  67.714  1.00  0.00    -0.211 C  
HETATM   12  O   UNL     1      -5.848  17.774  70.213  1.00  0.00    -0.238 OA 
HETATM   13  C   UNL     1      -6.611  15.568  69.624  1.00  0.00    -0.179 C  
HETATM   14  O   UNL     1      -5.133  15.660  71.558  1.00  0.00    -0.169 OA 
HETATM   15  N   UNL     1      -7.054  17.609  68.268  1.00  0.00    -0.215 N  
HETATM   16  C   UNL     1      -6.495  17.077  69.437  1.00  0.00    -0.236 C  
HETATM   17  O   UNL     1      -8.488  17.374  66.336  1.00  0.00    -0.250 OA 
HETATM   18  H   UNL     1      -5.162  16.608  71.511  1.00  0.00     0.000 HD 
HETATM   19  C   UNL     1      -8.444  18.772  66.150  1.00  0.00    -0.162 C  
ENDROOT
BRANCH   5  20
HETATM   20  C   UNL     1      -6.510  11.224  69.566  1.00  0.00    -0.119 C  
HETATM   21  H   UNL     1      -8.196  11.250  68.379  1.00  0.00     0.000 HD 
HETATM   22  N   UNL     1      -7.471  10.653  68.776  1.00  0.00    -0.096 N  
HETATM   23  O   UNL     1      -5.650  10.566  70.167  1.00  0.00    -0.050 OA 
BRANCH  22  24
HETATM   24  C   UNL     1      -7.501   9.237  68.483  1.00  0.00    -0.081 C  
BRANCH  24  25
HETATM   25  C   UNL     1      -8.632   8.545  69.193  1.00  0.00    -0.133 A  
HETATM   26  C   UNL     1     -10.679   7.219  70.549  1.00  0.00    -0.232 A  
HETATM   27  F   UNL     1     -11.647   6.577  71.219  1.00  0.00    -0.312 F  
HETATM   28  C   UNL     1     -10.013   6.569  69.522  1.00  0.00    -0.180 A  
HETATM   29  C   UNL     1      -9.337   9.193  70.219  1.00  0.00    -0.253 A  
HETATM   30  C   UNL     1     -10.356   8.526  70.903  1.00  0.00    -0.245 A  
HETATM   31  C   UNL     1      -8.998   7.240  68.848  1.00  0.00    -0.133 A  
HETATM   32  F   UNL     1      -8.354   6.607  67.859  1.00  0.00    -0.115 F  
ENDBRANCH  24  25
ENDBRANCH  22  24
ENDBRANCH   5  20
TORSDOF 3
ENDMDL
MODEL      139
REMARK 921   NORMALIZED FREE ENERGY PREDICTED BY IDOCK:   -4.33 KCAL/MOL
REMARK 922        TOTAL FREE ENERGY PREDICTED BY IDOCK:   -5.41 KCAL/MOL
REMARK 923 INTER-LIGAND FREE ENERGY PREDICTED BY IDOCK:   -4.84 KCAL/MOL
REMARK 924 INTRA-LIGAND FREE ENERGY PREDICTED BY IDOCK:   -0.57 KCAL/MOL
REMARK 927      BINDING AFFINITY PREDICTED BY RF-SCORE:    0.00 PKD
ROOT
HETATM    1  C   UNL     1     -10.803  13.334  68.975  1.00  0.00    -0.173 C  
HETATM    2  C   UNL     1     -11.252  11.877  68.776  1.00  0.00    -0.259 C  
HETATM    3  N   UNL     1     -10.138  10.953  68.517  1.00  0.00    -0.176 NA 
HETATM    4  C   UNL     1     -10.389   9.581  68.525  1.00  0.00    -0.207 C  
HETATM    5  C   UNL     1      -9.546   8.633  68.091  1.00  0.00    -0.162 C  
HETATM    6  C   UNL     1      -8.243   9.105  67.583  1.00  0.00    -0.108 C  
HETATM    7  C   UNL     1      -8.803  15.995  67.373  1.00  0.00    -0.197 C  
HETATM    8  C   UNL     1      -7.975  10.574  67.519  1.00  0.00    -0.107 C  
HETATM    9  C   UNL     1     -11.292  15.723  67.411  1.00  0.00    -0.106 C  
HETATM   10  O   UNL     1      -7.377   8.334  67.164  1.00  0.00    -0.085 OA 
HETATM   11  C   UNL     1      -9.963  14.999  67.213  1.00  0.00    -0.233 C  
HETATM   12  O   UNL     1      -7.706  13.355  67.213  1.00  0.00    -0.152 OA 
HETATM   13  C   UNL     1      -8.933  11.423  67.960  1.00  0.00    -0.163 C  
HETATM   14  O   UNL     1      -6.774  10.937  66.943  1.00  0.00    -0.089 OA 
HETATM   15  N   UNL     1      -9.838  13.742  67.968  1.00  0.00    -0.232 N  
HETATM   16  C   UNL     1      -8.737  12.915  67.714  1.00  0.00    -0.188 C  
HETATM   17  O   UNL     1     -12.019  14.085  68.953  1.00  0.00    -0.335 OA 
HETATM   18  H   UNL     1      -6.604  11.871  66.903  1.00  0.00     0.000 HD 
HETATM   19  C   UNL     1     -11.862  15.477  68.784  1.00  0.00    -0.317 C  
ENDROOT
BRANCH   5  20
HETATM   20  C   UNL     1      -9.977   7.208  68.115  1.00  0.00    -0.151 C  
HETATM   21  H   UNL     1     -10.113   7.282  70.171  1.00  0.00     0.000 HD 
HETATM   22  N   UNL     1     -10.276   6.699  69.350  1.00  0.00    -0.176 N  
HETATM   23  O   UNL     1     -10.052   6.542  67.074  1.00  0.00    -0.150 OA 
BRANCH  22  24
HETATM   24  C   UNL     1     -10.816   5.371  69.539  1.00  0.00    -0.057 C  
BRANCH  24  25
HETATM   25  C   UNL     1      -9.754   4.395  69.965  1.00  0.00    -0.286 A  
HETATM   26  C   UNL     1      -7.735   2.618  70.712  1.00  0.00    -0.042 A  
HETATM   27  F   UNL     1      -6.748   1.782  71.064  1.00  0.00    -0.022 F  
HETATM   28  C   UNL     1      -8.334   2.482  69.469  1.00  0.00    -0.075 A  
HETATM   29  C   UNL     1      -9.152   4.498  71.228  1.00  0.00    -0.178 A  
HETATM   30  C   UNL     1      -8.136   3.614  71.599  1.00  0.00    -0.066 A  
HETATM   31  C   UNL     1      -9.344   3.368  69.108  1.00  0.00    -0.167 A  
HETATM   32  F   UNL     1      -9.917   3.236  67.905  1.00  0.00    -0.178 F  
ENDBRANCH  24  25
ENDBRANCH  22  24
ENDBRANCH   5  20
TORSDOF 3
ENDMDL
MODEL      140
REMARK 921   NORMALIZED FREE ENERGY PREDICTED BY IDOCK:   -4.31 KCAL/MOL
REMARK 922        TOTAL FREE ENERGY PREDICTED BY IDOCK:   -5.39 KCAL/MOL
REMARK 923 INTER-LIGAND FREE ENERGY PREDICTED BY IDOCK:   -5.03 KCAL/MOL
REMARK 924 INTRA-LIGAND FREE ENERGY PREDICTED BY IDOCK:   -0.35 KCAL/MOL
REMARK 927      BINDING AFFINITY PREDICTED BY RF-SCORE:    0.00 PKD
ROOT
HETATM    1  C   UNL     1      -9.634  14.260  68.828  1.00  0.00    -0.153 C  
HETATM    2  C   UNL     1     -10.054  12.803  69.071  1.00  0.00     0.187 C  
HETATM    3  N   UNL     1      -9.760  11.912  67.939  1.00  0.00    -0.186 NA 
HETATM    4  C   UNL     1      -9.901  10.535  68.113  1.00  0.00    -0.153 C  
HETATM    5  C   UNL     1      -9.890   9.622  67.132  1.00  0.00    -0.238 C  
HETATM    6  C   UNL     1      -9.694  10.139  65.764  1.00  0.00    -0.245 C  
HETATM    7  C   UNL     1     -10.013  17.019  66.399  1.00  0.00    -0.318 C  
HETATM    8  C   UNL     1      -9.590  11.616  65.551  1.00  0.00    -0.218 C  
HETATM    9  C   UNL     1     -11.192  16.692  68.584  1.00  0.00    -0.235 C  
HETATM   10  O   UNL     1      -9.655   9.402  64.776  1.00  0.00    -0.150 OA 
HETATM   11  C   UNL     1     -10.735  16.003  67.300  1.00  0.00    -0.295 C  
HETATM   12  O   UNL     1      -9.673  14.411  65.268  1.00  0.00    -0.243 OA 
HETATM   13  C   UNL     1      -9.653  12.427  66.633  1.00  0.00    -0.229 C  
HETATM   14  O   UNL     1      -9.505  12.025  64.236  1.00  0.00    -0.464 OA 
HETATM   15  N   UNL     1     -10.039  14.725  67.511  1.00  0.00    -0.224 N  
HETATM   16  C   UNL     1      -9.744  13.931  66.396  1.00  0.00    -0.297 C  
HETATM   17  O   UNL     1     -10.229  14.985  69.907  1.00  0.00    -0.183 OA 
HETATM   18  H   UNL     1      -9.439  12.963  64.101  1.00  0.00     0.000 HD 
HETATM   19  C   UNL     1     -10.273  16.385  69.738  1.00  0.00    -0.142 C  
ENDROOT
BRANCH   5  20
HETATM   20  C   UNL     1     -10.107   8.188  67.469  1.00  0.00    -0.224 C  
HETATM   21  H   UNL     1      -8.683   8.321  68.955  1.00  0.00     0.000 HD 
HETATM   22  N   UNL     1      -9.376   7.710  68.524  1.00  0.00    -0.147 N  
HETATM   23  O   UNL     1     -10.900   7.489  66.824  1.00  0.00    -0.292 OA 
BRANCH  22  24
HETATM   24  C   UNL     1      -9.548   6.375  69.051  1.00  0.00    -0.131 C  
BRANCH  24  25
HETATM   25  C   UNL     1      -8.392   5.481  68.692  1.00  0.00    -0.101 A  
HETATM   26  C   UNL     1      -6.248   3.797  68.096  1.00  0.00    -0.032 A  
HETATM   27  F   UNL     1      -5.225   2.974  67.828  1.00  0.00    -0.010 F  
HETATM   28  C   UNL     1      -6.023   4.945  68.840  1.00  0.00    -0.025 A  
HETATM   29  C   UNL     1      -8.592   4.329  67.918  1.00  0.00    -0.109 A  
HETATM   30  C   UNL     1      -7.520   3.482  67.626  1.00  0.00    -0.066 A  
HETATM   31  C   UNL     1      -7.097   5.782  69.128  1.00  0.00    -0.065 A  
HETATM   32  F   UNL     1      -6.877   6.887  69.852  1.00  0.00    -0.045 F  
ENDBRANCH  24  25
ENDBRANCH  22  24
ENDBRANCH   5  20
TORSDOF 3
ENDMDL
MODEL      141
REMARK 921   NORMALIZED FREE ENERGY PREDICTED BY IDOCK:   -4.30 KCAL/MOL
REMARK 922        TOTAL FREE ENERGY PREDICTED BY IDOCK:   -5.38 KCAL/MOL
REMARK 923 INTER-LIGAND FREE ENERGY PREDICTED BY IDOCK:   -5.53 KCAL/MOL
REMARK 924 INTRA-LIGAND FREE ENERGY PREDICTED BY IDOCK:    0.15 KCAL/MOL
REMARK 927      BINDING AFFINITY PREDICTED BY RF-SCORE:    0.00 PKD
ROOT
HETATM    1  C   UNL     1      -7.851   8.592  68.916  1.00  0.00    -0.104 C  
HETATM    2  C   UNL     1      -8.364  10.008  69.224  1.00  0.00    -0.154 C  
HETATM    3  N   UNL     1      -9.056  10.638  68.091  1.00  0.00    -0.143 NA 
HETATM    4  C   UNL     1      -9.746  11.832  68.306  1.00  0.00    -0.199 C  
HETATM    5  C   UNL     1     -10.229  12.635  67.348  1.00  0.00    -0.219 C  
HETATM    6  C   UNL     1     -10.016  12.188  65.957  1.00  0.00    -0.236 C  
HETATM    7  C   UNL     1      -5.817   6.716  66.467  1.00  0.00    -0.021 C  
HETATM    8  C   UNL     1      -9.236  10.938  65.704  1.00  0.00    -0.203 C  
HETATM    9  C   UNL     1      -5.164   7.519  68.748  1.00  0.00    -0.022 C  
HETATM   10  O   UNL     1     -10.419  12.832  64.985  1.00  0.00    -0.297 OA 
HETATM   11  C   UNL     1      -5.864   7.902  67.446  1.00  0.00    -0.038 C  
HETATM   12  O   UNL     1      -7.538   8.723  65.368  1.00  0.00    -0.084 OA 
HETATM   13  C   UNL     1      -8.775  10.241  66.770  1.00  0.00    -0.126 C  
HETATM   14  O   UNL     1      -8.997  10.640  64.378  1.00  0.00    -0.192 OA 
HETATM   15  N   UNL     1      -7.181   8.531  67.627  1.00  0.00    -0.083 N  
HETATM   16  C   UNL     1      -7.819   9.082  66.508  1.00  0.00    -0.100 C  
HETATM   17  O   UNL     1      -7.006   8.272  70.024  1.00  0.00    -0.042 OA 
HETATM   18  H   UNL     1      -8.502   9.846  64.218  1.00  0.00     0.000 HD 
HETATM   19  C   UNL     1      -6.153   7.167  69.829  1.00  0.00    -0.027 C  
ENDROOT
BRANCH   5  20
HETATM   20  C   UNL     1     -10.900  13.907  67.732  1.00  0.00    -0.250 C  
HETATM   21  H   UNL     1      -9.581  14.130  69.301  1.00  0.00     0.000 HD 
HETATM   22  N   UNL     1     -10.347  14.571  68.794  1.00  0.00    -0.240 N  
HETATM   23  O   UNL     1     -11.893  14.321  67.119  1.00  0.00    -0.390 OA 
BRANCH  22  24
HETATM   24  C   UNL     1     -10.806  15.873  69.225  1.00  0.00    -0.276 C  
BRANCH  24  25
HETATM   25  C   UNL     1      -9.892  16.970  68.750  1.00  0.00    -0.278 A  
HETATM   26  C   UNL     1      -8.206  18.980  67.799  1.00  0.00    -0.276 A  
HETATM   27  F   UNL     1      -7.407  19.944  67.319  1.00  0.00    -0.252 F  
HETATM   28  C   UNL     1      -7.730  17.681  67.889  1.00  0.00    -0.216 A  
HETATM   29  C   UNL     1     -10.344  18.296  68.675  1.00  0.00    -0.301 A  
HETATM   30  C   UNL     1      -9.503  19.300  68.191  1.00  0.00    -0.410 A  
HETATM   31  C   UNL     1      -8.576  16.687  68.370  1.00  0.00    -0.221 A  
HETATM   32  F   UNL     1      -8.114  15.432  68.452  1.00  0.00    -0.128 F  
ENDBRANCH  24  25
ENDBRANCH  22  24
ENDBRANCH   5  20
TORSDOF 3
ENDMDL
MODEL      142
REMARK 921   NORMALIZED FREE ENERGY PREDICTED BY IDOCK:   -4.30 KCAL/MOL
REMARK 922        TOTAL FREE ENERGY PREDICTED BY IDOCK:   -5.37 KCAL/MOL
REMARK 923 INTER-LIGAND FREE ENERGY PREDICTED BY IDOCK:   -4.78 KCAL/MOL
REMARK 924 INTRA-LIGAND FREE ENERGY PREDICTED BY IDOCK:   -0.60 KCAL/MOL
REMARK 927      BINDING AFFINITY PREDICTED BY RF-SCORE:    0.00 PKD
ROOT
HETATM    1  C   UNL     1     -10.775  13.896  69.357  1.00  0.00    -0.015 C  
HETATM    2  C   UNL     1     -11.231  12.453  69.093  1.00  0.00    -0.236 C  
HETATM    3  N   UNL     1     -10.122  11.535  68.794  1.00  0.00    -0.205 NA 
HETATM    4  C   UNL     1     -10.380  10.165  68.741  1.00  0.00    -0.194 C  
HETATM    5  C   UNL     1      -9.541   9.233  68.266  1.00  0.00    -0.160 C  
HETATM    6  C   UNL     1      -8.236   9.720  67.780  1.00  0.00    -0.114 C  
HETATM    7  C   UNL     1      -8.760  16.616  67.876  1.00  0.00    -0.193 C  
HETATM    8  C   UNL     1      -7.960  11.190  67.782  1.00  0.00    -0.116 C  
HETATM    9  C   UNL     1     -11.251  16.355  67.900  1.00  0.00    -0.184 C  
HETATM   10  O   UNL     1      -7.373   8.964  67.327  1.00  0.00    -0.080 OA 
HETATM   11  C   UNL     1      -9.925  15.633  67.671  1.00  0.00    -0.237 C  
HETATM   12  O   UNL     1      -7.676  13.980  67.599  1.00  0.00    -0.148 OA 
HETATM   13  C   UNL     1      -8.914  12.023  68.259  1.00  0.00    -0.186 C  
HETATM   14  O   UNL     1      -6.757  11.572  67.223  1.00  0.00    -0.090 OA 
HETATM   15  N   UNL     1      -9.807  14.344  68.370  1.00  0.00    -0.228 N  
HETATM   16  C   UNL     1      -8.710  13.524  68.080  1.00  0.00    -0.181 C  
HETATM   17  O   UNL     1     -11.987  14.654  69.367  1.00  0.00    -0.302 OA 
HETATM   18  H   UNL     1      -6.582  12.506  67.224  1.00  0.00     0.000 HD 
HETATM   19  C   UNL     1     -11.823  16.051  69.260  1.00  0.00    -0.257 C  
ENDROOT
BRANCH   5  20
HETATM   20  C   UNL     1      -9.979   7.811  68.226  1.00  0.00    -0.178 C  
HETATM   21  H   UNL     1     -10.010   7.876  66.165  1.00  0.00     0.000 HD 
HETATM   22  N   UNL     1     -10.125   7.270  66.977  1.00  0.00    -0.222 N  
HETATM   23  O   UNL     1     -10.195   7.175  69.267  1.00  0.00    -0.179 OA 
BRANCH  22  24
HETATM   24  C   UNL     1     -10.435   5.874  66.761  1.00  0.00    -0.281 C  
BRANCH  24  25
HETATM   25  C   UNL     1      -9.190   5.049  66.586  1.00  0.00    -0.129 A  
HETATM   26  C   UNL     1      -6.922   3.457  66.244  1.00  0.00    -0.058 A  
HETATM   27  F   UNL     1      -5.847   2.677  66.066  1.00  0.00    -0.019 F  
HETATM   28  C   UNL     1      -7.685   3.314  67.393  1.00  0.00    -0.077 A  
HETATM   29  C   UNL     1      -8.388   5.194  65.444  1.00  0.00    -0.132 A  
HETATM   30  C   UNL     1      -7.258   4.392  65.269  1.00  0.00    -0.068 A  
HETATM   31  C   UNL     1      -8.810   4.116  67.558  1.00  0.00    -0.113 A  
HETATM   32  F   UNL     1      -9.548   3.972  68.666  1.00  0.00    -0.198 F  
ENDBRANCH  24  25
ENDBRANCH  22  24
ENDBRANCH   5  20
TORSDOF 3
ENDMDL
MODEL      143
REMARK 921   NORMALIZED FREE ENERGY PREDICTED BY IDOCK:   -4.22 KCAL/MOL
REMARK 922        TOTAL FREE ENERGY PREDICTED BY IDOCK:   -5.28 KCAL/MOL
REMARK 923 INTER-LIGAND FREE ENERGY PREDICTED BY IDOCK:   -4.68 KCAL/MOL
REMARK 924 INTRA-LIGAND FREE ENERGY PREDICTED BY IDOCK:   -0.60 KCAL/MOL
REMARK 927      BINDING AFFINITY PREDICTED BY RF-SCORE:    0.00 PKD
ROOT
HETATM    1  C   UNL     1      -7.039  12.706  67.378  1.00  0.00    -0.138 C  
HETATM    2  C   UNL     1      -6.768  11.279  67.880  1.00  0.00    -0.063 C  
HETATM    3  N   UNL     1      -7.898  10.362  67.671  1.00  0.00    -0.105 NA 
HETATM    4  C   UNL     1      -7.705   8.997  67.891  1.00  0.00    -0.097 C  
HETATM    5  C   UNL     1      -8.676   8.076  67.963  1.00  0.00    -0.125 C  
HETATM    6  C   UNL     1     -10.055   8.568  67.773  1.00  0.00    -0.211 C  
HETATM    7  C   UNL     1      -9.487  15.460  67.655  1.00  0.00    -0.205 C  
HETATM    8  C   UNL     1     -10.287  10.033  67.586  1.00  0.00    -0.224 C  
HETATM    9  C   UNL     1      -7.267  15.225  68.792  1.00  0.00    -0.127 C  
HETATM   10  O   UNL     1     -11.036   7.821  67.807  1.00  0.00    -0.088 OA 
HETATM   11  C   UNL     1      -8.556  14.499  68.413  1.00  0.00    -0.172 C  
HETATM   12  O   UNL     1     -10.598  12.825  67.506  1.00  0.00    -0.225 OA 
HETATM   13  C   UNL     1      -9.213  10.857  67.569  1.00  0.00    -0.147 C  
HETATM   14  O   UNL     1     -11.608  10.424  67.513  1.00  0.00    -0.555 OA 
HETATM   15  N   UNL     1      -8.349  13.182  67.790  1.00  0.00    -0.157 N  
HETATM   16  C   UNL     1      -9.464  12.362  67.575  1.00  0.00    -0.187 C  
HETATM   17  O   UNL     1      -5.952  13.476  67.897  1.00  0.00    -0.120 OA 
HETATM   18  H   UNL     1     -11.755  11.355  67.393  1.00  0.00     0.000 HD 
HETATM   19  C   UNL     1      -6.135  14.874  67.861  1.00  0.00    -0.154 C  
ENDROOT
BRANCH   5  20
HETATM   20  C   UNL     1      -8.318   6.661  68.257  1.00  0.00    -0.117 C  
HETATM   21  H   UNL     1      -7.423   7.252  70.018  1.00  0.00     0.000 HD 
HETATM   22  N   UNL     1      -7.683   6.446  69.451  1.00  0.00    -0.099 N  
HETATM   23  O   UNL     1      -8.584   5.752  67.459  1.00  0.00    -0.107 OA 
BRANCH  22  24
HETATM   24  C   UNL     1      -7.367   5.122  69.939  1.00  0.00    -0.060 C  
BRANCH  24  25
HETATM   25  C   UNL     1      -8.237   4.736  71.104  1.00  0.00    -0.104 A  
HETATM   26  C   UNL     1      -9.842   3.947  73.246  1.00  0.00    -0.120 A  
HETATM   27  F   UNL     1     -10.602   3.546  74.275  1.00  0.00    -0.208 F  
HETATM   28  C   UNL     1     -10.355   3.899  71.959  1.00  0.00    -0.101 A  
HETATM   29  C   UNL     1      -7.747   4.802  72.417  1.00  0.00    -0.091 A  
HETATM   30  C   UNL     1      -8.548   4.400  73.488  1.00  0.00    -0.096 A  
HETATM   31  C   UNL     1      -9.550   4.299  70.898  1.00  0.00    -0.183 A  
HETATM   32  F   UNL     1     -10.048   4.246  69.656  1.00  0.00    -0.287 F  
ENDBRANCH  24  25
ENDBRANCH  22  24
ENDBRANCH   5  20
TORSDOF 3
ENDMDL
MODEL      144
REMARK 921   NORMALIZED FREE ENERGY PREDICTED BY IDOCK:   -4.20 KCAL/MOL
REMARK 922        TOTAL FREE ENERGY PREDICTED BY IDOCK:   -5.25 KCAL/MOL
REMARK 923 INTER-LIGAND FREE ENERGY PREDICTED BY IDOCK:   -4.91 KCAL/MOL
REMARK 924 INTRA-LIGAND FREE ENERGY PREDICTED BY IDOCK:   -0.35 KCAL/MOL
REMARK 927      BINDING AFFINITY PREDICTED BY RF-SCORE:    0.00 PKD
ROOT
HETATM    1  C   UNL     1      -8.640   4.212  68.192  1.00  0.00    -0.096 C  
HETATM    2  C   UNL     1      -9.516   5.431  67.861  1.00  0.00    -0.120 C  
HETATM    3  N   UNL     1      -8.924   6.708  68.286  1.00  0.00    -0.123 NA 
HETATM    4  C   UNL     1      -9.517   7.898  67.861  1.00  0.00    -0.145 C  
HETATM    5  C   UNL     1      -9.239   9.120  68.337  1.00  0.00    -0.132 C  
HETATM    6  C   UNL     1      -8.202   9.188  69.385  1.00  0.00    -0.118 C  
HETATM    7  C   UNL     1      -6.861   2.597  70.999  1.00  0.00    -0.032 C  
HETATM    8  C   UNL     1      -7.590   7.920  69.889  1.00  0.00    -0.089 C  
HETATM    9  C   UNL     1      -9.065   1.975  69.984  1.00  0.00    -0.165 C  
HETATM   10  O   UNL     1      -7.848  10.252  69.899  1.00  0.00    -0.166 OA 
HETATM   11  C   UNL     1      -8.205   3.136  70.480  1.00  0.00    -0.051 C  
HETATM   12  O   UNL     1      -6.717   5.456  70.922  1.00  0.00    -0.041 OA 
HETATM   13  C   UNL     1      -7.992   6.750  69.341  1.00  0.00    -0.115 C  
HETATM   14  O   UNL     1      -6.701   8.061  70.936  1.00  0.00    -0.037 OA 
HETATM   15  N   UNL     1      -8.124   4.272  69.550  1.00  0.00    -0.060 N  
HETATM   16  C   UNL     1      -7.514   5.454  69.988  1.00  0.00    -0.069 C  
HETATM   17  O   UNL     1      -9.489   3.089  67.942  1.00  0.00    -0.207 OA 
HETATM   18  H   UNL     1      -6.312   7.256  71.255  1.00  0.00     0.000 HD 
HETATM   19  C   UNL     1      -9.040   1.866  68.481  1.00  0.00    -0.152 C  
ENDROOT
BRANCH   5  20
HETATM   20  C   UNL     1      -9.995  10.293  67.820  1.00  0.00    -0.173 C  
HETATM   21  H   UNL     1      -8.222  11.289  67.482  1.00  0.00     0.000 HD 
HETATM   22  N   UNL     1      -9.234  11.336  67.367  1.00  0.00    -0.161 N  
HETATM   23  O   UNL     1     -11.234  10.305  67.811  1.00  0.00    -0.306 OA 
BRANCH  22  24
HETATM   24  C   UNL     1      -9.806  12.503  66.732  1.00  0.00    -0.229 C  
BRANCH  24  25
HETATM   25  C   UNL     1     -10.251  13.524  67.742  1.00  0.00    -0.242 A  
HETATM   26  C   UNL     1     -11.060  15.475  69.567  1.00  0.00    -0.286 A  
HETATM   27  F   UNL     1     -11.453  16.427  70.424  1.00  0.00    -0.356 F  
HETATM   28  C   UNL     1      -9.707  15.256  69.362  1.00  0.00    -0.248 A  
HETATM   29  C   UNL     1     -11.615  13.744  67.984  1.00  0.00    -0.368 A  
HETATM   30  C   UNL     1     -12.020  14.726  68.892  1.00  0.00    -0.298 A  
HETATM   31  C   UNL     1      -9.313  14.278  68.455  1.00  0.00    -0.208 A  
HETATM   32  F   UNL     1      -8.004  14.073  68.256  1.00  0.00    -0.115 F  
ENDBRANCH  24  25
ENDBRANCH  22  24
ENDBRANCH   5  20
TORSDOF 3
ENDMDL
MODEL      145
REMARK 921   NORMALIZED FREE ENERGY PREDICTED BY IDOCK:   -3.83 KCAL/MOL
REMARK 922        TOTAL FREE ENERGY PREDICTED BY IDOCK:   -4.83 KCAL/MOL
REMARK 923 INTER-LIGAND FREE ENERGY PREDICTED BY IDOCK:   -4.89 KCAL/MOL
REMARK 924 INTRA-LIGAND FREE ENERGY PREDICTED BY IDOCK:    0.06 KCAL/MOL
REMARK 927      BINDING AFFINITY PREDICTED BY RF-SCORE:    0.00 PKD
ROOT
HETATM    1  C   UNL     1     -11.117  11.291  64.917  1.00  0.00    -0.113 C  
HETATM    2  C   UNL     1      -9.966  10.276  65.001  1.00  0.00    -0.323 C  
HETATM    3  N   UNL     1      -9.738   9.762  66.359  1.00  0.00    -0.200 NA 
HETATM    4  C   UNL     1      -8.865   8.688  66.533  1.00  0.00    -0.138 C  
HETATM    5  C   UNL     1      -8.384   8.257  67.708  1.00  0.00    -0.128 C  
HETATM    6  C   UNL     1      -8.846   8.987  68.905  1.00  0.00    -0.139 C  
HETATM    7  C   UNL     1     -12.332  14.429  66.443  1.00  0.00    -0.298 C  
HETATM    8  C   UNL     1      -9.741  10.172  68.737  1.00  0.00    -0.172 C  
HETATM    9  C   UNL     1     -11.143  14.113  64.261  1.00  0.00    -0.146 C  
HETATM   10  O   UNL     1      -8.485   8.684  70.045  1.00  0.00    -0.121 OA 
HETATM   11  C   UNL     1     -11.163  13.722  65.737  1.00  0.00    -0.297 C  
HETATM   12  O   UNL     1     -11.202  12.525  68.259  1.00  0.00    -0.229 OA 
HETATM   13  C   UNL     1     -10.122  10.517  67.484  1.00  0.00    -0.189 C  
HETATM   14  O   UNL     1     -10.049  10.858  69.895  1.00  0.00    -0.414 OA 
HETATM   15  N   UNL     1     -11.045  12.276  65.984  1.00  0.00    -0.296 N  
HETATM   16  C   UNL     1     -10.870  11.834  67.300  1.00  0.00    -0.253 C  
HETATM   17  O   UNL     1     -11.005  11.846  63.605  1.00  0.00    -0.371 OA 
HETATM   18  H   UNL     1     -10.618  11.610  69.787  1.00  0.00     0.000 HD 
HETATM   19  C   UNL     1     -11.734  13.034  63.391  1.00  0.00    -0.415 C  
ENDROOT
BRANCH   5  20
HETATM   20  C   UNL     1      -7.416   7.126  67.729  1.00  0.00    -0.098 C  
HETATM   21  H   UNL     1      -7.389   7.186  69.790  1.00  0.00     0.000 HD 
HETATM   22  N   UNL     1      -7.052   6.681  68.972  1.00  0.00    -0.086 N  
HETATM   23  O   UNL     1      -6.979   6.635  66.680  1.00  0.00    -0.063 OA 
BRANCH  22  24
HETATM   24  C   UNL     1      -6.211   5.522  69.170  1.00  0.00    -0.029 C  
BRANCH  24  25
HETATM   25  C   UNL     1      -6.765   4.605  70.226  1.00  0.00    -0.036 A  
HETATM   26  C   UNL     1      -7.847   2.956  72.201  1.00  0.00    -0.054 A  
HETATM   27  F   UNL     1      -8.389   2.176  73.147  1.00  0.00    -0.057 F  
HETATM   28  C   UNL     1      -7.090   4.056  72.574  1.00  0.00    -0.056 A  
HETATM   29  C   UNL     1      -7.512   3.472  69.871  1.00  0.00    -0.045 A  
HETATM   30  C   UNL     1      -8.060   2.652  70.859  1.00  0.00    -0.060 A  
HETATM   31  C   UNL     1      -6.550   4.869  71.583  1.00  0.00    -0.035 A  
HETATM   32  F   UNL     1      -5.823   5.934  71.948  1.00  0.00    -0.026 F  
ENDBRANCH  24  25
ENDBRANCH  22  24
ENDBRANCH   5  20
TORSDOF 3
ENDMDL
MODEL      146
REMARK 921   NORMALIZED FREE ENERGY PREDICTED BY IDOCK:   -3.27 KCAL/MOL
REMARK 922        TOTAL FREE ENERGY PREDICTED BY IDOCK:   -4.17 KCAL/MOL
REMARK 923 INTER-LIGAND FREE ENERGY PREDICTED BY IDOCK:   -4.17 KCAL/MOL
REMARK 924 INTRA-LIGAND FREE ENERGY PREDICTED BY IDOCK:   -0.00 KCAL/MOL
REMARK 927      BINDING AFFINITY PREDICTED BY RF-SCORE:    0.00 PKD
ROOT
HETATM    1  C   UNL     1      -5.962  15.473  68.646  1.00  0.00    -0.097 C  
HETATM    2  C   UNL     1      -5.975  14.348  69.693  1.00  0.00    -0.111 C  
HETATM    3  N   UNL     1      -6.559  13.094  69.197  1.00  0.00    -0.106 NA 
HETATM    4  C   UNL     1      -6.442  11.943  69.978  1.00  0.00     0.002 C  
HETATM    5  C   UNL     1      -7.103  10.795  69.776  1.00  0.00    -0.126 C  
HETATM    6  C   UNL     1      -8.013  10.765  68.614  1.00  0.00    -0.133 C  
HETATM    7  C   UNL     1      -8.178  17.284  66.309  1.00  0.00    -0.302 C  
HETATM    8  C   UNL     1      -8.191  12.003  67.795  1.00  0.00    -0.151 C  
HETATM    9  C   UNL     1      -7.336  18.022  68.550  1.00  0.00    -0.276 C  
HETATM   10  O   UNL     1      -8.672   9.766  68.314  1.00  0.00    -0.118 OA 
HETATM   11  C   UNL     1      -7.936  16.856  67.767  1.00  0.00    -0.180 C  
HETATM   12  O   UNL     1      -8.627  14.463  66.507  1.00  0.00    -0.107 OA 
HETATM   13  C   UNL     1      -7.483  13.106  68.135  1.00  0.00    -0.131 C  
HETATM   14  O   UNL     1      -9.131  11.922  66.787  1.00  0.00    -0.186 OA 
HETATM   15  N   UNL     1      -7.234  15.576  67.951  1.00  0.00    -0.129 N  
HETATM   16  C   UNL     1      -7.811  14.415  67.423  1.00  0.00    -0.190 C  
HETATM   17  O   UNL     1      -5.608  16.643  69.387  1.00  0.00    -0.137 OA 
HETATM   18  H   UNL     1      -9.243  12.709  66.267  1.00  0.00     0.000 HD 
HETATM   19  C   UNL     1      -5.848  17.866  68.728  1.00  0.00    -0.188 C  
ENDROOT
BRANCH   5  20
HETATM   20  C   UNL     1      -6.912   9.667  70.728  1.00  0.00    -0.079 C  
HETATM   21  H   UNL     1      -8.694   8.837  70.105  1.00  0.00     0.000 HD 
HETATM   22  N   UNL     1      -7.877   8.696  70.699  1.00  0.00    -0.088 N  
HETATM   23  O   UNL     1      -5.936   9.627  71.489  1.00  0.00    -0.171 OA 
BRANCH  22  24
HETATM   24  C   UNL     1      -7.787   7.481  71.477  1.00  0.00    -0.086 C  
BRANCH  24  25
HETATM   25  C   UNL     1      -8.268   6.286  70.700  1.00  0.00    -0.125 A  
HETATM   26  C   UNL     1      -9.200   4.047  69.319  1.00  0.00    -0.152 A  
HETATM   27  F   UNL     1      -9.668   2.971  68.671  1.00  0.00    -0.241 F  
HETATM   28  C   UNL     1      -8.214   3.890  70.280  1.00  0.00    -0.071 A  
HETATM   29  C   UNL     1      -9.247   6.425  69.705  1.00  0.00    -0.143 A  
HETATM   30  C   UNL     1      -9.719   5.304  69.019  1.00  0.00    -0.217 A  
HETATM   31  C   UNL     1      -7.751   5.012  70.959  1.00  0.00    -0.087 A  
HETATM   32  F   UNL     1      -6.801   4.856  71.891  1.00  0.00    -0.043 F  
ENDBRANCH  24  25
ENDBRANCH  22  24
ENDBRANCH   5  20
TORSDOF 3
ENDMDL
MODEL      147
REMARK 921   NORMALIZED FREE ENERGY PREDICTED BY IDOCK:   -3.26 KCAL/MOL
REMARK 922        TOTAL FREE ENERGY PREDICTED BY IDOCK:   -4.16 KCAL/MOL
REMARK 923 INTER-LIGAND FREE ENERGY PREDICTED BY IDOCK:   -3.66 KCAL/MOL
REMARK 924 INTRA-LIGAND FREE ENERGY PREDICTED BY IDOCK:   -0.49 KCAL/MOL
REMARK 927      BINDING AFFINITY PREDICTED BY RF-SCORE:    0.00 PKD
ROOT
HETATM    1  C   UNL     1      -8.742  13.977  67.319  1.00  0.00    -0.218 C  
HETATM    2  C   UNL     1      -7.871  12.719  67.463  1.00  0.00    -0.171 C  
HETATM    3  N   UNL     1      -8.584  11.580  68.060  1.00  0.00    -0.143 NA 
HETATM    4  C   UNL     1      -7.971  10.326  68.055  1.00  0.00    -0.101 C  
HETATM    5  C   UNL     1      -8.384   9.255  68.748  1.00  0.00    -0.117 C  
HETATM    6  C   UNL     1      -9.600   9.438  69.564  1.00  0.00    -0.180 C  
HETATM    7  C   UNL     1     -10.945  16.216  69.264  1.00  0.00    -0.315 C  
HETATM    8  C   UNL     1     -10.242  10.787  69.623  1.00  0.00    -0.057 C  
HETATM    9  C   UNL     1      -8.567  16.585  68.569  1.00  0.00    -0.223 C  
HETATM   10  O   UNL     1     -10.087   8.529  70.241  1.00  0.00    -0.181 OA 
HETATM   11  C   UNL     1      -9.552  15.575  69.155  1.00  0.00    -0.253 C  
HETATM   12  O   UNL     1     -11.190  13.424  69.849  1.00  0.00    -0.080 OA 
HETATM   13  C   UNL     1      -9.697  11.791  68.897  1.00  0.00     0.021 C  
HETATM   14  O   UNL     1     -11.316  10.900  70.483  1.00  0.00    -0.425 OA 
HETATM   15  N   UNL     1      -9.504  14.246  68.527  1.00  0.00    -0.209 N  
HETATM   16  C   UNL     1     -10.234  13.203  69.111  1.00  0.00     0.230 C  
HETATM   17  O   UNL     1      -7.816  15.010  66.974  1.00  0.00    -0.209 OA 
HETATM   18  H   UNL     1     -11.724  11.757  70.520  1.00  0.00     0.000 HD 
HETATM   19  C   UNL     1      -8.307  16.325  67.108  1.00  0.00    -0.191 C  
ENDROOT
BRANCH   5  20
HETATM   20  C   UNL     1      -7.593   7.996  68.681  1.00  0.00    -0.100 C  
HETATM   21  H   UNL     1      -9.034   7.154  67.470  1.00  0.00     0.000 HD 
HETATM   22  N   UNL     1      -8.117   7.008  67.891  1.00  0.00    -0.114 N  
HETATM   23  O   UNL     1      -6.533   7.868  69.309  1.00  0.00    -0.035 OA 
BRANCH  22  24
HETATM   24  C   UNL     1      -7.422   5.767  67.628  1.00  0.00    -0.078 C  
BRANCH  24  25
HETATM   25  C   UNL     1      -7.727   5.239  66.254  1.00  0.00    -0.088 A  
HETATM   26  C   UNL     1      -8.351   4.219  63.731  1.00  0.00    -0.100 A  
HETATM   27  F   UNL     1      -8.674   3.725  62.528  1.00  0.00    -0.081 F  
HETATM   28  C   UNL     1      -7.713   3.405  64.654  1.00  0.00    -0.078 A  
HETATM   29  C   UNL     1      -8.350   6.053  65.295  1.00  0.00    -0.148 A  
HETATM   30  C   UNL     1      -8.669   5.540  64.035  1.00  0.00     0.101 A  
HETATM   31  C   UNL     1      -7.400   3.924  65.907  1.00  0.00    -0.073 A  
HETATM   32  F   UNL     1      -6.788   3.133  66.797  1.00  0.00    -0.047 F  
ENDBRANCH  24  25
ENDBRANCH  22  24
ENDBRANCH   5  20
TORSDOF 3
ENDMDL
MODEL      148
REMARK 921   NORMALIZED FREE ENERGY PREDICTED BY IDOCK:   -3.07 KCAL/MOL
REMARK 922        TOTAL FREE ENERGY PREDICTED BY IDOCK:   -3.93 KCAL/MOL
REMARK 923 INTER-LIGAND FREE ENERGY PREDICTED BY IDOCK:   -3.53 KCAL/MOL
REMARK 924 INTRA-LIGAND FREE ENERGY PREDICTED BY IDOCK:   -0.41 KCAL/MOL
REMARK 927      BINDING AFFINITY PREDICTED BY RF-SCORE:    0.00 PKD
ROOT
HETATM    1  C   UNL     1      -5.401  12.024  70.273  1.00  0.00    -0.115 C  
HETATM    2  C   UNL     1      -6.043  10.637  70.437  1.00  0.00    -0.132 C  
HETATM    3  N   UNL     1      -5.940   9.800  69.233  1.00  0.00    -0.034 NA 
HETATM    4  C   UNL     1      -6.296   8.453  69.319  1.00  0.00    -0.038 C  
HETATM    5  C   UNL     1      -6.471   7.627  68.278  1.00  0.00    -0.049 C  
HETATM    6  C   UNL     1      -6.244   8.208  66.941  1.00  0.00    -0.055 C  
HETATM    7  C   UNL     1      -5.419  14.984  68.061  1.00  0.00    -0.140 C  
HETATM    8  C   UNL     1      -5.911   9.661  66.825  1.00  0.00    -0.059 C  
HETATM    9  C   UNL     1      -6.552  14.683  70.274  1.00  0.00    -0.107 C  
HETATM   10  O   UNL     1      -6.364   7.552  65.904  1.00  0.00    -0.041 OA 
HETATM   11  C   UNL     1      -6.262  14.030  68.925  1.00  0.00    -0.089 C  
HETATM   12  O   UNL     1      -5.550  12.447  66.738  1.00  0.00    -0.319 OA 
HETATM   13  C   UNL     1      -5.800  10.388  67.961  1.00  0.00    -0.040 C  
HETATM   14  O   UNL     1      -5.811  10.150  65.538  1.00  0.00    -0.074 OA 
HETATM   15  N   UNL     1      -5.774  12.645  69.013  1.00  0.00    -0.069 N  
HETATM   16  C   UNL     1      -5.655  11.901  67.833  1.00  0.00    -0.055 C  
HETATM   17  O   UNL     1      -5.829  12.750  71.427  1.00  0.00    -0.338 OA 
HETATM   18  H   UNL     1      -5.599  11.073  65.464  1.00  0.00     0.000 HD 
HETATM   19  C   UNL     1      -5.652  14.148  71.358  1.00  0.00    -0.225 C  
ENDROOT
BRANCH   5  20
HETATM   20  C   UNL     1      -6.904   6.224  68.527  1.00  0.00    -0.074 C  
HETATM   21  H   UNL     1      -5.977   6.262  70.368  1.00  0.00     0.000 HD 
HETATM   22  N   UNL     1      -6.563   5.705  69.747  1.00  0.00    -0.048 N  
HETATM   23  O   UNL     1      -7.530   5.584  67.671  1.00  0.00    -0.078 OA 
BRANCH  22  24
HETATM   24  C   UNL     1      -7.002   4.401  70.191  1.00  0.00    -0.041 C  
BRANCH  24  25
HETATM   25  C   UNL     1      -8.046   4.502  71.268  1.00  0.00    -0.087 A  
HETATM   26  C   UNL     1      -9.996   4.615  73.262  1.00  0.00    -0.151 A  
HETATM   27  F   UNL     1     -10.928   4.645  74.225  1.00  0.00    -0.325 F  
HETATM   28  C   UNL     1     -10.384   4.451  71.941  1.00  0.00    -0.167 A  
HETATM   29  C   UNL     1      -7.678   4.693  72.608  1.00  0.00    -0.087 A  
HETATM   30  C   UNL     1      -8.653   4.742  73.607  1.00  0.00    -0.104 A  
HETATM   31  C   UNL     1      -9.406   4.402  70.953  1.00  0.00    -0.150 A  
HETATM   32  F   UNL     1      -9.785   4.239  69.679  1.00  0.00    -0.233 F  
ENDBRANCH  24  25
ENDBRANCH  22  24
ENDBRANCH   5  20
TORSDOF 3
ENDMDL
MODEL      149
REMARK 921   NORMALIZED FREE ENERGY PREDICTED BY IDOCK:   -2.88 KCAL/MOL
REMARK 922        TOTAL FREE ENERGY PREDICTED BY IDOCK:   -3.71 KCAL/MOL
REMARK 923 INTER-LIGAND FREE ENERGY PREDICTED BY IDOCK:   -3.77 KCAL/MOL
REMARK 924 INTRA-LIGAND FREE ENERGY PREDICTED BY IDOCK:    0.06 KCAL/MOL
REMARK 927      BINDING AFFINITY PREDICTED BY RF-SCORE:    0.00 PKD
ROOT
HETATM    1  C   UNL     1     -12.015  11.402  71.178  1.00  0.00     0.075 C  
HETATM    2  C   UNL     1     -12.145   9.889  70.942  1.00  0.00    -0.341 C  
HETATM    3  N   UNL     1     -11.131   9.353  70.022  1.00  0.00    -0.236 NA 
HETATM    4  C   UNL     1     -11.012   7.969  69.888  1.00  0.00    -0.172 C  
HETATM    5  C   UNL     1     -10.305   7.337  68.940  1.00  0.00    -0.207 C  
HETATM    6  C   UNL     1      -9.588   8.200  67.980  1.00  0.00    -0.156 C  
HETATM    7  C   UNL     1     -11.785  14.611  69.361  1.00  0.00    -0.355 C  
HETATM    8  C   UNL     1      -9.744   9.684  68.077  1.00  0.00    -0.146 C  
HETATM    9  C   UNL     1     -13.772  13.607  70.508  1.00  0.00     0.944 C  
HETATM   10  O   UNL     1      -8.896   7.743  67.067  1.00  0.00    -0.122 OA 
HETATM   11  C   UNL     1     -12.595  13.322  69.578  1.00  0.00     0.268 C  
HETATM   12  O   UNL     1     -10.330  12.429  68.211  1.00  0.00    -0.215 OA 
HETATM   13  C   UNL     1     -10.519  10.186  69.066  1.00  0.00    -0.219 C  
HETATM   14  O   UNL     1      -9.121  10.415  67.086  1.00  0.00    -0.139 OA 
HETATM   15  N   UNL     1     -11.815  12.127  69.934  1.00  0.00    -0.333 N  
HETATM   16  C   UNL     1     -10.832  11.679  69.043  1.00  0.00    -0.203 C  
HETATM   17  O   UNL     1     -13.215  11.756  71.870  1.00  0.00    -0.482 OA 
HETATM   18  H   UNL     1      -9.219  11.358  67.148  1.00  0.00     0.000 HD 
HETATM   19  C   UNL     1     -13.498  13.137  71.913  1.00  0.00    -0.424 C  
ENDROOT
BRANCH   5  20
HETATM   20  C   UNL     1     -10.315   5.849  68.893  1.00  0.00    -0.228 C  
HETATM   21  H   UNL     1      -9.554   5.903  66.977  1.00  0.00     0.000 HD 
HETATM   22  N   UNL     1      -9.818   5.289  67.747  1.00  0.00    -0.143 N  
HETATM   23  O   UNL     1     -10.751   5.180  69.839  1.00  0.00    -0.237 OA 
BRANCH  22  24
HETATM   24  C   UNL     1      -9.653   3.862  67.584  1.00  0.00    -0.153 C  
BRANCH  24  25
HETATM   25  C   UNL     1      -8.682   3.536  66.482  1.00  0.00    -0.124 A  
HETATM   26  C   UNL     1      -6.882   2.860  64.459  1.00  0.00    -0.040 A  
HETATM   27  F   UNL     1      -6.026   2.512  63.488  1.00  0.00    -0.009 F  
HETATM   28  C   UNL     1      -6.438   2.918  65.771  1.00  0.00    -0.028 A  
HETATM   29  C   UNL     1      -9.103   3.497  65.145  1.00  0.00    -0.142 A  
HETATM   30  C   UNL     1      -8.204   3.151  64.133  1.00  0.00    -0.086 A  
HETATM   31  C   UNL     1      -7.341   3.262  66.772  1.00  0.00    -0.074 A  
HETATM   32  F   UNL     1      -6.910   3.312  68.039  1.00  0.00    -0.045 F  
ENDBRANCH  24  25
ENDBRANCH  22  24
ENDBRANCH   5  20
TORSDOF 3
ENDMDL
MODEL      150
REMARK 921   NORMALIZED FREE ENERGY PREDICTED BY IDOCK:   -2.18 KCAL/MOL
REMARK 922        TOTAL FREE ENERGY PREDICTED BY IDOCK:   -2.89 KCAL/MOL
REMARK 923 INTER-LIGAND FREE ENERGY PREDICTED BY IDOCK:   -2.55 KCAL/MOL
REMARK 924 INTRA-LIGAND FREE ENERGY PREDICTED BY IDOCK:   -0.34 KCAL/MOL
REMARK 927      BINDING AFFINITY PREDICTED BY RF-SCORE:    0.00 PKD
ROOT
HETATM    1  C   UNL     1     -11.222   9.507  68.595  1.00  0.00     0.112 C  
HETATM    2  C   UNL     1     -11.639  10.901  68.099  1.00  0.00    -0.241 C  
HETATM    3  N   UNL     1     -10.499  11.767  67.766  1.00  0.00    -0.190 NA 
HETATM    4  C   UNL     1     -10.743  12.976  67.113  1.00  0.00    -0.254 C  
HETATM    5  C   UNL     1      -9.852  13.964  66.945  1.00  0.00    -0.268 C  
HETATM    6  C   UNL     1      -8.503  13.722  67.492  1.00  0.00    -0.196 C  
HETATM    7  C   UNL     1      -9.068   7.844  71.095  1.00  0.00    -0.160 C  
HETATM    8  C   UNL     1      -8.236  12.455  68.240  1.00  0.00    -0.170 C  
HETATM    9  C   UNL     1     -11.545   8.210  71.166  1.00  0.00    -0.306 C  
HETATM   10  O   UNL     1      -7.591  14.547  67.397  1.00  0.00    -0.183 OA 
HETATM   11  C   UNL     1     -10.198   8.860  70.857  1.00  0.00    -0.240 C  
HETATM   12  O   UNL     1      -7.947  10.161  69.839  1.00  0.00    -0.169 OA 
HETATM   13  C   UNL     1      -9.241  11.557  68.364  1.00  0.00    -0.190 C  
HETATM   14  O   UNL     1      -6.980  12.347  68.803  1.00  0.00    -0.087 OA 
HETATM   15  N   UNL     1     -10.152   9.582  69.576  1.00  0.00    -0.194 N  
HETATM   16  C   UNL     1      -9.026  10.363  69.288  1.00  0.00    -0.163 C  
HETATM   17  O   UNL     1     -12.431   8.934  69.098  1.00  0.00     2.315 OA 
HETATM   18  H   UNL     1      -6.811  11.542  69.278  1.00  0.00     0.000 HD 
HETATM   19  C   UNL     1     -12.264   7.793  69.909  1.00  0.00     0.956 C  
ENDROOT
BRANCH   5  20
HETATM   20  C   UNL     1     -10.276  15.221  66.270  1.00  0.00    -0.287 C  
HETATM   21  H   UNL     1      -9.581  16.318  67.871  1.00  0.00     0.000 HD 
HETATM   22  N   UNL     1      -9.985  16.380  66.937  1.00  0.00    -0.262 N  
HETATM   23  O   UNL     1     -10.855  15.198  65.175  1.00  0.00    -0.365 OA 
BRANCH  22  24
HETATM   24  C   UNL     1     -10.226  17.688  66.372  1.00  0.00    -0.364 C  
BRANCH  24  25
HETATM   25  C   UNL     1      -9.088  18.632  66.646  1.00  0.00    -0.306 A  
HETATM   26  C   UNL     1      -6.982  20.411  67.086  1.00  0.00    -0.276 A  
HETATM   27  F   UNL     1      -5.981  21.281  67.279  1.00  0.00    -0.274 F  
HETATM   28  C   UNL     1      -6.772  19.293  66.294  1.00  0.00    -0.224 A  
HETATM   29  C   UNL     1      -9.270  19.756  67.465  1.00  0.00    -0.428 A  
HETATM   30  C   UNL     1      -8.219  20.651  67.678  1.00  0.00    -0.192 A  
HETATM   31  C   UNL     1      -7.826  18.408  66.085  1.00  0.00    -0.207 A  
HETATM   32  F   UNL     1      -7.620  17.331  65.316  1.00  0.00     0.263 F  
ENDBRANCH  24  25
ENDBRANCH  22  24
ENDBRANCH   5  20
TORSDOF 3
ENDMDL
MODEL      151
REMARK 921   NORMALIZED FREE ENERGY PREDICTED BY IDOCK:   -0.10 KCAL/MOL
REMARK 922        TOTAL FREE ENERGY PREDICTED BY IDOCK:   -0.44 KCAL/MOL
REMARK 923 INTER-LIGAND FREE ENERGY PREDICTED BY IDOCK:    0.04 KCAL/MOL
REMARK 924 INTRA-LIGAND FREE ENERGY PREDICTED BY IDOCK:   -0.48 KCAL/MOL
REMARK 927      BINDING AFFINITY PREDICTED BY RF-SCORE:    0.00 PKD
ROOT
HETATM    1  C   UNL     1     -10.903   9.462  71.497  1.00  0.00    -0.328 C  
HETATM    2  C   UNL     1      -9.840  10.135  70.614  1.00  0.00     0.405 C  
HETATM    3  N   UNL     1     -10.331  11.336  69.922  1.00  0.00     0.364 NA 
HETATM    4  C   UNL     1      -9.412  12.151  69.259  1.00  0.00     0.734 C  
HETATM    5  C   UNL     1      -9.721  13.138  68.407  1.00  0.00    -0.196 C  
HETATM    6  C   UNL     1     -11.161  13.375  68.181  1.00  0.00    -0.258 C  
HETATM    7  C   UNL     1     -14.352   8.140  71.382  1.00  0.00    -0.472 C  
HETATM    8  C   UNL     1     -12.159  12.480  68.842  1.00  0.00    -0.122 C  
HETATM    9  C   UNL     1     -12.192   6.873  71.310  1.00  0.00    -0.427 C  
HETATM   10  O   UNL     1     -11.576  14.258  67.427  1.00  0.00    -0.330 OA 
HETATM   11  C   UNL     1     -12.943   8.087  70.767  1.00  0.00     0.328 C  
HETATM   12  O   UNL     1     -13.909  10.571  69.935  1.00  0.00     0.718 OA 
HETATM   13  C   UNL     1     -11.704  11.497  69.654  1.00  0.00    -0.351 C  
HETATM   14  O   UNL     1     -13.479  12.704  68.504  1.00  0.00     3.118 OA 
HETATM   15  N   UNL     1     -12.178   9.343  70.808  1.00  0.00    -0.218 N  
HETATM   16  C   UNL     1     -12.707  10.470  70.168  1.00  0.00    -0.127 C  
HETATM   17  O   UNL     1     -10.320   8.208  71.859  1.00  0.00    -0.204 OA 
HETATM   18  H   UNL     1     -14.113  12.136  68.924  1.00  0.00     0.000 HD 
HETATM   19  C   UNL     1     -11.217   7.259  72.392  1.00  0.00    -0.281 C  
ENDROOT
BRANCH   5  20
HETATM   20  C   UNL     1      -8.626  13.890  67.734  1.00  0.00    -0.182 C  
HETATM   21  H   UNL     1      -7.667  14.117  69.546  1.00  0.00     0.000 HD 
HETATM   22  N   UNL     1      -7.593  14.282  68.542  1.00  0.00    -0.120 N  
HETATM   23  O   UNL     1      -8.667  14.135  66.521  1.00  0.00    -0.122 OA 
BRANCH  22  24
HETATM   24  C   UNL     1      -6.401  14.922  68.031  1.00  0.00    -0.152 C  
BRANCH  24  25
HETATM   25  C   UNL     1      -6.452  16.415  68.205  1.00  0.00    -0.135 A  
HETATM   26  C   UNL     1      -6.473  19.189  68.513  1.00  0.00    -0.247 A  
HETATM   27  F   UNL     1      -6.462  20.522  68.647  1.00  0.00    -0.326 F  
HETATM   28  C   UNL     1      -5.947  18.397  69.522  1.00  0.00    -0.257 A  
HETATM   29  C   UNL     1      -7.003  17.233  67.208  1.00  0.00    -0.194 A  
HETATM   30  C   UNL     1      -7.006  18.622  67.359  1.00  0.00    -0.208 A  
HETATM   31  C   UNL     1      -5.946  17.015  69.362  1.00  0.00    -0.216 A  
HETATM   32  F   UNL     1      -5.433  16.254  70.338  1.00  0.00    -0.157 F  
ENDBRANCH  24  25
ENDBRANCH  22  24
ENDBRANCH   5  20
TORSDOF 3
ENDMDL
MODEL      152
REMARK 921   NORMALIZED FREE ENERGY PREDICTED BY IDOCK:    1.92 KCAL/MOL
REMARK 922        TOTAL FREE ENERGY PREDICTED BY IDOCK:    1.93 KCAL/MOL
REMARK 923 INTER-LIGAND FREE ENERGY PREDICTED BY IDOCK:    1.39 KCAL/MOL
REMARK 924 INTRA-LIGAND FREE ENERGY PREDICTED BY IDOCK:    0.54 KCAL/MOL
REMARK 927      BINDING AFFINITY PREDICTED BY RF-SCORE:    0.00 PKD
ROOT
HETATM    1  C   UNL     1      -5.981  14.894  69.590  1.00  0.00    -0.114 C  
HETATM    2  C   UNL     1      -6.577  13.623  70.215  1.00  0.00     0.191 C  
HETATM    3  N   UNL     1      -6.645  12.490  69.281  1.00  0.00    -0.103 NA 
HETATM    4  C   UNL     1      -6.972  11.228  69.779  1.00  0.00    -0.004 C  
HETATM    5  C   UNL     1      -7.290  10.157  69.038  1.00  0.00    -0.087 C  
HETATM    6  C   UNL     1      -7.271  10.350  67.575  1.00  0.00    -0.087 C  
HETATM    7  C   UNL     1      -6.356  17.148  66.686  1.00  0.00    -0.254 C  
HETATM    8  C   UNL     1      -6.973  11.707  67.023  1.00  0.00    -0.144 C  
HETATM    9  C   UNL     1      -7.146  17.490  69.039  1.00  0.00    -0.234 C  
HETATM   10  O   UNL     1      -7.536   9.442  66.783  1.00  0.00    -0.096 OA 
HETATM   11  C   UNL     1      -7.052  16.489  67.889  1.00  0.00    -0.137 C  
HETATM   12  O   UNL     1      -6.657  14.355  66.133  1.00  0.00     3.177 OA 
HETATM   13  C   UNL     1      -6.702  12.710  67.891  1.00  0.00    -0.109 C  
HETATM   14  O   UNL     1      -7.070  11.828  65.651  1.00  0.00     0.220 OA 
HETATM   15  N   UNL     1      -6.543  15.164  68.277  1.00  0.00    -0.102 N  
HETATM   16  C   UNL     1      -6.592  14.127  67.338  1.00  0.00     0.083 C  
HETATM   17  O   UNL     1      -6.240  15.917  70.554  1.00  0.00     0.013 OA 
HETATM   18  H   UNL     1      -6.880  12.690  65.301  1.00  0.00     0.000 HD 
HETATM   19  C   UNL     1      -6.089  17.238  70.084  1.00  0.00    -0.019 C  
ENDROOT
BRANCH   5  20
HETATM   20  C   UNL     1      -7.668   8.887  69.717  1.00  0.00    -0.078 C  
HETATM   21  H   UNL     1      -8.591   8.237  67.992  1.00  0.00     0.000 HD 
HETATM   22  N   UNL     1      -8.328   7.973  68.941  1.00  0.00    -0.125 N  
HETATM   23  O   UNL     1      -7.394   8.690  70.909  1.00  0.00    -0.059 OA 
BRANCH  22  24
HETATM   24  C   UNL     1      -8.666   6.648  69.411  1.00  0.00    -0.135 C  
BRANCH  24  25
HETATM   25  C   UNL     1      -7.761   5.601  68.823  1.00  0.00    -0.089 A  
HETATM   26  C   UNL     1      -6.022   3.704  67.742  1.00  0.00    -0.027 A  
HETATM   27  F   UNL     1      -5.168   2.805  67.234  1.00  0.00    -0.007 F  
HETATM   28  C   UNL     1      -6.404   4.793  66.972  1.00  0.00    -0.037 A  
HETATM   29  C   UNL     1      -7.382   4.478  69.574  1.00  0.00    -0.051 A  
HETATM   30  C   UNL     1      -6.505   3.533  69.036  1.00  0.00    -0.033 A  
HETATM   31  C   UNL     1      -7.275   5.730  67.518  1.00  0.00    -0.076 A  
HETATM   32  F   UNL     1      -7.638   6.782  66.773  1.00  0.00    -0.083 F  
ENDBRANCH  24  25
ENDBRANCH  22  24
ENDBRANCH   5  20
TORSDOF 3
ENDMDL
MODEL      153
REMARK 921   NORMALIZED FREE ENERGY PREDICTED BY IDOCK:   23.50 KCAL/MOL
REMARK 922        TOTAL FREE ENERGY PREDICTED BY IDOCK:   27.30 KCAL/MOL
REMARK 923 INTER-LIGAND FREE ENERGY PREDICTED BY IDOCK:   27.62 KCAL/MOL
REMARK 924 INTRA-LIGAND FREE ENERGY PREDICTED BY IDOCK:   -0.32 KCAL/MOL
REMARK 927      BINDING AFFINITY PREDICTED BY RF-SCORE:    0.00 PKD
ROOT
HETATM    1  C   UNL     1     -13.468  13.011  67.915  1.00  0.00     6.235 C  
HETATM    2  C   UNL     1     -13.203  11.640  68.557  1.00  0.00     4.204 C  
HETATM    3  N   UNL     1     -13.033  11.700  70.016  1.00  0.00     0.331 NA 
HETATM    4  C   UNL     1     -12.994  10.507  70.737  1.00  0.00    -0.330 C  
HETATM    5  C   UNL     1     -12.625  10.385  72.020  1.00  0.00    -0.265 C  
HETATM    6  C   UNL     1     -12.250  11.635  72.710  1.00  0.00     4.310 C  
HETATM    7  C   UNL     1     -12.107  16.441  67.739  1.00  0.00     1.074 C  
HETATM    8  C   UNL     1     -12.237  12.917  71.941  1.00  0.00     0.769 C  
HETATM    9  C   UNL     1     -11.906  14.595  66.058  1.00  0.00    -0.280 C  
HETATM   10  O   UNL     1     -11.900  11.660  73.893  1.00  0.00    11.114 OA 
HETATM   11  C   UNL     1     -11.821  14.943  67.543  1.00  0.00    -0.232 C  
HETATM   12  O   UNL     1     -12.005  15.199  70.317  1.00  0.00    -0.275 OA 
HETATM   13  C   UNL     1     -12.600  12.888  70.637  1.00  0.00    -0.177 C  
HETATM   14  O   UNL     1     -11.782  14.022  72.630  1.00  0.00     0.498 OA 
HETATM   15  N   UNL     1     -12.563  14.028  68.424  1.00  0.00     0.301 N  
HETATM   16  C   UNL     1     -12.399  14.153  69.809  1.00  0.00    -0.299 C  
HETATM   17  O   UNL     1     -13.344  12.774  66.511  1.00  0.00     1.653 OA 
HETATM   18  H   UNL     1     -11.774  14.837  72.141  1.00  0.00     0.000 HD 
HETATM   19  C   UNL     1     -13.215  13.931  65.715  1.00  0.00     0.182 C  
ENDROOT
BRANCH   5  20
HETATM   20  C   UNL     1     -12.584   9.033  72.642  1.00  0.00    -0.174 C  
HETATM   21  H   UNL     1     -11.003   8.519  71.421  1.00  0.00     0.000 HD 
HETATM   22  N   UNL     1     -11.590   8.204  72.193  1.00  0.00    -0.331 N  
HETATM   23  O   UNL     1     -13.405   8.697  73.506  1.00  0.00     0.450 OA 
BRANCH  22  24
HETATM   24  C   UNL     1     -11.340   6.902  72.768  1.00  0.00    -0.199 C  
BRANCH  24  25
HETATM   25  C   UNL     1      -9.873   6.569  72.777  1.00  0.00    -0.180 A  
HETATM   26  C   UNL     1      -7.136   6.026  72.790  1.00  0.00    -0.081 A  
HETATM   27  F   UNL     1      -5.816   5.788  72.805  1.00  0.00    -0.031 F  
HETATM   28  C   UNL     1      -7.743   6.424  71.609  1.00  0.00    -0.100 A  
HETATM   29  C   UNL     1      -9.243   6.139  73.954  1.00  0.00    -0.136 A  
HETATM   30  C   UNL     1      -7.871   5.875  73.962  1.00  0.00    -0.098 A  
HETATM   31  C   UNL     1      -9.110   6.687  71.610  1.00  0.00    -0.142 A  
HETATM   32  F   UNL     1      -9.692   7.076  70.469  1.00  0.00    -0.173 F  
ENDBRANCH  24  25
ENDBRANCH  22  24
ENDBRANCH   5  20
TORSDOF 3
ENDMDL
MODEL      154
REMARK 921   NORMALIZED FREE ENERGY PREDICTED BY IDOCK:   42.62 KCAL/MOL
REMARK 922        TOTAL FREE ENERGY PREDICTED BY IDOCK:   49.77 KCAL/MOL
REMARK 923 INTER-LIGAND FREE ENERGY PREDICTED BY IDOCK:   48.68 KCAL/MOL
REMARK 924 INTRA-LIGAND FREE ENERGY PREDICTED BY IDOCK:    1.10 KCAL/MOL
REMARK 927      BINDING AFFINITY PREDICTED BY RF-SCORE:    0.00 PKD
ROOT
HETATM    1  C   UNL     1      -8.829   6.000  71.017  1.00  0.00    -0.139 C  
HETATM    2  C   UNL     1      -8.328   6.488  69.648  1.00  0.00    -0.131 C  
HETATM    3  N   UNL     1      -8.632   7.901  69.384  1.00  0.00    -0.136 NA 
HETATM    4  C   UNL     1      -8.053   8.517  68.273  1.00  0.00    -0.119 C  
HETATM    5  C   UNL     1      -8.401   9.712  67.776  1.00  0.00    -0.121 C  
HETATM    6  C   UNL     1      -9.479  10.424  68.490  1.00  0.00    -0.159 C  
HETATM    7  C   UNL     1     -11.871   5.865  73.109  1.00  0.00     0.316 C  
HETATM    8  C   UNL     1     -10.146   9.760  69.652  1.00  0.00    -0.229 C  
HETATM    9  C   UNL     1     -10.839   4.041  71.738  1.00  0.00     0.538 C  
HETATM   10  O   UNL     1      -9.885  11.534  68.139  1.00  0.00    -0.181 OA 
HETATM   11  C   UNL     1     -11.239   5.515  71.752  1.00  0.00    -0.094 C  
HETATM   12  O   UNL     1     -11.483   8.294  71.643  1.00  0.00    -0.254 OA 
HETATM   13  C   UNL     1      -9.715   8.532  70.026  1.00  0.00    -0.170 C  
HETATM   14  O   UNL     1     -11.207  10.448  70.205  1.00  0.00    -0.279 OA 
HETATM   15  N   UNL     1     -10.192   6.433  71.276  1.00  0.00    -0.198 N  
HETATM   16  C   UNL     1     -10.522   7.779  71.079  1.00  0.00    -0.203 C  
HETATM   17  O   UNL     1      -8.670   4.581  70.967  1.00  0.00    -0.108 OA 
HETATM   18  H   UNL     1     -11.631  10.027  70.942  1.00  0.00     0.000 HD 
HETATM   19  C   UNL     1      -9.360   3.863  71.966  1.00  0.00    -0.128 C  
ENDROOT
BRANCH   5  20
HETATM   20  C   UNL     1      -7.725  10.216  66.549  1.00  0.00    -0.108 C  
HETATM   21  H   UNL     1      -8.800  11.971  66.676  1.00  0.00     0.000 HD 
HETATM   22  N   UNL     1      -8.064  11.486  66.165  1.00  0.00    -0.022 N  
HETATM   23  O   UNL     1      -6.914   9.515  65.929  1.00  0.00    -0.087 OA 
BRANCH  22  24
HETATM   24  C   UNL     1      -7.419  12.166  65.064  1.00  0.00     3.581 C  
BRANCH  24  25
HETATM   25  C   UNL     1      -7.362  13.653  65.286  1.00  0.00     9.070 A  
HETATM   26  C   UNL     1      -7.198  16.401  65.744  1.00  0.00     1.662 A  
HETATM   27  F   UNL     1      -7.096  17.718  65.971  1.00  0.00    -0.266 F  
HETATM   28  C   UNL     1      -7.748  15.582  66.718  1.00  0.00    -0.111 A  
HETATM   29  C   UNL     1      -6.834  14.504  64.303  1.00  0.00    22.219 A  
HETATM   30  C   UNL     1      -6.745  15.878  64.536  1.00  0.00    13.627 A  
HETATM   31  C   UNL     1      -7.831  14.214  66.479  1.00  0.00     1.059 A  
HETATM   32  F   UNL     1      -8.357  13.425  67.424  1.00  0.00    -0.151 F  
ENDBRANCH  24  25
ENDBRANCH  22  24
ENDBRANCH   5  20
TORSDOF 3
ENDMDL
